MODEL 1
REMARK VINA RESULT:    -8.746      0.000      0.000
REMARK INTER + INTRA:         -11.457
REMARK INTER:                 -10.791
REMARK INTRA:                  -0.666
REMARK UNBOUND:                -0.666
REMARK  Name = 
REMARK  4 active torsions:
REMARK  status: ('A' for Active; 'I' for Inactive)
REMARK    1  A    between atoms: C_2  and  C_4
REMARK    2  A    between atoms: N_8  and  C_9
REMARK    3  A    between atoms: C_9  and  C_10
REMARK    4  A    between atoms: C_14  and  C_15
REMARK                            x       y       z     vdW  Elec       q    Type
REMARK                         _______ _______ _______ _____ _____    ______ ____
ROOT
ATOM      1  C   UNL     1      46.639   2.496   7.194  0.00  0.00    +0.000 A 
ATOM      2  C   UNL     1      46.078   3.721   7.536  0.00  0.00    +0.000 A 
ATOM      3  C   UNL     1      45.263   3.801   8.663  0.00  0.00    +0.000 A 
ATOM      4  C   UNL     1      45.015   2.665   9.425  0.00  0.00    +0.000 A 
ATOM      5  N   UNL     1      44.302   2.672  10.590  0.00  0.00    +0.000 N 
ATOM      6  N   UNL     1      45.522   1.464   9.076  0.00  0.00    +0.000 NA
ATOM      7  C   UNL     1      46.313   1.398   7.972  0.00  0.00    +0.000 A 
ATOM      8  H   UNL     1      44.130   1.744  10.953  0.00  0.00    +0.000 HD
ENDROOT
BRANCH   1  10
ATOM      9  N   UNL     1      47.479   3.268   5.052  0.00  0.00    +0.000 N 
ATOM     10  C   UNL     1      47.557   2.334   6.049  0.00  0.00    +0.000 C 
ATOM     11  O   UNL     1      48.382   1.431   6.009  0.00  0.00    +0.000 OA
ATOM     12  H   UNL     1      48.181   3.212   4.325  0.00  0.00    +0.000 HD
ATOM     13  H   UNL     1      47.006   4.152   5.176  0.00  0.00    +0.000 HD
ENDBRANCH   1  10
BRANCH   5  14
ATOM     14  C   UNL     1      43.589   3.796  11.149  0.00  0.00    +0.000 C 
BRANCH  14  15
ATOM     15  C   UNL     1      44.523   4.828  11.732  0.00  0.00    +0.000 A 
ATOM     16  C   UNL     1      44.456   6.161  11.309  0.00  0.00    +0.000 A 
ATOM     17  C   UNL     1      45.289   7.121  11.874  0.00  0.00    +0.000 A 
ATOM     18  C   UNL     1      46.175   6.765  12.893  0.00  0.00    +0.000 A 
ATOM     19  C   UNL     1      46.238   5.447  13.383  0.00  0.00    +0.000 A 
ATOM     20  C   UNL     1      45.426   4.483  12.756  0.00  0.00    +0.000 A 
BRANCH  19  21
ATOM     21  C   UNL     1      47.060   5.099  14.563  0.00  0.00    +0.000 A 
ATOM     22  C   UNL     1      47.994   5.993  15.094  0.00  0.00    +0.000 A 
ATOM     23  C   UNL     1      48.691   5.657  16.252  0.00  0.00    +0.000 A 
ATOM     24  C   UNL     1      48.445   4.433  16.855  0.00  0.00    +0.000 A 
ATOM     25  C   UNL     1      47.508   3.597  16.273  0.00  0.00    +0.000 A 
ATOM     26  N   UNL     1      46.810   3.902  15.155  0.00  0.00    +0.000 NA
ENDBRANCH  19  21
ENDBRANCH  14  15
ENDBRANCH   5  14
TORSDOF 4
ENDMDL
MODEL 2
REMARK VINA RESULT:    -8.542      1.907      3.805
REMARK INTER + INTRA:         -11.205
REMARK INTER:                 -10.481
REMARK INTRA:                  -0.725
REMARK UNBOUND:                -0.666
REMARK  Name = 
REMARK  4 active torsions:
REMARK  status: ('A' for Active; 'I' for Inactive)
REMARK    1  A    between atoms: C_2  and  C_4
REMARK    2  A    between atoms: N_8  and  C_9
REMARK    3  A    between atoms: C_9  and  C_10
REMARK    4  A    between atoms: C_14  and  C_15
REMARK                            x       y       z     vdW  Elec       q    Type
REMARK                         _______ _______ _______ _____ _____    ______ ____
ROOT
ATOM      1  C   UNL     1      46.559   2.491   7.288  0.00  0.00    +0.000 A 
ATOM      2  C   UNL     1      46.053   3.723   7.681  0.00  0.00    +0.000 A 
ATOM      3  C   UNL     1      45.192   3.784   8.776  0.00  0.00    +0.000 A 
ATOM      4  C   UNL     1      44.846   2.620   9.454  0.00  0.00    +0.000 A 
ATOM      5  N   UNL     1      44.082   2.599  10.586  0.00  0.00    +0.000 N 
ATOM      6  N   UNL     1      45.302   1.415   9.053  0.00  0.00    +0.000 NA
ATOM      7  C   UNL     1      46.137   1.369   7.982  0.00  0.00    +0.000 A 
ATOM      8  H   UNL     1      43.841   1.663  10.883  0.00  0.00    +0.000 HD
ENDROOT
BRANCH   1  10
ATOM      9  N   UNL     1      47.419   3.241   5.146  0.00  0.00    +0.000 N 
ATOM     10  C   UNL     1      47.519   2.345   6.176  0.00  0.00    +0.000 C 
ATOM     11  O   UNL     1      48.394   1.488   6.189  0.00  0.00    +0.000 OA
ATOM     12  H   UNL     1      48.145   3.201   4.441  0.00  0.00    +0.000 HD
ATOM     13  H   UNL     1      46.894   4.100   5.227  0.00  0.00    +0.000 HD
ENDBRANCH   1  10
BRANCH   5  14
ATOM     14  C   UNL     1      43.407   3.727  11.183  0.00  0.00    +0.000 C 
BRANCH  14  15
ATOM     15  C   UNL     1      44.363   4.642  11.908  0.00  0.00    +0.000 A 
ATOM     16  C   UNL     1      45.321   4.115  12.782  0.00  0.00    +0.000 A 
ATOM     17  C   UNL     1      46.228   4.954  13.420  0.00  0.00    +0.000 A 
ATOM     18  C   UNL     1      46.208   6.327  13.166  0.00  0.00    +0.000 A 
ATOM     19  C   UNL     1      45.295   6.892  12.257  0.00  0.00    +0.000 A 
ATOM     20  C   UNL     1      44.351   6.029  11.667  0.00  0.00    +0.000 A 
BRANCH  19  21
ATOM     21  C   UNL     1      45.372   8.317  11.867  0.00  0.00    +0.000 A 
ATOM     22  C   UNL     1      44.324   8.950  11.194  0.00  0.00    +0.000 A 
ATOM     23  C   UNL     1      44.403  10.312  10.915  0.00  0.00    +0.000 A 
ATOM     24  C   UNL     1      45.531  11.015  11.309  0.00  0.00    +0.000 A 
ATOM     25  C   UNL     1      46.531  10.324  11.971  0.00  0.00    +0.000 A 
ATOM     26  N   UNL     1      46.476   9.004  12.263  0.00  0.00    +0.000 NA
ENDBRANCH  19  21
ENDBRANCH  14  15
ENDBRANCH   5  14
TORSDOF 4
ENDMDL
MODEL 3
REMARK VINA RESULT:    -7.765      3.020      7.110
REMARK INTER + INTRA:         -10.247
REMARK INTER:                 -10.017
REMARK INTRA:                  -0.230
REMARK UNBOUND:                -0.666
REMARK  Name = 
REMARK  4 active torsions:
REMARK  status: ('A' for Active; 'I' for Inactive)
REMARK    1  A    between atoms: C_2  and  C_4
REMARK    2  A    between atoms: N_8  and  C_9
REMARK    3  A    between atoms: C_9  and  C_10
REMARK    4  A    between atoms: C_14  and  C_15
REMARK                            x       y       z     vdW  Elec       q    Type
REMARK                         _______ _______ _______ _____ _____    ______ ____
ROOT
ATOM      1  C   UNL     1      47.684   6.860  13.525  0.00  0.00    +0.000 A 
ATOM      2  C   UNL     1      46.730   5.853  13.608  0.00  0.00    +0.000 A 
ATOM      3  C   UNL     1      45.572   5.954  12.839  0.00  0.00    +0.000 A 
ATOM      4  C   UNL     1      45.381   7.054  12.010  0.00  0.00    +0.000 A 
ATOM      5  N   UNL     1      44.320   7.189  11.159  0.00  0.00    +0.000 N 
ATOM      6  N   UNL     1      46.284   8.054  11.956  0.00  0.00    +0.000 NA
ATOM      7  C   UNL     1      47.407   7.946  12.713  0.00  0.00    +0.000 A 
ATOM      8  H   UNL     1      44.285   8.095  10.713  0.00  0.00    +0.000 HD
ENDROOT
BRANCH   1  10
ATOM      9  N   UNL     1      50.049   7.388  13.668  0.00  0.00    +0.000 N 
ATOM     10  C   UNL     1      48.962   6.805  14.263  0.00  0.00    +0.000 C 
ATOM     11  O   UNL     1      49.042   6.301  15.375  0.00  0.00    +0.000 OA
ATOM     12  H   UNL     1      50.893   7.441  14.224  0.00  0.00    +0.000 HD
ATOM     13  H   UNL     1      49.961   8.028  12.892  0.00  0.00    +0.000 HD
ENDBRANCH   1  10
BRANCH   5  14
ATOM     14  C   UNL     1      43.178   6.310  11.071  0.00  0.00    +0.000 C 
BRANCH  14  15
ATOM     15  C   UNL     1      43.583   4.865  10.915  0.00  0.00    +0.000 A 
ATOM     16  C   UNL     1      43.032   3.883  11.746  0.00  0.00    +0.000 A 
ATOM     17  C   UNL     1      43.375   2.545  11.578  0.00  0.00    +0.000 A 
ATOM     18  C   UNL     1      44.248   2.171  10.554  0.00  0.00    +0.000 A 
ATOM     19  C   UNL     1      44.785   3.120   9.665  0.00  0.00    +0.000 A 
ATOM     20  C   UNL     1      44.467   4.473   9.892  0.00  0.00    +0.000 A 
BRANCH  19  21
ATOM     21  C   UNL     1      45.583   2.713   8.487  0.00  0.00    +0.000 A 
ATOM     22  C   UNL     1      45.893   3.614   7.466  0.00  0.00    +0.000 A 
ATOM     23  C   UNL     1      46.712   3.212   6.413  0.00  0.00    +0.000 A 
ATOM     24  C   UNL     1      47.202   1.915   6.399  0.00  0.00    +0.000 A 
ATOM     25  C   UNL     1      46.852   1.076   7.443  0.00  0.00    +0.000 A 
ATOM     26  N   UNL     1      46.066   1.443   8.482  0.00  0.00    +0.000 NA
ENDBRANCH  19  21
ENDBRANCH  14  15
ENDBRANCH   5  14
TORSDOF 4
ENDMDL
MODEL 4
REMARK VINA RESULT:    -7.450      3.162      7.338
REMARK INTER + INTRA:          -9.859
REMARK INTER:                  -9.088
REMARK INTRA:                  -0.771
REMARK UNBOUND:                -0.666
REMARK  Name = 
REMARK  4 active torsions:
REMARK  status: ('A' for Active; 'I' for Inactive)
REMARK    1  A    between atoms: C_2  and  C_4
REMARK    2  A    between atoms: N_8  and  C_9
REMARK    3  A    between atoms: C_9  and  C_10
REMARK    4  A    between atoms: C_14  and  C_15
REMARK                            x       y       z     vdW  Elec       q    Type
REMARK                         _______ _______ _______ _____ _____    ______ ____
ROOT
ATOM      1  C   UNL     1      49.530   7.707  12.904  0.00  0.00    +0.000 A 
ATOM      2  C   UNL     1      48.844   7.752  11.697  0.00  0.00    +0.000 A 
ATOM      3  C   UNL     1      47.511   7.346  11.660  0.00  0.00    +0.000 A 
ATOM      4  C   UNL     1      46.887   6.899  12.820  0.00  0.00    +0.000 A 
ATOM      5  N   UNL     1      45.565   6.568  12.893  0.00  0.00    +0.000 N 
ATOM      6  N   UNL     1      47.559   6.815  13.987  0.00  0.00    +0.000 NA
ATOM      7  C   UNL     1      48.860   7.210  14.009  0.00  0.00    +0.000 A 
ATOM      8  H   UNL     1      45.306   6.163  13.782  0.00  0.00    +0.000 HD
ENDROOT
BRANCH   1  10
ATOM      9  N   UNL     1      51.597   7.789  14.172  0.00  0.00    +0.000 N 
ATOM     10  C   UNL     1      50.925   8.169  13.042  0.00  0.00    +0.000 C 
ATOM     11  O   UNL     1      51.475   8.827  12.168  0.00  0.00    +0.000 OA
ATOM     12  H   UNL     1      52.583   8.018  14.210  0.00  0.00    +0.000 HD
ATOM     13  H   UNL     1      51.269   7.045  14.772  0.00  0.00    +0.000 HD
ENDBRANCH   1  10
BRANCH   5  14
ATOM     14  C   UNL     1      44.640   6.495  11.786  0.00  0.00    +0.000 C 
BRANCH  14  15
ATOM     15  C   UNL     1      44.490   5.089  11.261  0.00  0.00    +0.000 A 
ATOM     16  C   UNL     1      43.510   4.239  11.786  0.00  0.00    +0.000 A 
ATOM     17  C   UNL     1      43.346   2.955  11.275  0.00  0.00    +0.000 A 
ATOM     18  C   UNL     1      44.138   2.519  10.212  0.00  0.00    +0.000 A 
ATOM     19  C   UNL     1      45.101   3.359   9.622  0.00  0.00    +0.000 A 
ATOM     20  C   UNL     1      45.287   4.632  10.194  0.00  0.00    +0.000 A 
BRANCH  19  21
ATOM     21  C   UNL     1      45.833   2.958   8.400  0.00  0.00    +0.000 A 
ATOM     22  C   UNL     1      46.267   1.645   8.204  0.00  0.00    +0.000 A 
ATOM     23  C   UNL     1      46.884   1.292   7.006  0.00  0.00    +0.000 A 
ATOM     24  C   UNL     1      47.058   2.259   6.028  0.00  0.00    +0.000 A 
ATOM     25  C   UNL     1      46.605   3.540   6.291  0.00  0.00    +0.000 A 
ATOM     26  N   UNL     1      45.995   3.908   7.442  0.00  0.00    +0.000 NA
ENDBRANCH  19  21
ENDBRANCH  14  15
ENDBRANCH   5  14
TORSDOF 4
ENDMDL
MODEL 5
REMARK VINA RESULT:    -7.024      3.428      8.545
REMARK INTER + INTRA:          -9.333
REMARK INTER:                  -8.866
REMARK INTRA:                  -0.467
REMARK UNBOUND:                -0.666
REMARK  Name = 
REMARK  4 active torsions:
REMARK  status: ('A' for Active; 'I' for Inactive)
REMARK    1  A    between atoms: C_2  and  C_4
REMARK    2  A    between atoms: N_8  and  C_9
REMARK    3  A    between atoms: C_9  and  C_10
REMARK    4  A    between atoms: C_14  and  C_15
REMARK                            x       y       z     vdW  Elec       q    Type
REMARK                         _______ _______ _______ _____ _____    ______ ____
ROOT
ATOM      1  C   UNL     1      48.628   4.449  18.204  0.00  0.00    +0.000 A 
ATOM      2  C   UNL     1      48.692   5.536  17.341  0.00  0.00    +0.000 A 
ATOM      3  C   UNL     1      47.939   5.516  16.169  0.00  0.00    +0.000 A 
ATOM      4  C   UNL     1      47.142   4.416  15.873  0.00  0.00    +0.000 A 
ATOM      5  N   UNL     1      46.307   4.350  14.795  0.00  0.00    +0.000 N 
ATOM      6  N   UNL     1      47.106   3.340  16.686  0.00  0.00    +0.000 NA
ATOM      7  C   UNL     1      47.848   3.370  17.824  0.00  0.00    +0.000 A 
ATOM      8  H   UNL     1      45.885   3.439  14.675  0.00  0.00    +0.000 HD
ENDROOT
BRANCH   1  10
ATOM      9  N   UNL     1      48.649   3.985  20.586  0.00  0.00    +0.000 N 
ATOM     10  C   UNL     1      49.350   4.412  19.491  0.00  0.00    +0.000 C 
ATOM     11  O   UNL     1      50.535   4.708  19.572  0.00  0.00    +0.000 OA
ATOM     12  H   UNL     1      49.177   3.861  21.441  0.00  0.00    +0.000 HD
ATOM     13  H   UNL     1      47.769   3.495  20.507  0.00  0.00    +0.000 HD
ENDBRANCH   1  10
BRANCH   5  14
ATOM     14  C   UNL     1      46.206   5.322  13.732  0.00  0.00    +0.000 C 
BRANCH  14  15
ATOM     15  C   UNL     1      45.293   4.859  12.622  0.00  0.00    +0.000 A 
ATOM     16  C   UNL     1      43.914   5.081  12.703  0.00  0.00    +0.000 A 
ATOM     17  C   UNL     1      43.077   4.690  11.663  0.00  0.00    +0.000 A 
ATOM     18  C   UNL     1      43.615   4.102  10.516  0.00  0.00    +0.000 A 
ATOM     19  C   UNL     1      45.001   3.908  10.373  0.00  0.00    +0.000 A 
ATOM     20  C   UNL     1      45.820   4.260  11.462  0.00  0.00    +0.000 A 
BRANCH  19  21
ATOM     21  C   UNL     1      45.589   3.431   9.101  0.00  0.00    +0.000 A 
ATOM     22  C   UNL     1      45.681   2.069   8.802  0.00  0.00    +0.000 A 
ATOM     23  C   UNL     1      46.169   1.665   7.562  0.00  0.00    +0.000 A 
ATOM     24  C   UNL     1      46.559   2.629   6.645  0.00  0.00    +0.000 A 
ATOM     25  C   UNL     1      46.441   3.960   7.010  0.00  0.00    +0.000 A 
ATOM     26  N   UNL     1      45.962   4.380   8.204  0.00  0.00    +0.000 NA
ENDBRANCH  19  21
ENDBRANCH  14  15
ENDBRANCH   5  14
TORSDOF 4
ENDMDL
MODEL 6
REMARK VINA RESULT:    -6.950      3.442      7.158
REMARK INTER + INTRA:          -9.241
REMARK INTER:                  -8.463
REMARK INTRA:                  -0.778
REMARK UNBOUND:                -0.666
REMARK  Name = 
REMARK  4 active torsions:
REMARK  status: ('A' for Active; 'I' for Inactive)
REMARK    1  A    between atoms: C_2  and  C_4
REMARK    2  A    between atoms: N_8  and  C_9
REMARK    3  A    between atoms: C_9  and  C_10
REMARK    4  A    between atoms: C_14  and  C_15
REMARK                            x       y       z     vdW  Elec       q    Type
REMARK                         _______ _______ _______ _____ _____    ______ ____
ROOT
ATOM      1  C   UNL     1      48.512   8.905  12.011  0.00  0.00    +0.000 A 
ATOM      2  C   UNL     1      48.846   7.568  11.833  0.00  0.00    +0.000 A 
ATOM      3  C   UNL     1      48.033   6.587  12.396  0.00  0.00    +0.000 A 
ATOM      4  C   UNL     1      46.909   6.951  13.129  0.00  0.00    +0.000 A 
ATOM      5  N   UNL     1      46.012   6.056  13.639  0.00  0.00    +0.000 N 
ATOM      6  N   UNL     1      46.602   8.247  13.341  0.00  0.00    +0.000 NA
ATOM      7  C   UNL     1      47.405   9.195  12.790  0.00  0.00    +0.000 A 
ATOM      8  H   UNL     1      45.317   6.488  14.233  0.00  0.00    +0.000 HD
ENDROOT
BRANCH   1  10
ATOM      9  N   UNL     1      50.646   9.971  11.563  0.00  0.00    +0.000 N 
ATOM     10  C   UNL     1      49.288  10.006  11.404  0.00  0.00    +0.000 C 
ATOM     11  O   UNL     1      48.748  10.888  10.750  0.00  0.00    +0.000 OA
ATOM     12  H   UNL     1      51.179  10.667  11.056  0.00  0.00    +0.000 HD
ATOM     13  H   UNL     1      51.134   9.138  11.862  0.00  0.00    +0.000 HD
ENDBRANCH   1  10
BRANCH   5  14
ATOM     14  C   UNL     1      46.137   4.618  13.625  0.00  0.00    +0.000 C 
BRANCH  14  15
ATOM     15  C   UNL     1      45.276   3.982  12.561  0.00  0.00    +0.000 A 
ATOM     16  C   UNL     1      43.896   3.853  12.752  0.00  0.00    +0.000 A 
ATOM     17  C   UNL     1      43.096   3.304  11.756  0.00  0.00    +0.000 A 
ATOM     18  C   UNL     1      43.664   2.908  10.543  0.00  0.00    +0.000 A 
ATOM     19  C   UNL     1      45.039   3.067  10.290  0.00  0.00    +0.000 A 
ATOM     20  C   UNL     1      45.835   3.573  11.335  0.00  0.00    +0.000 A 
BRANCH  19  21
ATOM     21  C   UNL     1      45.617   2.795   8.955  0.00  0.00    +0.000 A 
ATOM     22  C   UNL     1      45.787   3.811   8.011  0.00  0.00    +0.000 A 
ATOM     23  C   UNL     1      46.406   3.528   6.796  0.00  0.00    +0.000 A 
ATOM     24  C   UNL     1      46.840   2.235   6.546  0.00  0.00    +0.000 A 
ATOM     25  C   UNL     1      46.637   1.280   7.526  0.00  0.00    +0.000 A 
ATOM     26  N   UNL     1      46.047   1.528   8.719  0.00  0.00    +0.000 NA
ENDBRANCH  19  21
ENDBRANCH  14  15
ENDBRANCH   5  14
TORSDOF 4
ENDMDL
MODEL 7
REMARK VINA RESULT:    -6.628      4.332      8.667
REMARK INTER + INTRA:          -8.844
REMARK INTER:                  -8.105
REMARK INTRA:                  -0.739
REMARK UNBOUND:                -0.666
REMARK  Name = 
REMARK  4 active torsions:
REMARK  status: ('A' for Active; 'I' for Inactive)
REMARK    1  A    between atoms: C_2  and  C_4
REMARK    2  A    between atoms: N_8  and  C_9
REMARK    3  A    between atoms: C_9  and  C_10
REMARK    4  A    between atoms: C_14  and  C_15
REMARK                            x       y       z     vdW  Elec       q    Type
REMARK                         _______ _______ _______ _____ _____    ______ ____
ROOT
ATOM      1  C   UNL     1      52.750   2.074  17.938  0.00  0.00    +0.000 A 
ATOM      2  C   UNL     1      52.209   3.300  18.307  0.00  0.00    +0.000 A 
ATOM      3  C   UNL     1      50.863   3.551  18.048  0.00  0.00    +0.000 A 
ATOM      4  C   UNL     1      50.082   2.584  17.424  0.00  0.00    +0.000 A 
ATOM      5  N   UNL     1      48.739   2.713  17.213  0.00  0.00    +0.000 N 
ATOM      6  N   UNL     1      50.610   1.409  17.026  0.00  0.00    +0.000 NA
ATOM      7  C   UNL     1      51.925   1.177  17.280  0.00  0.00    +0.000 A 
ATOM      8  H   UNL     1      48.353   1.965  16.653  0.00  0.00    +0.000 HD
ENDROOT
BRANCH   1  10
ATOM      9  N   UNL     1      54.497   1.547  19.538  0.00  0.00    +0.000 N 
ATOM     10  C   UNL     1      54.151   1.706  18.223  0.00  0.00    +0.000 C 
ATOM     11  O   UNL     1      54.959   1.507  17.326  0.00  0.00    +0.000 OA
ATOM     12  H   UNL     1      55.427   1.192  19.720  0.00  0.00    +0.000 HD
ATOM     13  H   UNL     1      53.808   1.446  20.269  0.00  0.00    +0.000 HD
ENDBRANCH   1  10
BRANCH   5  14
ATOM     14  C   UNL     1      47.942   3.889  17.469  0.00  0.00    +0.000 C 
BRANCH  14  15
ATOM     15  C   UNL     1      47.871   4.801  16.270  0.00  0.00    +0.000 A 
ATOM     16  C   UNL     1      48.734   5.899  16.164  0.00  0.00    +0.000 A 
ATOM     17  C   UNL     1      48.696   6.717  15.040  0.00  0.00    +0.000 A 
ATOM     18  C   UNL     1      47.819   6.427  13.993  0.00  0.00    +0.000 A 
ATOM     19  C   UNL     1      46.972   5.304  14.036  0.00  0.00    +0.000 A 
ATOM     20  C   UNL     1      46.988   4.525  15.209  0.00  0.00    +0.000 A 
BRANCH  19  21
ATOM     21  C   UNL     1      46.156   4.906  12.867  0.00  0.00    +0.000 A 
ATOM     22  C   UNL     1      46.002   5.745  11.761  0.00  0.00    +0.000 A 
ATOM     23  C   UNL     1      45.291   5.301  10.650  0.00  0.00    +0.000 A 
ATOM     24  C   UNL     1      44.743   4.027  10.666  0.00  0.00    +0.000 A 
ATOM     25  C   UNL     1      44.934   3.251  11.796  0.00  0.00    +0.000 A 
ATOM     26  N   UNL     1      45.628   3.654  12.886  0.00  0.00    +0.000 NA
ENDBRANCH  19  21
ENDBRANCH  14  15
ENDBRANCH   5  14
TORSDOF 4
ENDMDL
MODEL 8
REMARK VINA RESULT:    -6.618      3.271      4.884
REMARK INTER + INTRA:          -8.832
REMARK INTER:                  -8.092
REMARK INTRA:                  -0.740
REMARK UNBOUND:                -0.666
REMARK  Name = 
REMARK  4 active torsions:
REMARK  status: ('A' for Active; 'I' for Inactive)
REMARK    1  A    between atoms: C_2  and  C_4
REMARK    2  A    between atoms: N_8  and  C_9
REMARK    3  A    between atoms: C_9  and  C_10
REMARK    4  A    between atoms: C_14  and  C_15
REMARK                            x       y       z     vdW  Elec       q    Type
REMARK                         _______ _______ _______ _____ _____    ______ ____
ROOT
ATOM      1  C   UNL     1      44.194   4.183  11.475  0.00  0.00    +0.000 A 
ATOM      2  C   UNL     1      45.013   5.015  10.721  0.00  0.00    +0.000 A 
ATOM      3  C   UNL     1      45.375   6.258  11.238  0.00  0.00    +0.000 A 
ATOM      4  C   UNL     1      44.913   6.652  12.489  0.00  0.00    +0.000 A 
ATOM      5  N   UNL     1      45.289   7.810  13.107  0.00  0.00    +0.000 N 
ATOM      6  N   UNL     1      44.085   5.866  13.208  0.00  0.00    +0.000 NA
ATOM      7  C   UNL     1      43.736   4.659  12.691  0.00  0.00    +0.000 A 
ATOM      8  H   UNL     1      44.776   7.988  13.959  0.00  0.00    +0.000 HD
ENDROOT
BRANCH   1  10
ATOM      9  N   UNL     1      44.500   2.304   9.969  0.00  0.00    +0.000 N 
ATOM     10  C   UNL     1      43.808   2.830  11.027  0.00  0.00    +0.000 C 
ATOM     11  O   UNL     1      42.938   2.187  11.599  0.00  0.00    +0.000 OA
ATOM     12  H   UNL     1      44.303   1.338   9.737  0.00  0.00    +0.000 HD
ATOM     13  H   UNL     1      45.378   2.690   9.652  0.00  0.00    +0.000 HD
ENDBRANCH   1  10
BRANCH   5  14
ATOM     14  C   UNL     1      46.098   8.861  12.535  0.00  0.00    +0.000 C 
BRANCH  14  15
ATOM     15  C   UNL     1      47.573   8.562  12.637  0.00  0.00    +0.000 A 
ATOM     16  C   UNL     1      48.464   9.061  11.679  0.00  0.00    +0.000 A 
ATOM     17  C   UNL     1      49.828   8.818  11.795  0.00  0.00    +0.000 A 
ATOM     18  C   UNL     1      50.321   8.102  12.887  0.00  0.00    +0.000 A 
ATOM     19  C   UNL     1      49.467   7.627  13.899  0.00  0.00    +0.000 A 
ATOM     20  C   UNL     1      48.085   7.836  13.730  0.00  0.00    +0.000 A 
BRANCH  19  21
ATOM     21  C   UNL     1      49.998   7.006  15.132  0.00  0.00    +0.000 A 
ATOM     22  C   UNL     1      51.264   7.329  15.628  0.00  0.00    +0.000 A 
ATOM     23  C   UNL     1      51.695   6.781  16.833  0.00  0.00    +0.000 A 
ATOM     24  C   UNL     1      50.855   5.917  17.519  0.00  0.00    +0.000 A 
ATOM     25  C   UNL     1      49.615   5.641  16.968  0.00  0.00    +0.000 A 
ATOM     26  N   UNL     1      49.168   6.166  15.804  0.00  0.00    +0.000 NA
ENDBRANCH  19  21
ENDBRANCH  14  15
ENDBRANCH   5  14
TORSDOF 4
ENDMDL
MODEL 9
REMARK VINA RESULT:    -6.507      2.921      4.970
REMARK INTER + INTRA:          -8.694
REMARK INTER:                  -7.971
REMARK INTRA:                  -0.723
REMARK UNBOUND:                -0.666
REMARK  Name = 
REMARK  4 active torsions:
REMARK  status: ('A' for Active; 'I' for Inactive)
REMARK    1  A    between atoms: C_2  and  C_4
REMARK    2  A    between atoms: N_8  and  C_9
REMARK    3  A    between atoms: C_9  and  C_10
REMARK    4  A    between atoms: C_14  and  C_15
REMARK                            x       y       z     vdW  Elec       q    Type
REMARK                         _______ _______ _______ _____ _____    ______ ____
ROOT
ATOM      1  C   UNL     1      44.659   5.012  10.749  0.00  0.00    +0.000 A 
ATOM      2  C   UNL     1      45.827   5.690  10.427  0.00  0.00    +0.000 A 
ATOM      3  C   UNL     1      46.319   6.648  11.311  0.00  0.00    +0.000 A 
ATOM      4  C   UNL     1      45.639   6.918  12.494  0.00  0.00    +0.000 A 
ATOM      5  N   UNL     1      46.096   7.775  13.454  0.00  0.00    +0.000 N 
ATOM      6  N   UNL     1      44.482   6.293  12.793  0.00  0.00    +0.000 NA
ATOM      7  C   UNL     1      44.011   5.363  11.921  0.00  0.00    +0.000 A 
ATOM      8  H   UNL     1      45.426   7.933  14.195  0.00  0.00    +0.000 HD
ENDROOT
BRANCH   1  10
ATOM      9  N   UNL     1      44.059   4.181   8.549  0.00  0.00    +0.000 N 
ATOM     10  C   UNL     1      44.098   3.944   9.896  0.00  0.00    +0.000 C 
ATOM     11  O   UNL     1      43.725   2.877  10.364  0.00  0.00    +0.000 OA
ATOM     12  H   UNL     1      43.774   3.406   7.962  0.00  0.00    +0.000 HD
ATOM     13  H   UNL     1      44.590   4.923   8.115  0.00  0.00    +0.000 HD
ENDBRANCH   1  10
BRANCH   5  14
ATOM     14  C   UNL     1      47.259   8.626  13.358  0.00  0.00    +0.000 C 
BRANCH  14  15
ATOM     15  C   UNL     1      48.305   8.279  14.388  0.00  0.00    +0.000 A 
ATOM     16  C   UNL     1      49.188   9.258  14.857  0.00  0.00    +0.000 A 
ATOM     17  C   UNL     1      50.127   8.948  15.836  0.00  0.00    +0.000 A 
ATOM     18  C   UNL     1      50.171   7.663  16.380  0.00  0.00    +0.000 A 
ATOM     19  C   UNL     1      49.269   6.663  15.973  0.00  0.00    +0.000 A 
ATOM     20  C   UNL     1      48.366   6.985  14.941  0.00  0.00    +0.000 A 
BRANCH  19  21
ATOM     21  C   UNL     1      49.209   5.350  16.654  0.00  0.00    +0.000 A 
ATOM     22  C   UNL     1      48.001   4.669  16.825  0.00  0.00    +0.000 A 
ATOM     23  C   UNL     1      47.998   3.402  17.403  0.00  0.00    +0.000 A 
ATOM     24  C   UNL     1      49.202   2.840  17.801  0.00  0.00    +0.000 A 
ATOM     25  C   UNL     1      50.359   3.573  17.602  0.00  0.00    +0.000 A 
ATOM     26  N   UNL     1      50.392   4.802  17.036  0.00  0.00    +0.000 NA
ENDBRANCH  19  21
ENDBRANCH  14  15
ENDBRANCH   5  14
TORSDOF 4
ENDMDL
