MODEL 1
REMARK VINA RESULT:    -8.412      0.000      0.000
REMARK INTER + INTRA:         -12.319
REMARK INTER:                 -11.362
REMARK INTRA:                  -0.956
REMARK UNBOUND:                -0.956
REMARK  Name = 
REMARK  7 active torsions:
REMARK  status: ('A' for Active; 'I' for Inactive)
REMARK    1  A    between atoms: C_1  and  C_2
REMARK    2  A    between atoms: C_2  and  N_3
REMARK    3  A    between atoms: C_2  and  C_11
REMARK    4  A    between atoms: C_4  and  C_6
REMARK    5  A    between atoms: C_14  and  C_15
REMARK    6  A    between atoms: C_15  and  N_16
REMARK    7  A    between atoms: C_17  and  C_19
REMARK                            x       y       z     vdW  Elec       q    Type
REMARK                         _______ _______ _______ _____ _____    ______ ____
ROOT
ATOM      1  C   UNL     1      45.183   4.745  11.728  0.00  0.00    +0.000 A 
ATOM      2  C   UNL     1      45.874   4.359  12.889  0.00  0.00    +0.000 A 
ATOM      3  C   UNL     1      46.765   5.233  13.523  0.00  0.00    +0.000 A 
ATOM      4  C   UNL     1      46.970   6.526  13.027  0.00  0.00    +0.000 A 
ATOM      5  C   UNL     1      46.267   6.923  11.885  0.00  0.00    +0.000 A 
ATOM      6  C   UNL     1      45.372   6.051  11.253  0.00  0.00    +0.000 A 
ENDROOT
BRANCH   1   8
ATOM      7  C   UNL     1      43.428   2.910  12.028  0.00  0.00    +0.000 C 
ATOM      8  C   UNL     1      44.260   3.745  11.048  0.00  0.00    +0.000 C 
BRANCH   8   9
ATOM      9  N   UNL     1      45.019   2.902  10.143  0.00  0.00    +0.000 N 
ATOM     10  C   UNL     1      45.218   3.246   8.822  0.00  0.00    +0.000 C 
ATOM     11  O   UNL     1      44.732   4.253   8.322  0.00  0.00    +0.000 OA
ATOM     12  H   UNL     1      45.370   2.023  10.489  0.00  0.00    +0.000 HD
BRANCH  10  13
ATOM     13  C   UNL     1      46.046   2.344   8.065  0.00  0.00    +0.000 A 
ATOM     14  C   UNL     1      46.926   2.505   7.012  0.00  0.00    +0.000 A 
ATOM     15  C   UNL     1      47.403   1.211   6.724  0.00  0.00    +0.000 A 
ATOM     16  N   UNL     1      46.872   0.288   7.526  0.00  0.00    +0.000 NA
ATOM     17  N   UNL     1      46.048   0.995   8.321  0.00  0.00    +0.000 N 
ATOM     18  H   UNL     1      45.505   0.508   9.027  0.00  0.00    +0.000 HD
ENDBRANCH  10  13
ENDBRANCH   8   9
ENDBRANCH   1   8
BRANCH   4  19
ATOM     19  C   UNL     1      47.973   7.454  13.665  0.00  0.00    +0.000 C 
BRANCH  19  20
ATOM     20  N   UNL     1      47.920   7.356  15.102  0.00  0.00    +0.000 N 
ATOM     21  C   UNL     1      49.004   6.954  15.838  0.00  0.00    +0.000 C 
ATOM     22  O   UNL     1      50.082   6.679  15.316  0.00  0.00    +0.000 OA
ATOM     23  H   UNL     1      46.998   7.341  15.527  0.00  0.00    +0.000 HD
BRANCH  21  24
ATOM     24  C   UNL     1      48.831   6.935  17.297  0.00  0.00    +0.000 A 
ATOM     25  C   UNL     1      48.616   8.122  17.983  0.00  0.00    +0.000 A 
ATOM     26  S   UNL     1      48.361   7.910  19.656  0.00  0.00    +0.000 S 
ATOM     27  C   UNL     1      48.585   6.228  19.532  0.00  0.00    +0.000 A 
ATOM     28  N   UNL     1      48.516   5.430  20.632  0.00  0.00    +0.000 NA
ATOM     29  C   UNL     1      48.733   4.179  20.398  0.00  0.00    +0.000 A 
ATOM     30  N   UNL     1      49.010   3.653  19.163  0.00  0.00    +0.000 N 
ATOM     31  C   UNL     1      49.066   4.416  18.022  0.00  0.00    +0.000 A 
ATOM     32  O   UNL     1      49.282   3.908  16.926  0.00  0.00    +0.000 OA
ATOM     33  C   UNL     1      48.835   5.832  18.230  0.00  0.00    +0.000 A 
ATOM     34  H   UNL     1      49.165   2.663  19.044  0.00  0.00    +0.000 HD
ENDBRANCH  21  24
ENDBRANCH  19  20
ENDBRANCH   4  19
TORSDOF 6
ENDMDL
MODEL 2
REMARK VINA RESULT:    -8.317      1.339      1.997
REMARK INTER + INTRA:         -12.191
REMARK INTER:                 -11.077
REMARK INTRA:                  -1.115
REMARK UNBOUND:                -0.956
REMARK  Name = 
REMARK  7 active torsions:
REMARK  status: ('A' for Active; 'I' for Inactive)
REMARK    1  A    between atoms: C_1  and  C_2
REMARK    2  A    between atoms: C_2  and  N_3
REMARK    3  A    between atoms: C_2  and  C_11
REMARK    4  A    between atoms: C_4  and  C_6
REMARK    5  A    between atoms: C_14  and  C_15
REMARK    6  A    between atoms: C_15  and  N_16
REMARK    7  A    between atoms: C_17  and  C_19
REMARK                            x       y       z     vdW  Elec       q    Type
REMARK                         _______ _______ _______ _____ _____    ______ ____
ROOT
ATOM      1  C   UNL     1      45.246   4.693  11.593  0.00  0.00    +0.000 A 
ATOM      2  C   UNL     1      45.703   4.252  12.846  0.00  0.00    +0.000 A 
ATOM      3  C   UNL     1      46.573   5.034  13.615  0.00  0.00    +0.000 A 
ATOM      4  C   UNL     1      46.991   6.291  13.161  0.00  0.00    +0.000 A 
ATOM      5  C   UNL     1      46.521   6.745  11.924  0.00  0.00    +0.000 A 
ATOM      6  C   UNL     1      45.647   5.965  11.157  0.00  0.00    +0.000 A 
ENDROOT
BRANCH   1   8
ATOM      7  C   UNL     1      43.411   2.913  11.625  0.00  0.00    +0.000 C 
ATOM      8  C   UNL     1      44.338   3.789  10.774  0.00  0.00    +0.000 C 
BRANCH   8   9
ATOM      9  N   UNL     1      45.129   2.989   9.856  0.00  0.00    +0.000 N 
ATOM     10  C   UNL     1      45.341   3.377   8.549  0.00  0.00    +0.000 C 
ATOM     11  O   UNL     1      44.842   4.388   8.072  0.00  0.00    +0.000 OA
ATOM     12  H   UNL     1      45.492   2.107  10.182  0.00  0.00    +0.000 HD
BRANCH  10  13
ATOM     13  C   UNL     1      46.199   2.515   7.780  0.00  0.00    +0.000 A 
ATOM     14  C   UNL     1      47.018   2.708   6.684  0.00  0.00    +0.000 A 
ATOM     15  C   UNL     1      47.575   1.444   6.408  0.00  0.00    +0.000 A 
ATOM     16  N   UNL     1      47.148   0.509   7.256  0.00  0.00    +0.000 NA
ATOM     17  N   UNL     1      46.311   1.177   8.070  0.00  0.00    +0.000 N 
ATOM     18  H   UNL     1      45.836   0.674   8.812  0.00  0.00    +0.000 HD
ENDBRANCH  10  13
ENDBRANCH   8   9
ENDBRANCH   1   8
BRANCH   4  19
ATOM     19  C   UNL     1      47.976   7.115  13.951  0.00  0.00    +0.000 C 
BRANCH  19  20
ATOM     20  N   UNL     1      47.937   6.761  15.348  0.00  0.00    +0.000 N 
ATOM     21  C   UNL     1      49.075   6.445  16.044  0.00  0.00    +0.000 C 
ATOM     22  O   UNL     1      50.187   6.470  15.522  0.00  0.00    +0.000 OA
ATOM     23  H   UNL     1      47.033   6.503  15.730  0.00  0.00    +0.000 HD
BRANCH  21  24
ATOM     24  C   UNL     1      48.903   6.141  17.470  0.00  0.00    +0.000 A 
ATOM     25  C   UNL     1      49.239   4.883  17.954  0.00  0.00    +0.000 A 
ATOM     26  S   UNL     1      49.047   4.725  19.641  0.00  0.00    +0.000 S 
ATOM     27  C   UNL     1      48.455   6.314  19.778  0.00  0.00    +0.000 A 
ATOM     28  N   UNL     1      48.076   6.818  20.984  0.00  0.00    +0.000 NA
ATOM     29  C   UNL     1      47.620   8.025  20.938  0.00  0.00    +0.000 A 
ATOM     30  N   UNL     1      47.511   8.775  19.796  0.00  0.00    +0.000 N 
ATOM     31  C   UNL     1      47.904   8.317  18.562  0.00  0.00    +0.000 A 
ATOM     32  O   UNL     1      47.825   9.027  17.565  0.00  0.00    +0.000 OA
ATOM     33  C   UNL     1      48.419   6.961  18.557  0.00  0.00    +0.000 A 
ATOM     34  H   UNL     1      47.151   9.717  19.828  0.00  0.00    +0.000 HD
ENDBRANCH  21  24
ENDBRANCH  19  20
ENDBRANCH   4  19
TORSDOF 6
ENDMDL
MODEL 3
REMARK VINA RESULT:    -7.416      2.741      3.380
REMARK INTER + INTRA:         -10.973
REMARK INTER:                 -10.155
REMARK INTRA:                  -0.817
REMARK UNBOUND:                -0.956
REMARK  Name = 
REMARK  7 active torsions:
REMARK  status: ('A' for Active; 'I' for Inactive)
REMARK    1  A    between atoms: C_1  and  C_2
REMARK    2  A    between atoms: C_2  and  N_3
REMARK    3  A    between atoms: C_2  and  C_11
REMARK    4  A    between atoms: C_4  and  C_6
REMARK    5  A    between atoms: C_14  and  C_15
REMARK    6  A    between atoms: C_15  and  N_16
REMARK    7  A    between atoms: C_17  and  C_19
REMARK                            x       y       z     vdW  Elec       q    Type
REMARK                         _______ _______ _______ _____ _____    ______ ____
ROOT
ATOM      1  C   UNL     1      44.402   4.594  11.512  0.00  0.00    +0.000 A 
ATOM      2  C   UNL     1      45.355   4.513  12.540  0.00  0.00    +0.000 A 
ATOM      3  C   UNL     1      45.917   5.668  13.098  0.00  0.00    +0.000 A 
ATOM      4  C   UNL     1      45.521   6.936  12.658  0.00  0.00    +0.000 A 
ATOM      5  C   UNL     1      44.555   7.023  11.650  0.00  0.00    +0.000 A 
ATOM      6  C   UNL     1      43.990   5.869  11.095  0.00  0.00    +0.000 A 
ENDROOT
BRANCH   1   8
ATOM      7  C   UNL     1      43.349   2.305  11.946  0.00  0.00    +0.000 C 
ATOM      8  C   UNL     1      43.854   3.311  10.905  0.00  0.00    +0.000 C 
BRANCH   8   9
ATOM      9  N   UNL     1      44.842   2.714  10.026  0.00  0.00    +0.000 N 
ATOM     10  C   UNL     1      45.015   3.144   8.726  0.00  0.00    +0.000 C 
ATOM     11  O   UNL     1      44.319   4.017   8.223  0.00  0.00    +0.000 OA
ATOM     12  H   UNL     1      45.383   1.937  10.371  0.00  0.00    +0.000 HD
BRANCH  10  13
ATOM     13  C   UNL     1      46.077   2.501   7.998  0.00  0.00    +0.000 A 
ATOM     14  C   UNL     1      47.035   2.947   7.108  0.00  0.00    +0.000 A 
ATOM     15  C   UNL     1      47.767   1.800   6.744  0.00  0.00    +0.000 A 
ATOM     16  N   UNL     1      47.316   0.701   7.348  0.00  0.00    +0.000 NA
ATOM     17  N   UNL     1      46.288   1.148   8.092  0.00  0.00    +0.000 N 
ATOM     18  H   UNL     1      45.759   0.486   8.651  0.00  0.00    +0.000 HD
ENDBRANCH  10  13
ENDBRANCH   8   9
ENDBRANCH   1   8
BRANCH   4  19
ATOM     19  C   UNL     1      46.163   8.185  13.207  0.00  0.00    +0.000 C 
BRANCH  19  20
ATOM     20  N   UNL     1      47.275   7.856  14.065  0.00  0.00    +0.000 N 
ATOM     21  C   UNL     1      48.318   8.724  14.259  0.00  0.00    +0.000 C 
ATOM     22  O   UNL     1      48.350   9.834  13.733  0.00  0.00    +0.000 OA
ATOM     23  H   UNL     1      47.389   6.878  14.310  0.00  0.00    +0.000 HD
BRANCH  21  24
ATOM     24  C   UNL     1      49.367   8.283  15.187  0.00  0.00    +0.000 A 
ATOM     25  C   UNL     1      49.049   8.013  16.512  0.00  0.00    +0.000 A 
ATOM     26  S   UNL     1      50.369   7.442  17.429  0.00  0.00    +0.000 S 
ATOM     27  C   UNL     1      51.425   7.589  16.104  0.00  0.00    +0.000 A 
ATOM     28  N   UNL     1      52.744   7.273  16.221  0.00  0.00    +0.000 NA
ATOM     29  C   UNL     1      53.434   7.458  15.146  0.00  0.00    +0.000 A 
ATOM     30  N   UNL     1      52.925   7.929  13.963  0.00  0.00    +0.000 N 
ATOM     31  C   UNL     1      51.597   8.237  13.791  0.00  0.00    +0.000 A 
ATOM     32  O   UNL     1      51.168   8.622  12.708  0.00  0.00    +0.000 OA
ATOM     33  C   UNL     1      50.777   8.052  14.973  0.00  0.00    +0.000 A 
ATOM     34  H   UNL     1      53.518   8.046  13.154  0.00  0.00    +0.000 HD
ENDBRANCH  21  24
ENDBRANCH  19  20
ENDBRANCH   4  19
TORSDOF 6
ENDMDL
MODEL 4
REMARK VINA RESULT:    -7.151      3.534      8.730
REMARK INTER + INTRA:         -10.615
REMARK INTER:                  -9.632
REMARK INTRA:                  -0.983
REMARK UNBOUND:                -0.956
REMARK  Name = 
REMARK  7 active torsions:
REMARK  status: ('A' for Active; 'I' for Inactive)
REMARK    1  A    between atoms: C_1  and  C_2
REMARK    2  A    between atoms: C_2  and  N_3
REMARK    3  A    between atoms: C_2  and  C_11
REMARK    4  A    between atoms: C_4  and  C_6
REMARK    5  A    between atoms: C_14  and  C_15
REMARK    6  A    between atoms: C_15  and  N_16
REMARK    7  A    between atoms: C_17  and  C_19
REMARK                            x       y       z     vdW  Elec       q    Type
REMARK                         _______ _______ _______ _____ _____    ______ ____
ROOT
ATOM      1  C   UNL     1      49.979   6.992  15.920  0.00  0.00    +0.000 A 
ATOM      2  C   UNL     1      48.739   6.477  15.509  0.00  0.00    +0.000 A 
ATOM      3  C   UNL     1      48.223   6.761  14.238  0.00  0.00    +0.000 A 
ATOM      4  C   UNL     1      48.947   7.548  13.335  0.00  0.00    +0.000 A 
ATOM      5  C   UNL     1      50.194   8.045  13.732  0.00  0.00    +0.000 A 
ATOM      6  C   UNL     1      50.711   7.758  15.000  0.00  0.00    +0.000 A 
ENDROOT
BRANCH   1   8
ATOM      7  C   UNL     1      51.425   7.763  17.882  0.00  0.00    +0.000 C 
ATOM      8  C   UNL     1      50.477   6.695  17.327  0.00  0.00    +0.000 C 
BRANCH   8   9
ATOM      9  N   UNL     1      51.079   5.375  17.373  0.00  0.00    +0.000 N 
ATOM     10  C   UNL     1      50.439   4.303  17.960  0.00  0.00    +0.000 C 
ATOM     11  O   UNL     1      49.352   4.407  18.516  0.00  0.00    +0.000 OA
ATOM     12  H   UNL     1      52.008   5.260  17.000  0.00  0.00    +0.000 HD
BRANCH  10  13
ATOM     13  C   UNL     1      51.131   3.045  17.871  0.00  0.00    +0.000 A 
ATOM     14  C   UNL     1      50.873   1.852  17.222  0.00  0.00    +0.000 A 
ATOM     15  C   UNL     1      51.948   1.006  17.559  0.00  0.00    +0.000 A 
ATOM     16  N   UNL     1      52.828   1.602  18.363  0.00  0.00    +0.000 NA
ATOM     17  N   UNL     1      52.308   2.829  18.546  0.00  0.00    +0.000 N 
ATOM     18  H   UNL     1      52.797   3.489  19.143  0.00  0.00    +0.000 HD
ENDBRANCH  10  13
ENDBRANCH   8   9
ENDBRANCH   1   8
BRANCH   4  19
ATOM     19  C   UNL     1      48.376   7.912  11.988  0.00  0.00    +0.000 C 
BRANCH  19  20
ATOM     20  N   UNL     1      47.607   6.819  11.446  0.00  0.00    +0.000 N 
ATOM     21  C   UNL     1      46.238   6.859  11.388  0.00  0.00    +0.000 C 
ATOM     22  O   UNL     1      45.597   7.834  11.774  0.00  0.00    +0.000 OA
ATOM     23  H   UNL     1      48.083   5.928  11.349  0.00  0.00    +0.000 HD
BRANCH  21  24
ATOM     24  C   UNL     1      45.578   5.699  10.777  0.00  0.00    +0.000 A 
ATOM     25  C   UNL     1      45.666   5.497   9.406  0.00  0.00    +0.000 A 
ATOM     26  S   UNL     1      44.906   4.065   8.875  0.00  0.00    +0.000 S 
ATOM     27  C   UNL     1      44.384   3.693  10.451  0.00  0.00    +0.000 A 
ATOM     28  N   UNL     1      43.645   2.577  10.698  0.00  0.00    +0.000 NA
ATOM     29  C   UNL     1      43.293   2.433  11.932  0.00  0.00    +0.000 A 
ATOM     30  N   UNL     1      43.616   3.301  12.942  0.00  0.00    +0.000 N 
ATOM     31  C   UNL     1      44.380   4.426  12.744  0.00  0.00    +0.000 A 
ATOM     32  O   UNL     1      44.680   5.164  13.677  0.00  0.00    +0.000 OA
ATOM     33  C   UNL     1      44.797   4.639  11.372  0.00  0.00    +0.000 A 
ATOM     34  H   UNL     1      43.315   3.128  13.890  0.00  0.00    +0.000 HD
ENDBRANCH  21  24
ENDBRANCH  19  20
ENDBRANCH   4  19
TORSDOF 6
ENDMDL
MODEL 5
REMARK VINA RESULT:    -7.079      4.901      8.307
REMARK INTER + INTRA:         -10.518
REMARK INTER:                  -9.475
REMARK INTRA:                  -1.043
REMARK UNBOUND:                -0.956
REMARK  Name = 
REMARK  7 active torsions:
REMARK  status: ('A' for Active; 'I' for Inactive)
REMARK    1  A    between atoms: C_1  and  C_2
REMARK    2  A    between atoms: C_2  and  N_3
REMARK    3  A    between atoms: C_2  and  C_11
REMARK    4  A    between atoms: C_4  and  C_6
REMARK    5  A    between atoms: C_14  and  C_15
REMARK    6  A    between atoms: C_15  and  N_16
REMARK    7  A    between atoms: C_17  and  C_19
REMARK                            x       y       z     vdW  Elec       q    Type
REMARK                         _______ _______ _______ _____ _____    ______ ____
ROOT
ATOM      1  C   UNL     1      50.556   8.819  11.322  0.00  0.00    +0.000 A 
ATOM      2  C   UNL     1      50.041   7.523  11.489  0.00  0.00    +0.000 A 
ATOM      3  C   UNL     1      48.736   7.317  11.953  0.00  0.00    +0.000 A 
ATOM      4  C   UNL     1      47.903   8.404  12.241  0.00  0.00    +0.000 A 
ATOM      5  C   UNL     1      48.403   9.698  12.055  0.00  0.00    +0.000 A 
ATOM      6  C   UNL     1      49.706   9.904  11.586  0.00  0.00    +0.000 A 
ENDROOT
BRANCH   1   8
ATOM      7  C   UNL     1      52.355  10.439  10.500  0.00  0.00    +0.000 C 
ATOM      8  C   UNL     1      51.994   8.993  10.858  0.00  0.00    +0.000 C 
BRANCH   8   9
ATOM      9  N   UNL     1      52.276   8.087   9.759  0.00  0.00    +0.000 N 
ATOM     10  C   UNL     1      53.260   7.124   9.843  0.00  0.00    +0.000 C 
ATOM     11  O   UNL     1      53.982   7.003  10.824  0.00  0.00    +0.000 OA
ATOM     12  H   UNL     1      51.760   8.203   8.900  0.00  0.00    +0.000 HD
BRANCH  10  13
ATOM     13  C   UNL     1      53.378   6.259   8.698  0.00  0.00    +0.000 A 
ATOM     14  C   UNL     1      54.185   5.180   8.392  0.00  0.00    +0.000 A 
ATOM     15  C   UNL     1      53.804   4.788   7.093  0.00  0.00    +0.000 A 
ATOM     16  N   UNL     1      52.831   5.554   6.600  0.00  0.00    +0.000 NA
ATOM     17  N   UNL     1      52.597   6.442   7.584  0.00  0.00    +0.000 N 
ATOM     18  H   UNL     1      51.890   7.157   7.446  0.00  0.00    +0.000 HD
ENDBRANCH  10  13
ENDBRANCH   8   9
ENDBRANCH   1   8
BRANCH   4  19
ATOM     19  C   UNL     1      46.518   8.197  12.800  0.00  0.00    +0.000 C 
BRANCH  19  20
ATOM     20  N   UNL     1      46.041   6.868  12.507  0.00  0.00    +0.000 N 
ATOM     21  C   UNL     1      44.934   6.655  11.727  0.00  0.00    +0.000 C 
ATOM     22  O   UNL     1      44.306   7.580  11.219  0.00  0.00    +0.000 OA
ATOM     23  H   UNL     1      46.386   6.117  13.097  0.00  0.00    +0.000 HD
BRANCH  21  24
ATOM     24  C   UNL     1      44.577   5.253  11.473  0.00  0.00    +0.000 A 
ATOM     25  C   UNL     1      43.843   4.546  12.417  0.00  0.00    +0.000 A 
ATOM     26  S   UNL     1      43.452   2.958  11.930  0.00  0.00    +0.000 S 
ATOM     27  C   UNL     1      44.297   3.141  10.464  0.00  0.00    +0.000 A 
ATOM     28  N   UNL     1      44.374   2.119   9.569  0.00  0.00    +0.000 NA
ATOM     29  C   UNL     1      45.069   2.386   8.514  0.00  0.00    +0.000 A 
ATOM     30  N   UNL     1      45.692   3.582   8.272  0.00  0.00    +0.000 N 
ATOM     31  C   UNL     1      45.622   4.649   9.135  0.00  0.00    +0.000 A 
ATOM     32  O   UNL     1      46.162   5.718   8.871  0.00  0.00    +0.000 OA
ATOM     33  C   UNL     1      44.856   4.400  10.341  0.00  0.00    +0.000 A 
ATOM     34  H   UNL     1      46.217   3.731   7.423  0.00  0.00    +0.000 HD
ENDBRANCH  21  24
ENDBRANCH  19  20
ENDBRANCH   4  19
TORSDOF 6
ENDMDL
MODEL 6
REMARK VINA RESULT:    -7.070      3.083      9.135
REMARK INTER + INTRA:         -10.506
REMARK INTER:                  -9.478
REMARK INTRA:                  -1.027
REMARK UNBOUND:                -0.956
REMARK  Name = 
REMARK  7 active torsions:
REMARK  status: ('A' for Active; 'I' for Inactive)
REMARK    1  A    between atoms: C_1  and  C_2
REMARK    2  A    between atoms: C_2  and  N_3
REMARK    3  A    between atoms: C_2  and  C_11
REMARK    4  A    between atoms: C_4  and  C_6
REMARK    5  A    between atoms: C_14  and  C_15
REMARK    6  A    between atoms: C_15  and  N_16
REMARK    7  A    between atoms: C_17  and  C_19
REMARK                            x       y       z     vdW  Elec       q    Type
REMARK                         _______ _______ _______ _____ _____    ______ ____
ROOT
ATOM      1  C   UNL     1      50.115   7.047  15.762  0.00  0.00    +0.000 A 
ATOM      2  C   UNL     1      50.517   7.893  14.716  0.00  0.00    +0.000 A 
ATOM      3  C   UNL     1      49.711   8.080  13.586  0.00  0.00    +0.000 A 
ATOM      4  C   UNL     1      48.469   7.443  13.484  0.00  0.00    +0.000 A 
ATOM      5  C   UNL     1      48.053   6.617  14.534  0.00  0.00    +0.000 A 
ATOM      6  C   UNL     1      48.856   6.434  15.666  0.00  0.00    +0.000 A 
ENDROOT
BRANCH   1   8
ATOM      7  C   UNL     1      52.234   7.806  16.974  0.00  0.00    +0.000 C 
ATOM      8  C   UNL     1      51.045   6.839  16.948  0.00  0.00    +0.000 C 
BRANCH   8   9
ATOM      9  N   UNL     1      51.484   5.456  17.000  0.00  0.00    +0.000 N 
ATOM     10  C   UNL     1      51.034   4.586  17.971  0.00  0.00    +0.000 C 
ATOM     11  O   UNL     1      50.278   4.933  18.869  0.00  0.00    +0.000 OA
ATOM     12  H   UNL     1      52.169   5.147  16.329  0.00  0.00    +0.000 HD
BRANCH  10  13
ATOM     13  C   UNL     1      51.507   3.231  17.855  0.00  0.00    +0.000 A 
ATOM     14  C   UNL     1      52.735   2.625  18.041  0.00  0.00    +0.000 A 
ATOM     15  C   UNL     1      52.526   1.264  17.747  0.00  0.00    +0.000 A 
ATOM     16  N   UNL     1      51.265   1.011  17.396  0.00  0.00    +0.000 NA
ATOM     17  N   UNL     1      50.671   2.216  17.460  0.00  0.00    +0.000 N 
ATOM     18  H   UNL     1      49.687   2.295  17.222  0.00  0.00    +0.000 HD
ENDBRANCH  10  13
ENDBRANCH   8   9
ENDBRANCH   1   8
BRANCH   4  19
ATOM     19  C   UNL     1      47.620   7.588  12.246  0.00  0.00    +0.000 C 
BRANCH  19  20
ATOM     20  N   UNL     1      46.910   6.364  11.967  0.00  0.00    +0.000 N 
ATOM     21  C   UNL     1      45.547   6.337  11.825  0.00  0.00    +0.000 C 
ATOM     22  O   UNL     1      44.862   7.354  11.906  0.00  0.00    +0.000 OA
ATOM     23  H   UNL     1      47.410   5.496  12.133  0.00  0.00    +0.000 HD
BRANCH  21  24
ATOM     24  C   UNL     1      44.951   5.034  11.503  0.00  0.00    +0.000 A 
ATOM     25  C   UNL     1      44.230   4.346  12.469  0.00  0.00    +0.000 A 
ATOM     26  S   UNL     1      43.546   2.889  11.905  0.00  0.00    +0.000 S 
ATOM     27  C   UNL     1      44.237   3.098  10.365  0.00  0.00    +0.000 A 
ATOM     28  N   UNL     1      44.052   2.172   9.384  0.00  0.00    +0.000 NA
ATOM     29  C   UNL     1      44.655   2.442   8.275  0.00  0.00    +0.000 A 
ATOM     30  N   UNL     1      45.424   3.556   8.056  0.00  0.00    +0.000 N 
ATOM     31  C   UNL     1      45.617   4.529   9.008  0.00  0.00    +0.000 A 
ATOM     32  O   UNL     1      46.282   5.531   8.767  0.00  0.00    +0.000 OA
ATOM     33  C   UNL     1      44.965   4.270  10.277  0.00  0.00    +0.000 A 
ATOM     34  H   UNL     1      45.865   3.714   7.162  0.00  0.00    +0.000 HD
ENDBRANCH  21  24
ENDBRANCH  19  20
ENDBRANCH   4  19
TORSDOF 6
ENDMDL
MODEL 7
REMARK VINA RESULT:    -6.591      3.428      8.436
REMARK INTER + INTRA:          -9.859
REMARK INTER:                  -8.924
REMARK INTRA:                  -0.936
REMARK UNBOUND:                -0.956
REMARK  Name = 
REMARK  7 active torsions:
REMARK  status: ('A' for Active; 'I' for Inactive)
REMARK    1  A    between atoms: C_1  and  C_2
REMARK    2  A    between atoms: C_2  and  N_3
REMARK    3  A    between atoms: C_2  and  C_11
REMARK    4  A    between atoms: C_4  and  C_6
REMARK    5  A    between atoms: C_14  and  C_15
REMARK    6  A    between atoms: C_15  and  N_16
REMARK    7  A    between atoms: C_17  and  C_19
REMARK                            x       y       z     vdW  Elec       q    Type
REMARK                         _______ _______ _______ _____ _____    ______ ____
ROOT
ATOM      1  C   UNL     1      50.044   5.429  18.168  0.00  0.00    +0.000 A 
ATOM      2  C   UNL     1      51.028   5.875  17.271  0.00  0.00    +0.000 A 
ATOM      3  C   UNL     1      50.713   6.759  16.232  0.00  0.00    +0.000 A 
ATOM      4  C   UNL     1      49.409   7.242  16.079  0.00  0.00    +0.000 A 
ATOM      5  C   UNL     1      48.429   6.819  16.984  0.00  0.00    +0.000 A 
ATOM      6  C   UNL     1      48.745   5.939  18.025  0.00  0.00    +0.000 A 
ENDROOT
BRANCH   1   8
ATOM      7  C   UNL     1      50.661   5.075  20.624  0.00  0.00    +0.000 C 
ATOM      8  C   UNL     1      50.424   4.432  19.252  0.00  0.00    +0.000 C 
BRANCH   8   9
ATOM      9  N   UNL     1      51.570   3.649  18.828  0.00  0.00    +0.000 N 
ATOM     10  C   UNL     1      51.436   2.546  18.010  0.00  0.00    +0.000 C 
ATOM     11  O   UNL     1      50.347   2.136  17.631  0.00  0.00    +0.000 OA
ATOM     12  H   UNL     1      52.480   3.902  19.183  0.00  0.00    +0.000 HD
BRANCH  10  13
ATOM     13  C   UNL     1      52.667   1.910  17.622  0.00  0.00    +0.000 A 
ATOM     14  C   UNL     1      53.984   2.326  17.561  0.00  0.00    +0.000 A 
ATOM     15  C   UNL     1      54.703   1.215  17.078  0.00  0.00    +0.000 A 
ATOM     16  N   UNL     1      53.914   0.167  16.844  0.00  0.00    +0.000 NA
ATOM     17  N   UNL     1      52.688   0.613  17.170  0.00  0.00    +0.000 N 
ATOM     18  H   UNL     1      51.892  -0.008  17.067  0.00  0.00    +0.000 HD
ENDBRANCH  10  13
ENDBRANCH   8   9
ENDBRANCH   1   8
BRANCH   4  19
ATOM     19  C   UNL     1      49.043   8.146  14.929  0.00  0.00    +0.000 C 
BRANCH  19  20
ATOM     20  N   UNL     1      47.827   7.702  14.294  0.00  0.00    +0.000 N 
ATOM     21  C   UNL     1      47.837   6.777  13.283  0.00  0.00    +0.000 C 
ATOM     22  O   UNL     1      48.878   6.261  12.881  0.00  0.00    +0.000 OA
ATOM     23  H   UNL     1      47.002   8.276  14.435  0.00  0.00    +0.000 HD
BRANCH  21  24
ATOM     24  C   UNL     1      46.528   6.381  12.749  0.00  0.00    +0.000 A 
ATOM     25  C   UNL     1      45.679   7.344  12.219  0.00  0.00    +0.000 A 
ATOM     26  S   UNL     1      44.234   6.704  11.576  0.00  0.00    +0.000 S 
ATOM     27  C   UNL     1      44.667   5.123  12.034  0.00  0.00    +0.000 A 
ATOM     28  N   UNL     1      43.838   4.072  11.789  0.00  0.00    +0.000 NA
ATOM     29  C   UNL     1      44.279   2.935  12.214  0.00  0.00    +0.000 A 
ATOM     30  N   UNL     1      45.474   2.753  12.859  0.00  0.00    +0.000 N 
ATOM     31  C   UNL     1      46.353   3.781  13.106  0.00  0.00    +0.000 A 
ATOM     32  O   UNL     1      47.431   3.577  13.656  0.00  0.00    +0.000 OA
ATOM     33  C   UNL     1      45.903   5.082  12.654  0.00  0.00    +0.000 A 
ATOM     34  H   UNL     1      45.765   1.836  13.162  0.00  0.00    +0.000 HD
ENDBRANCH  21  24
ENDBRANCH  19  20
ENDBRANCH   4  19
TORSDOF 6
ENDMDL
MODEL 8
REMARK VINA RESULT:    -5.968      3.692      9.120
REMARK INTER + INTRA:          -9.018
REMARK INTER:                  -8.554
REMARK INTRA:                  -0.464
REMARK UNBOUND:                -0.956
REMARK  Name = 
REMARK  7 active torsions:
REMARK  status: ('A' for Active; 'I' for Inactive)
REMARK    1  A    between atoms: C_1  and  C_2
REMARK    2  A    between atoms: C_2  and  N_3
REMARK    3  A    between atoms: C_2  and  C_11
REMARK    4  A    between atoms: C_4  and  C_6
REMARK    5  A    between atoms: C_14  and  C_15
REMARK    6  A    between atoms: C_15  and  N_16
REMARK    7  A    between atoms: C_17  and  C_19
REMARK                            x       y       z     vdW  Elec       q    Type
REMARK                         _______ _______ _______ _____ _____    ______ ____
ROOT
ATOM      1  C   UNL     1      50.324   5.779  18.516  0.00  0.00    +0.000 A 
ATOM      2  C   UNL     1      50.709   7.088  18.182  0.00  0.00    +0.000 A 
ATOM      3  C   UNL     1      50.130   7.756  17.096  0.00  0.00    +0.000 A 
ATOM      4  C   UNL     1      49.132   7.141  16.330  0.00  0.00    +0.000 A 
ATOM      5  C   UNL     1      48.730   5.846  16.673  0.00  0.00    +0.000 A 
ATOM      6  C   UNL     1      49.305   5.179  17.761  0.00  0.00    +0.000 A 
ENDROOT
BRANCH   1   8
ATOM      7  C   UNL     1      52.076   5.935  20.372  0.00  0.00    +0.000 C 
ATOM      8  C   UNL     1      51.014   5.076  19.676  0.00  0.00    +0.000 C 
BRANCH   8   9
ATOM      9  N   UNL     1      51.564   3.808  19.233  0.00  0.00    +0.000 N 
ATOM     10  C   UNL     1      52.672   3.741  18.413  0.00  0.00    +0.000 C 
ATOM     11  O   UNL     1      53.229   4.739  17.975  0.00  0.00    +0.000 OA
ATOM     12  H   UNL     1      51.090   2.961  19.503  0.00  0.00    +0.000 HD
BRANCH  10  13
ATOM     13  C   UNL     1      53.139   2.414  18.112  0.00  0.00    +0.000 A 
ATOM     14  C   UNL     1      54.228   1.914  17.423  0.00  0.00    +0.000 A 
ATOM     15  C   UNL     1      54.094   0.513  17.481  0.00  0.00    +0.000 A 
ATOM     16  N   UNL     1      53.005   0.138  18.152  0.00  0.00    +0.000 NA
ATOM     17  N   UNL     1      52.439   1.303  18.515  0.00  0.00    +0.000 N 
ATOM     18  H   UNL     1      51.571   1.288  19.039  0.00  0.00    +0.000 HD
ENDBRANCH  10  13
ENDBRANCH   8   9
ENDBRANCH   1   8
BRANCH   4  19
ATOM     19  C   UNL     1      48.545   7.826  15.122  0.00  0.00    +0.000 C 
BRANCH  19  20
ATOM     20  N   UNL     1      47.492   7.031  14.543  0.00  0.00    +0.000 N 
ATOM     21  C   UNL     1      47.709   6.228  13.454  0.00  0.00    +0.000 C 
ATOM     22  O   UNL     1      48.815   6.126  12.929  0.00  0.00    +0.000 OA
ATOM     23  H   UNL     1      46.540   7.275  14.799  0.00  0.00    +0.000 HD
BRANCH  21  24
ATOM     24  C   UNL     1      46.562   5.439  12.987  0.00  0.00    +0.000 A 
ATOM     25  C   UNL     1      46.576   4.056  13.113  0.00  0.00    +0.000 A 
ATOM     26  S   UNL     1      45.137   3.306  12.590  0.00  0.00    +0.000 S 
ATOM     27  C   UNL     1      44.464   4.797  12.123  0.00  0.00    +0.000 A 
ATOM     28  N   UNL     1      43.224   4.862  11.566  0.00  0.00    +0.000 NA
ATOM     29  C   UNL     1      42.850   6.053  11.234  0.00  0.00    +0.000 A 
ATOM     30  N   UNL     1      43.603   7.185  11.411  0.00  0.00    +0.000 N 
ATOM     31  C   UNL     1      44.848   7.170  11.991  0.00  0.00    +0.000 A 
ATOM     32  O   UNL     1      45.481   8.207  12.166  0.00  0.00    +0.000 OA
ATOM     33  C   UNL     1      45.319   5.855  12.377  0.00  0.00    +0.000 A 
ATOM     34  H   UNL     1      43.250   8.089  11.135  0.00  0.00    +0.000 HD
ENDBRANCH  21  24
ENDBRANCH  19  20
ENDBRANCH   4  19
TORSDOF 6
ENDMDL
MODEL 9
REMARK VINA RESULT:    -5.963      3.012      3.740
REMARK INTER + INTRA:          -9.011
REMARK INTER:                  -8.820
REMARK INTRA:                  -0.191
REMARK UNBOUND:                -0.956
REMARK  Name = 
REMARK  7 active torsions:
REMARK  status: ('A' for Active; 'I' for Inactive)
REMARK    1  A    between atoms: C_1  and  C_2
REMARK    2  A    between atoms: C_2  and  N_3
REMARK    3  A    between atoms: C_2  and  C_11
REMARK    4  A    between atoms: C_4  and  C_6
REMARK    5  A    between atoms: C_14  and  C_15
REMARK    6  A    between atoms: C_15  and  N_16
REMARK    7  A    between atoms: C_17  and  C_19
REMARK                            x       y       z     vdW  Elec       q    Type
REMARK                         _______ _______ _______ _____ _____    ______ ____
ROOT
ATOM      1  C   UNL     1      45.555   5.327  11.627  0.00  0.00    +0.000 A 
ATOM      2  C   UNL     1      46.357   6.467  11.804  0.00  0.00    +0.000 A 
ATOM      3  C   UNL     1      47.138   6.630  12.955  0.00  0.00    +0.000 A 
ATOM      4  C   UNL     1      47.156   5.645  13.949  0.00  0.00    +0.000 A 
ATOM      5  C   UNL     1      46.376   4.497  13.767  0.00  0.00    +0.000 A 
ATOM      6  C   UNL     1      45.600   4.331  12.614  0.00  0.00    +0.000 A 
ENDROOT
BRANCH   1   8
ATOM      7  C   UNL     1      43.345   4.519  10.627  0.00  0.00    +0.000 C 
ATOM      8  C   UNL     1      44.689   5.215  10.381  0.00  0.00    +0.000 C 
BRANCH   8   9
ATOM      9  N   UNL     1      45.432   4.572   9.314  0.00  0.00    +0.000 N 
ATOM     10  C   UNL     1      45.331   3.218   9.068  0.00  0.00    +0.000 C 
ATOM     11  O   UNL     1      44.649   2.473   9.759  0.00  0.00    +0.000 OA
ATOM     12  H   UNL     1      46.070   5.133   8.770  0.00  0.00    +0.000 HD
BRANCH  10  13
ATOM     13  C   UNL     1      46.078   2.737   7.936  0.00  0.00    +0.000 A 
ATOM     14  C   UNL     1      46.455   3.294   6.729  0.00  0.00    +0.000 A 
ATOM     15  C   UNL     1      47.164   2.279   6.057  0.00  0.00    +0.000 A 
ATOM     16  N   UNL     1      47.237   1.156   6.771  0.00  0.00    +0.000 NA
ATOM     17  N   UNL     1      46.566   1.454   7.898  0.00  0.00    +0.000 N 
ATOM     18  H   UNL     1      46.467   0.743   8.616  0.00  0.00    +0.000 HD
ENDBRANCH  10  13
ENDBRANCH   8   9
ENDBRANCH   1   8
BRANCH   4  19
ATOM     19  C   UNL     1      47.944   5.837  15.220  0.00  0.00    +0.000 C 
BRANCH  19  20
ATOM     20  N   UNL     1      49.239   6.405  14.939  0.00  0.00    +0.000 N 
ATOM     21  C   UNL     1      49.629   7.608  15.467  0.00  0.00    +0.000 C 
ATOM     22  O   UNL     1      48.906   8.254  16.223  0.00  0.00    +0.000 OA
ATOM     23  H   UNL     1      49.744   6.023  14.147  0.00  0.00    +0.000 HD
BRANCH  21  24
ATOM     24  C   UNL     1      50.987   8.056  15.135  0.00  0.00    +0.000 A 
ATOM     25  C   UNL     1      51.169   9.172  14.329  0.00  0.00    +0.000 A 
ATOM     26  S   UNL     1      52.806   9.595  14.105  0.00  0.00    +0.000 S 
ATOM     27  C   UNL     1      53.332   8.269  15.032  0.00  0.00    +0.000 A 
ATOM     28  N   UNL     1      54.659   8.032  15.224  0.00  0.00    +0.000 NA
ATOM     29  C   UNL     1      54.916   6.978  15.923  0.00  0.00    +0.000 A 
ATOM     30  N   UNL     1      53.968   6.140  16.449  0.00  0.00    +0.000 N 
ATOM     31  C   UNL     1      52.618   6.353  16.301  0.00  0.00    +0.000 A 
ATOM     32  O   UNL     1      51.796   5.602  16.816  0.00  0.00    +0.000 OA
ATOM     33  C   UNL     1      52.274   7.523  15.518  0.00  0.00    +0.000 A 
ATOM     34  H   UNL     1      54.234   5.332  16.993  0.00  0.00    +0.000 HD
ENDBRANCH  21  24
ENDBRANCH  19  20
ENDBRANCH   4  19
TORSDOF 6
ENDMDL
