MODEL 1
REMARK VINA RESULT:    -8.455      0.000      0.000
REMARK INTER + INTRA:         -12.683
REMARK INTER:                 -11.667
REMARK INTRA:                  -1.016
REMARK UNBOUND:                -1.016
REMARK  Name = 
REMARK  10 active torsions:
REMARK  status: ('A' for Active; 'I' for Inactive)
REMARK    1  A    between atoms: C_1  and  O_2
REMARK    2  A    between atoms: O_2  and  C_3
REMARK    3  A    between atoms: C_5  and  N_6
REMARK    4  A    between atoms: N_6  and  C_7
REMARK    5  A    between atoms: C_7  and  C_8
REMARK    6  A    between atoms: C_8  and  C_9
REMARK    7  A    between atoms: C_8  and  C_10
REMARK    8  A    between atoms: C_8  and  C_11
REMARK    9  A    between atoms: C_15  and  C_16
REMARK   10  A    between atoms: C_19  and  O_20
REMARK                            x       y       z     vdW  Elec       q    Type
REMARK                         _______ _______ _______ _____ _____    ______ ____
ROOT
ATOM      1  C   UNL     1      44.387   6.204  11.661  0.00  0.00    +0.000 C 
ATOM      2  C   UNL     1      43.040   6.893  11.359  0.00  0.00    +0.000 C 
ATOM      3  C   UNL     1      45.530   7.067  11.062  0.00  0.00    +0.000 C 
ENDROOT
BRANCH   1   4
ATOM      4  C   UNL     1      44.337   4.803  11.018  0.00  0.00    +0.000 A 
ATOM      5  C   UNL     1      43.445   3.816  11.437  0.00  0.00    +0.000 A 
ATOM      6  N   UNL     1      43.369   2.570  10.921  0.00  0.00    +0.000 NA
ATOM      7  C   UNL     1      44.219   2.275   9.910  0.00  0.00    +0.000 A 
ATOM      8  C   UNL     1      45.132   3.163   9.350  0.00  0.00    +0.000 A 
ATOM      9  C   UNL     1      45.160   4.448   9.933  0.00  0.00    +0.000 A 
BRANCH   8  10
ATOM     10  C   UNL     1      46.013   2.797   8.222  0.00  0.00    +0.000 A 
ATOM     11  C   UNL     1      46.466   1.474   8.043  0.00  0.00    +0.000 A 
ATOM     12  C   UNL     1      47.292   1.120   6.969  0.00  0.00    +0.000 A 
ATOM     13  C   UNL     1      47.668   2.087   6.049  0.00  0.00    +0.000 A 
ATOM     14  C   UNL     1      47.241   3.398   6.190  0.00  0.00    +0.000 A 
ATOM     15  C   UNL     1      46.427   3.750   7.271  0.00  0.00    +0.000 A 
BRANCH  13  16
ATOM     16  O   UNL     1      48.460   1.787   4.982  0.00  0.00    +0.000 OA
ATOM     17  H   UNL     1      49.380   1.999   5.208  0.00  0.00    +0.000 HD
ENDBRANCH  13  16
ENDBRANCH   8  10
ENDBRANCH   1   4
BRANCH   1  18
ATOM     18  C   UNL     1      44.608   6.103  13.211  0.00  0.00    +0.000 C 
BRANCH  18  19
ATOM     19  N   UNL     1      46.011   6.230  13.605  0.00  0.00    +0.000 N 
ATOM     20  H   UNL     1      46.287   7.136  13.971  0.00  0.00    +0.000 HD
BRANCH  19  23
ATOM     21  C   UNL     1      47.785   3.999  15.970  0.00  0.00    +0.000 A 
ATOM     22  C   UNL     1      47.211   5.160  15.474  0.00  0.00    +0.000 A 
ATOM     23  C   UNL     1      46.704   5.163  14.180  0.00  0.00    +0.000 A 
ATOM     24  C   UNL     1      46.796   3.951  13.497  0.00  0.00    +0.000 A 
ATOM     25  N   UNL     1      47.360   2.829  13.998  0.00  0.00    +0.000 NA
ATOM     26  N   UNL     1      47.861   2.857  15.253  0.00  0.00    +0.000 NA
BRANCH  21  28
ATOM     27  C   UNL     1      49.499   3.295  17.394  0.00  0.00    +0.000 C 
ATOM     28  O   UNL     1      48.301   4.055  17.250  0.00  0.00    +0.000 OA
ENDBRANCH  21  28
ENDBRANCH  19  23
ENDBRANCH  18  19
ENDBRANCH   1  18
TORSDOF 7
ENDMDL
MODEL 2
REMARK VINA RESULT:    -8.157      2.044      7.726
REMARK INTER + INTRA:         -12.272
REMARK INTER:                 -11.243
REMARK INTRA:                  -1.029
REMARK UNBOUND:                -1.016
REMARK  Name = 
REMARK  10 active torsions:
REMARK  status: ('A' for Active; 'I' for Inactive)
REMARK    1  A    between atoms: C_1  and  O_2
REMARK    2  A    between atoms: O_2  and  C_3
REMARK    3  A    between atoms: C_5  and  N_6
REMARK    4  A    between atoms: N_6  and  C_7
REMARK    5  A    between atoms: C_7  and  C_8
REMARK    6  A    between atoms: C_8  and  C_9
REMARK    7  A    between atoms: C_8  and  C_10
REMARK    8  A    between atoms: C_8  and  C_11
REMARK    9  A    between atoms: C_15  and  C_16
REMARK   10  A    between atoms: C_19  and  O_20
REMARK                            x       y       z     vdW  Elec       q    Type
REMARK                         _______ _______ _______ _____ _____    ______ ____
ROOT
ATOM      1  C   UNL     1      43.862   4.407  11.894  0.00  0.00    +0.000 C 
ATOM      2  C   UNL     1      42.744   5.231  12.566  0.00  0.00    +0.000 C 
ATOM      3  C   UNL     1      43.690   2.918  12.296  0.00  0.00    +0.000 C 
ENDROOT
BRANCH   1   4
ATOM      4  C   UNL     1      45.208   4.976  12.386  0.00  0.00    +0.000 A 
ATOM      5  C   UNL     1      45.933   5.924  11.662  0.00  0.00    +0.000 A 
ATOM      6  N   UNL     1      47.122   6.443  12.038  0.00  0.00    +0.000 NA
ATOM      7  C   UNL     1      47.630   6.014  13.217  0.00  0.00    +0.000 A 
ATOM      8  C   UNL     1      47.007   5.111  14.073  0.00  0.00    +0.000 A 
ATOM      9  C   UNL     1      45.769   4.608  13.623  0.00  0.00    +0.000 A 
BRANCH   8  10
ATOM     10  C   UNL     1      47.594   4.704  15.367  0.00  0.00    +0.000 A 
ATOM     11  C   UNL     1      48.263   5.629  16.194  0.00  0.00    +0.000 A 
ATOM     12  C   UNL     1      48.812   5.249  17.425  0.00  0.00    +0.000 A 
ATOM     13  C   UNL     1      48.687   3.936  17.853  0.00  0.00    +0.000 A 
ATOM     14  C   UNL     1      48.034   2.998  17.068  0.00  0.00    +0.000 A 
ATOM     15  C   UNL     1      47.499   3.378  15.833  0.00  0.00    +0.000 A 
BRANCH  13  16
ATOM     16  O   UNL     1      49.193   3.524  19.049  0.00  0.00    +0.000 OA
ATOM     17  H   UNL     1      49.696   4.255  19.442  0.00  0.00    +0.000 HD
ENDBRANCH  13  16
ENDBRANCH   8  10
ENDBRANCH   1   4
BRANCH   1  18
ATOM     18  C   UNL     1      43.745   4.511  10.332  0.00  0.00    +0.000 C 
BRANCH  18  19
ATOM     19  N   UNL     1      44.075   3.263   9.643  0.00  0.00    +0.000 N 
ATOM     20  H   UNL     1      43.283   2.717   9.316  0.00  0.00    +0.000 HD
BRANCH  19  23
ATOM     21  C   UNL     1      46.837   1.983   7.535  0.00  0.00    +0.000 A 
ATOM     22  C   UNL     1      45.788   1.960   8.443  0.00  0.00    +0.000 A 
ATOM     23  C   UNL     1      45.199   3.161   8.823  0.00  0.00    +0.000 A 
ATOM     24  C   UNL     1      45.713   4.302   8.209  0.00  0.00    +0.000 A 
ATOM     25  N   UNL     1      46.737   4.303   7.326  0.00  0.00    +0.000 NA
ATOM     26  N   UNL     1      47.304   3.124   6.986  0.00  0.00    +0.000 NA
BRANCH  21  28
ATOM     27  C   UNL     1      46.634  -0.342   7.660  0.00  0.00    +0.000 C 
ATOM     28  O   UNL     1      47.409   0.767   7.211  0.00  0.00    +0.000 OA
ENDBRANCH  21  28
ENDBRANCH  19  23
ENDBRANCH  18  19
ENDBRANCH   1  18
TORSDOF 7
ENDMDL
MODEL 3
REMARK VINA RESULT:    -7.437      2.204      2.636
REMARK INTER + INTRA:         -11.278
REMARK INTER:                 -10.419
REMARK INTRA:                  -0.859
REMARK UNBOUND:                -1.016
REMARK  Name = 
REMARK  10 active torsions:
REMARK  status: ('A' for Active; 'I' for Inactive)
REMARK    1  A    between atoms: C_1  and  O_2
REMARK    2  A    between atoms: O_2  and  C_3
REMARK    3  A    between atoms: C_5  and  N_6
REMARK    4  A    between atoms: N_6  and  C_7
REMARK    5  A    between atoms: C_7  and  C_8
REMARK    6  A    between atoms: C_8  and  C_9
REMARK    7  A    between atoms: C_8  and  C_10
REMARK    8  A    between atoms: C_8  and  C_11
REMARK    9  A    between atoms: C_15  and  C_16
REMARK   10  A    between atoms: C_19  and  O_20
REMARK                            x       y       z     vdW  Elec       q    Type
REMARK                         _______ _______ _______ _____ _____    ______ ____
ROOT
ATOM      1  C   UNL     1      44.279   6.082  11.705  0.00  0.00    +0.000 C 
ATOM      2  C   UNL     1      44.344   5.861  13.231  0.00  0.00    +0.000 C 
ATOM      3  C   UNL     1      42.989   6.878  11.375  0.00  0.00    +0.000 C 
ENDROOT
BRANCH   1   4
ATOM      4  C   UNL     1      44.273   4.689  11.042  0.00  0.00    +0.000 A 
ATOM      5  C   UNL     1      43.420   3.665  11.455  0.00  0.00    +0.000 A 
ATOM      6  N   UNL     1      43.383   2.425  10.921  0.00  0.00    +0.000 NA
ATOM      7  C   UNL     1      44.234   2.175   9.899  0.00  0.00    +0.000 A 
ATOM      8  C   UNL     1      45.109   3.103   9.343  0.00  0.00    +0.000 A 
ATOM      9  C   UNL     1      45.098   4.379   9.945  0.00  0.00    +0.000 A 
BRANCH   8  10
ATOM     10  C   UNL     1      45.992   2.784   8.202  0.00  0.00    +0.000 A 
ATOM     11  C   UNL     1      46.491   1.481   8.001  0.00  0.00    +0.000 A 
ATOM     12  C   UNL     1      47.319   1.172   6.914  0.00  0.00    +0.000 A 
ATOM     13  C   UNL     1      47.651   2.165   6.005  0.00  0.00    +0.000 A 
ATOM     14  C   UNL     1      47.179   3.458   6.169  0.00  0.00    +0.000 A 
ATOM     15  C   UNL     1      46.363   3.765   7.262  0.00  0.00    +0.000 A 
BRANCH  13  16
ATOM     16  O   UNL     1      48.443   1.908   4.926  0.00  0.00    +0.000 OA
ATOM     17  H   UNL     1      48.641   0.958   4.905  0.00  0.00    +0.000 HD
ENDBRANCH  13  16
ENDBRANCH   8  10
ENDBRANCH   1   4
BRANCH   1  18
ATOM     18  C   UNL     1      45.513   6.926  11.228  0.00  0.00    +0.000 C 
BRANCH  18  19
ATOM     19  N   UNL     1      45.976   7.889  12.227  0.00  0.00    +0.000 N 
ATOM     20  H   UNL     1      45.296   8.155  12.933  0.00  0.00    +0.000 HD
BRANCH  19  23
ATOM     21  C   UNL     1      49.089   7.080  14.063  0.00  0.00    +0.000 A 
ATOM     22  C   UNL     1      47.736   7.091  13.758  0.00  0.00    +0.000 A 
ATOM     23  C   UNL     1      47.290   7.873  12.698  0.00  0.00    +0.000 A 
ATOM     24  C   UNL     1      48.282   8.564  12.004  0.00  0.00    +0.000 A 
ATOM     25  N   UNL     1      49.597   8.540  12.318  0.00  0.00    +0.000 NA
ATOM     26  N   UNL     1      50.003   7.785  13.363  0.00  0.00    +0.000 NA
BRANCH  21  28
ATOM     27  C   UNL     1      50.458   6.956  15.953  0.00  0.00    +0.000 C 
ATOM     28  O   UNL     1      49.479   6.310  15.143  0.00  0.00    +0.000 OA
ENDBRANCH  21  28
ENDBRANCH  19  23
ENDBRANCH  18  19
ENDBRANCH   1  18
TORSDOF 7
ENDMDL
MODEL 4
REMARK VINA RESULT:    -7.347      2.639      3.394
REMARK INTER + INTRA:         -11.155
REMARK INTER:                 -10.398
REMARK INTRA:                  -0.757
REMARK UNBOUND:                -1.016
REMARK  Name = 
REMARK  10 active torsions:
REMARK  status: ('A' for Active; 'I' for Inactive)
REMARK    1  A    between atoms: C_1  and  O_2
REMARK    2  A    between atoms: O_2  and  C_3
REMARK    3  A    between atoms: C_5  and  N_6
REMARK    4  A    between atoms: N_6  and  C_7
REMARK    5  A    between atoms: C_7  and  C_8
REMARK    6  A    between atoms: C_8  and  C_9
REMARK    7  A    between atoms: C_8  and  C_10
REMARK    8  A    between atoms: C_8  and  C_11
REMARK    9  A    between atoms: C_15  and  C_16
REMARK   10  A    between atoms: C_19  and  O_20
REMARK                            x       y       z     vdW  Elec       q    Type
REMARK                         _______ _______ _______ _____ _____    ______ ____
ROOT
ATOM      1  C   UNL     1      44.258   5.809  12.059  0.00  0.00    +0.000 C 
ATOM      2  C   UNL     1      43.095   5.815  13.073  0.00  0.00    +0.000 C 
ATOM      3  C   UNL     1      44.081   7.012  11.095  0.00  0.00    +0.000 C 
ENDROOT
BRANCH   1   4
ATOM      4  C   UNL     1      44.201   4.465  11.306  0.00  0.00    +0.000 A 
ATOM      5  C   UNL     1      43.299   3.454  11.641  0.00  0.00    +0.000 A 
ATOM      6  N   UNL     1      43.216   2.254  11.027  0.00  0.00    +0.000 NA
ATOM      7  C   UNL     1      44.069   2.035   9.999  0.00  0.00    +0.000 A 
ATOM      8  C   UNL     1      44.991   2.958   9.516  0.00  0.00    +0.000 A 
ATOM      9  C   UNL     1      45.026   4.191  10.199  0.00  0.00    +0.000 A 
BRANCH   8  10
ATOM     10  C   UNL     1      45.875   2.676   8.365  0.00  0.00    +0.000 A 
ATOM     11  C   UNL     1      46.233   3.684   7.449  0.00  0.00    +0.000 A 
ATOM     12  C   UNL     1      47.078   3.424   6.363  0.00  0.00    +0.000 A 
ATOM     13  C   UNL     1      47.588   2.146   6.186  0.00  0.00    +0.000 A 
ATOM     14  C   UNL     1      47.260   1.128   7.067  0.00  0.00    +0.000 A 
ATOM     15  C   UNL     1      46.405   1.389   8.143  0.00  0.00    +0.000 A 
BRANCH  13  16
ATOM     16  O   UNL     1      48.424   1.848   5.152  0.00  0.00    +0.000 OA
ATOM     17  H   UNL     1      48.603   2.662   4.653  0.00  0.00    +0.000 HD
ENDBRANCH  13  16
ENDBRANCH   8  10
ENDBRANCH   1   4
BRANCH   1  18
ATOM     18  C   UNL     1      45.627   5.977  12.807  0.00  0.00    +0.000 C 
BRANCH  18  19
ATOM     19  N   UNL     1      46.671   6.576  11.976  0.00  0.00    +0.000 N 
ATOM     20  H   UNL     1      46.349   7.219  11.259  0.00  0.00    +0.000 HD
BRANCH  19  23
ATOM     21  C   UNL     1      50.012   8.071  12.542  0.00  0.00    +0.000 A 
ATOM     22  C   UNL     1      48.851   7.722  11.868  0.00  0.00    +0.000 A 
ATOM     23  C   UNL     1      47.919   6.911  12.505  0.00  0.00    +0.000 A 
ATOM     24  C   UNL     1      48.237   6.544  13.812  0.00  0.00    +0.000 A 
ATOM     25  N   UNL     1      49.375   6.896  14.452  0.00  0.00    +0.000 NA
ATOM     26  N   UNL     1      50.273   7.671  13.805  0.00  0.00    +0.000 NA
BRANCH  21  28
ATOM     27  C   UNL     1      50.437  10.174  11.615  0.00  0.00    +0.000 C 
ATOM     28  O   UNL     1      50.920   8.855  11.857  0.00  0.00    +0.000 OA
ENDBRANCH  21  28
ENDBRANCH  19  23
ENDBRANCH  18  19
ENDBRANCH   1  18
TORSDOF 7
ENDMDL
MODEL 5
REMARK VINA RESULT:    -6.929      1.592      2.283
REMARK INTER + INTRA:         -10.577
REMARK INTER:                  -9.740
REMARK INTRA:                  -0.838
REMARK UNBOUND:                -1.016
REMARK  Name = 
REMARK  10 active torsions:
REMARK  status: ('A' for Active; 'I' for Inactive)
REMARK    1  A    between atoms: C_1  and  O_2
REMARK    2  A    between atoms: O_2  and  C_3
REMARK    3  A    between atoms: C_5  and  N_6
REMARK    4  A    between atoms: N_6  and  C_7
REMARK    5  A    between atoms: C_7  and  C_8
REMARK    6  A    between atoms: C_8  and  C_9
REMARK    7  A    between atoms: C_8  and  C_10
REMARK    8  A    between atoms: C_8  and  C_11
REMARK    9  A    between atoms: C_15  and  C_16
REMARK   10  A    between atoms: C_19  and  O_20
REMARK                            x       y       z     vdW  Elec       q    Type
REMARK                         _______ _______ _______ _____ _____    ______ ____
ROOT
ATOM      1  C   UNL     1      46.376   7.719  12.140  0.00  0.00    +0.000 C 
ATOM      2  C   UNL     1      45.652   9.080  12.081  0.00  0.00    +0.000 C 
ATOM      3  C   UNL     1      47.730   7.845  11.392  0.00  0.00    +0.000 C 
ENDROOT
BRANCH   1   4
ATOM      4  C   UNL     1      45.452   6.681  11.469  0.00  0.00    +0.000 A 
ATOM      5  C   UNL     1      44.076   6.644  11.695  0.00  0.00    +0.000 A 
ATOM      6  N   UNL     1      43.224   5.750  11.148  0.00  0.00    +0.000 NA
ATOM      7  C   UNL     1      43.758   4.835  10.306  0.00  0.00    +0.000 A 
ATOM      8  C   UNL     1      45.100   4.771   9.943  0.00  0.00    +0.000 A 
ATOM      9  C   UNL     1      45.935   5.733  10.548  0.00  0.00    +0.000 A 
BRANCH   8  10
ATOM     10  C   UNL     1      45.622   3.770   8.990  0.00  0.00    +0.000 A 
ATOM     11  C   UNL     1      46.309   4.156   7.822  0.00  0.00    +0.000 A 
ATOM     12  C   UNL     1      46.814   3.210   6.921  0.00  0.00    +0.000 A 
ATOM     13  C   UNL     1      46.649   1.859   7.185  0.00  0.00    +0.000 A 
ATOM     14  C   UNL     1      45.979   1.440   8.325  0.00  0.00    +0.000 A 
ATOM     15  C   UNL     1      45.465   2.388   9.215  0.00  0.00    +0.000 A 
BRANCH  13  16
ATOM     16  O   UNL     1      47.134   0.902   6.345  0.00  0.00    +0.000 OA
ATOM     17  H   UNL     1      46.506   0.783   5.614  0.00  0.00    +0.000 HD
ENDBRANCH  13  16
ENDBRANCH   8  10
ENDBRANCH   1   4
BRANCH   1  18
ATOM     18  C   UNL     1      46.672   7.327  13.630  0.00  0.00    +0.000 C 
BRANCH  18  19
ATOM     19  N   UNL     1      47.661   6.257  13.762  0.00  0.00    +0.000 N 
ATOM     20  H   UNL     1      48.549   6.418  13.295  0.00  0.00    +0.000 HD
BRANCH  19  23
ATOM     21  C   UNL     1      48.459   5.133  17.198  0.00  0.00    +0.000 A 
ATOM     22  C   UNL     1      48.511   5.906  16.048  0.00  0.00    +0.000 A 
ATOM     23  C   UNL     1      47.775   5.513  14.937  0.00  0.00    +0.000 A 
ATOM     24  C   UNL     1      47.006   4.362  15.103  0.00  0.00    +0.000 A 
ATOM     25  N   UNL     1      46.970   3.621  16.233  0.00  0.00    +0.000 NA
ATOM     26  N   UNL     1      47.707   4.015  17.294  0.00  0.00    +0.000 NA
BRANCH  21  28
ATOM     27  C   UNL     1      50.228   4.596  18.629  0.00  0.00    +0.000 C 
ATOM     28  O   UNL     1      49.231   5.549  18.266  0.00  0.00    +0.000 OA
ENDBRANCH  21  28
ENDBRANCH  19  23
ENDBRANCH  18  19
ENDBRANCH   1  18
TORSDOF 7
ENDMDL
MODEL 6
REMARK VINA RESULT:    -6.785      2.342      4.020
REMARK INTER + INTRA:         -10.379
REMARK INTER:                  -9.632
REMARK INTRA:                  -0.747
REMARK UNBOUND:                -1.016
REMARK  Name = 
REMARK  10 active torsions:
REMARK  status: ('A' for Active; 'I' for Inactive)
REMARK    1  A    between atoms: C_1  and  O_2
REMARK    2  A    between atoms: O_2  and  C_3
REMARK    3  A    between atoms: C_5  and  N_6
REMARK    4  A    between atoms: N_6  and  C_7
REMARK    5  A    between atoms: C_7  and  C_8
REMARK    6  A    between atoms: C_8  and  C_9
REMARK    7  A    between atoms: C_8  and  C_10
REMARK    8  A    between atoms: C_8  and  C_11
REMARK    9  A    between atoms: C_15  and  C_16
REMARK   10  A    between atoms: C_19  and  O_20
REMARK                            x       y       z     vdW  Elec       q    Type
REMARK                         _______ _______ _______ _____ _____    ______ ____
ROOT
ATOM      1  C   UNL     1      48.700   8.452  12.561  0.00  0.00    +0.000 C 
ATOM      2  C   UNL     1      48.751   9.989  12.695  0.00  0.00    +0.000 C 
ATOM      3  C   UNL     1      49.743   8.014  11.499  0.00  0.00    +0.000 C 
ENDROOT
BRANCH   1   4
ATOM      4  C   UNL     1      47.265   8.079  12.135  0.00  0.00    +0.000 A 
ATOM      5  C   UNL     1      46.195   8.968  12.240  0.00  0.00    +0.000 A 
ATOM      6  N   UNL     1      44.919   8.688  11.898  0.00  0.00    +0.000 NA
ATOM      7  C   UNL     1      44.677   7.452  11.402  0.00  0.00    +0.000 A 
ATOM      8  C   UNL     1      45.643   6.473  11.192  0.00  0.00    +0.000 A 
ATOM      9  C   UNL     1      46.955   6.828  11.569  0.00  0.00    +0.000 A 
BRANCH   8  10
ATOM     10  C   UNL     1      45.325   5.151  10.614  0.00  0.00    +0.000 A 
ATOM     11  C   UNL     1      45.554   4.870   9.252  0.00  0.00    +0.000 A 
ATOM     12  C   UNL     1      45.265   3.615   8.703  0.00  0.00    +0.000 A 
ATOM     13  C   UNL     1      44.751   2.615   9.515  0.00  0.00    +0.000 A 
ATOM     14  C   UNL     1      44.513   2.853  10.860  0.00  0.00    +0.000 A 
ATOM     15  C   UNL     1      44.792   4.112  11.402  0.00  0.00    +0.000 A 
BRANCH  13  16
ATOM     16  O   UNL     1      44.466   1.375   9.028  0.00  0.00    +0.000 OA
ATOM     17  H   UNL     1      43.508   1.230   9.089  0.00  0.00    +0.000 HD
ENDBRANCH  13  16
ENDBRANCH   8  10
ENDBRANCH   1   4
BRANCH   1  18
ATOM     18  C   UNL     1      49.075   7.777  13.926  0.00  0.00    +0.000 C 
BRANCH  18  19
ATOM     19  N   UNL     1      47.926   7.197  14.620  0.00  0.00    +0.000 N 
ATOM     20  H   UNL     1      47.014   7.517  14.308  0.00  0.00    +0.000 HD
BRANCH  19  23
ATOM     21  C   UNL     1      48.336   4.109  16.623  0.00  0.00    +0.000 A 
ATOM     22  C   UNL     1      48.489   5.437  16.251  0.00  0.00    +0.000 A 
ATOM     23  C   UNL     1      47.932   5.870  15.054  0.00  0.00    +0.000 A 
ATOM     24  C   UNL     1      47.223   4.906  14.337  0.00  0.00    +0.000 A 
ATOM     25  N   UNL     1      47.086   3.616  14.718  0.00  0.00    +0.000 NA
ATOM     26  N   UNL     1      47.651   3.215  15.878  0.00  0.00    +0.000 NA
BRANCH  21  28
ATOM     27  C   UNL     1      49.942   2.733  17.616  0.00  0.00    +0.000 C 
ATOM     28  O   UNL     1      48.932   3.720  17.807  0.00  0.00    +0.000 OA
ENDBRANCH  21  28
ENDBRANCH  19  23
ENDBRANCH  18  19
ENDBRANCH   1  18
TORSDOF 7
ENDMDL
MODEL 7
REMARK VINA RESULT:    -6.657      3.590      5.306
REMARK INTER + INTRA:         -10.203
REMARK INTER:                  -8.689
REMARK INTRA:                  -1.514
REMARK UNBOUND:                -1.016
REMARK  Name = 
REMARK  10 active torsions:
REMARK  status: ('A' for Active; 'I' for Inactive)
REMARK    1  A    between atoms: C_1  and  O_2
REMARK    2  A    between atoms: O_2  and  C_3
REMARK    3  A    between atoms: C_5  and  N_6
REMARK    4  A    between atoms: N_6  and  C_7
REMARK    5  A    between atoms: C_7  and  C_8
REMARK    6  A    between atoms: C_8  and  C_9
REMARK    7  A    between atoms: C_8  and  C_10
REMARK    8  A    between atoms: C_8  and  C_11
REMARK    9  A    between atoms: C_15  and  C_16
REMARK   10  A    between atoms: C_19  and  O_20
REMARK                            x       y       z     vdW  Elec       q    Type
REMARK                         _______ _______ _______ _____ _____    ______ ____
ROOT
ATOM      1  C   UNL     1      48.588   9.104  12.571  0.00  0.00    +0.000 C 
ATOM      2  C   UNL     1      48.957  10.527  12.105  0.00  0.00    +0.000 C 
ATOM      3  C   UNL     1      49.527   8.091  11.864  0.00  0.00    +0.000 C 
ENDROOT
BRANCH   1   4
ATOM      4  C   UNL     1      47.111   8.868  12.193  0.00  0.00    +0.000 A 
ATOM      5  C   UNL     1      46.252   9.909  11.837  0.00  0.00    +0.000 A 
ATOM      6  N   UNL     1      44.949   9.761  11.513  0.00  0.00    +0.000 NA
ATOM      7  C   UNL     1      44.457   8.500  11.523  0.00  0.00    +0.000 A 
ATOM      8  C   UNL     1      45.196   7.356  11.808  0.00  0.00    +0.000 A 
ATOM      9  C   UNL     1      46.549   7.579  12.137  0.00  0.00    +0.000 A 
BRANCH   8  10
ATOM     10  C   UNL     1      44.613   6.000  11.769  0.00  0.00    +0.000 A 
ATOM     11  C   UNL     1      43.832   5.504  12.833  0.00  0.00    +0.000 A 
ATOM     12  C   UNL     1      43.268   4.223  12.795  0.00  0.00    +0.000 A 
ATOM     13  C   UNL     1      43.471   3.420  11.683  0.00  0.00    +0.000 A 
ATOM     14  C   UNL     1      44.232   3.873  10.616  0.00  0.00    +0.000 A 
ATOM     15  C   UNL     1      44.803   5.148  10.663  0.00  0.00    +0.000 A 
BRANCH  13  16
ATOM     16  O   UNL     1      42.932   2.172  11.596  0.00  0.00    +0.000 OA
ATOM     17  H   UNL     1      42.413   2.113  10.778  0.00  0.00    +0.000 HD
ENDBRANCH  13  16
ENDBRANCH   8  10
ENDBRANCH   1   4
BRANCH   1  18
ATOM     18  C   UNL     1      48.799   8.971  14.120  0.00  0.00    +0.000 C 
BRANCH  18  19
ATOM     19  N   UNL     1      49.478   7.734  14.508  0.00  0.00    +0.000 N 
ATOM     20  H   UNL     1      50.464   7.824  14.735  0.00  0.00    +0.000 HD
BRANCH  19  23
ATOM     21  C   UNL     1      47.444   4.811  15.523  0.00  0.00    +0.000 A 
ATOM     22  C   UNL     1      47.947   5.812  14.706  0.00  0.00    +0.000 A 
ATOM     23  C   UNL     1      48.824   6.746  15.246  0.00  0.00    +0.000 A 
ATOM     24  C   UNL     1      49.147   6.560  16.589  0.00  0.00    +0.000 A 
ATOM     25  N   UNL     1      48.645   5.576  17.369  0.00  0.00    +0.000 NA
ATOM     26  N   UNL     1      47.781   4.690  16.825  0.00  0.00    +0.000 NA
BRANCH  21  28
ATOM     27  C   UNL     1      46.871   3.630  13.589  0.00  0.00    +0.000 C 
ATOM     28  O   UNL     1      46.554   3.924  14.948  0.00  0.00    +0.000 OA
ENDBRANCH  21  28
ENDBRANCH  19  23
ENDBRANCH  18  19
ENDBRANCH   1  18
TORSDOF 7
ENDMDL
MODEL 8
REMARK VINA RESULT:    -6.273      2.972      8.574
REMARK INTER + INTRA:          -9.672
REMARK INTER:                  -8.889
REMARK INTRA:                  -0.783
REMARK UNBOUND:                -1.016
REMARK  Name = 
REMARK  10 active torsions:
REMARK  status: ('A' for Active; 'I' for Inactive)
REMARK    1  A    between atoms: C_1  and  O_2
REMARK    2  A    between atoms: O_2  and  C_3
REMARK    3  A    between atoms: C_5  and  N_6
REMARK    4  A    between atoms: N_6  and  C_7
REMARK    5  A    between atoms: C_7  and  C_8
REMARK    6  A    between atoms: C_8  and  C_9
REMARK    7  A    between atoms: C_8  and  C_10
REMARK    8  A    between atoms: C_8  and  C_11
REMARK    9  A    between atoms: C_15  and  C_16
REMARK   10  A    between atoms: C_19  and  O_20
REMARK                            x       y       z     vdW  Elec       q    Type
REMARK                         _______ _______ _______ _____ _____    ______ ____
ROOT
ATOM      1  C   UNL     1      47.740   7.731  12.796  0.00  0.00    +0.000 C 
ATOM      2  C   UNL     1      48.408   7.436  11.436  0.00  0.00    +0.000 C 
ATOM      3  C   UNL     1      47.220   9.193  12.785  0.00  0.00    +0.000 C 
ENDROOT
BRANCH   1   4
ATOM      4  C   UNL     1      48.810   7.517  13.886  0.00  0.00    +0.000 A 
ATOM      5  C   UNL     1      50.095   8.052  13.792  0.00  0.00    +0.000 A 
ATOM      6  N   UNL     1      51.074   7.883  14.708  0.00  0.00    +0.000 NA
ATOM      7  C   UNL     1      50.765   7.148  15.802  0.00  0.00    +0.000 A 
ATOM      8  C   UNL     1      49.518   6.590  16.063  0.00  0.00    +0.000 A 
ATOM      9  C   UNL     1      48.540   6.804  15.069  0.00  0.00    +0.000 A 
BRANCH   8  10
ATOM     10  C   UNL     1      49.228   5.826  17.294  0.00  0.00    +0.000 A 
ATOM     11  C   UNL     1      48.648   4.542  17.243  0.00  0.00    +0.000 A 
ATOM     12  C   UNL     1      48.381   3.810  18.407  0.00  0.00    +0.000 A 
ATOM     13  C   UNL     1      48.703   4.351  19.643  0.00  0.00    +0.000 A 
ATOM     14  C   UNL     1      49.276   5.610  19.733  0.00  0.00    +0.000 A 
ATOM     15  C   UNL     1      49.529   6.343  18.570  0.00  0.00    +0.000 A 
BRANCH  13  16
ATOM     16  O   UNL     1      48.474   3.671  20.801  0.00  0.00    +0.000 OA
ATOM     17  H   UNL     1      48.639   4.267  21.549  0.00  0.00    +0.000 HD
ENDBRANCH  13  16
ENDBRANCH   8  10
ENDBRANCH   1   4
BRANCH   1  18
ATOM     18  C   UNL     1      46.515   6.775  13.014  0.00  0.00    +0.000 C 
BRANCH  18  19
ATOM     19  N   UNL     1      45.888   6.343  11.765  0.00  0.00    +0.000 N 
ATOM     20  H   UNL     1      46.442   6.477  10.924  0.00  0.00    +0.000 HD
BRANCH  19  23
ATOM     21  C   UNL     1      44.131   3.263  10.699  0.00  0.00    +0.000 A 
ATOM     22  C   UNL     1      44.890   4.418  10.592  0.00  0.00    +0.000 A 
ATOM     23  C   UNL     1      45.065   5.217  11.717  0.00  0.00    +0.000 A 
ATOM     24  C   UNL     1      44.468   4.746  12.885  0.00  0.00    +0.000 A 
ATOM     25  N   UNL     1      43.731   3.615  12.968  0.00  0.00    +0.000 NA
ATOM     26  N   UNL     1      43.562   2.865  11.857  0.00  0.00    +0.000 NA
BRANCH  21  28
ATOM     27  C   UNL     1      45.198   2.055   9.006  0.00  0.00    +0.000 C 
ATOM     28  O   UNL     1      43.963   2.517   9.547  0.00  0.00    +0.000 OA
ENDBRANCH  21  28
ENDBRANCH  19  23
ENDBRANCH  18  19
ENDBRANCH   1  18
TORSDOF 7
ENDMDL
MODEL 9
REMARK VINA RESULT:    -6.123      4.322      7.353
REMARK INTER + INTRA:          -9.465
REMARK INTER:                  -8.626
REMARK INTRA:                  -0.839
REMARK UNBOUND:                -1.016
REMARK  Name = 
REMARK  10 active torsions:
REMARK  status: ('A' for Active; 'I' for Inactive)
REMARK    1  A    between atoms: C_1  and  O_2
REMARK    2  A    between atoms: O_2  and  C_3
REMARK    3  A    between atoms: C_5  and  N_6
REMARK    4  A    between atoms: N_6  and  C_7
REMARK    5  A    between atoms: C_7  and  C_8
REMARK    6  A    between atoms: C_8  and  C_9
REMARK    7  A    between atoms: C_8  and  C_10
REMARK    8  A    between atoms: C_8  and  C_11
REMARK    9  A    between atoms: C_15  and  C_16
REMARK   10  A    between atoms: C_19  and  O_20
REMARK                            x       y       z     vdW  Elec       q    Type
REMARK                         _______ _______ _______ _____ _____    ______ ____
ROOT
ATOM      1  C   UNL     1      46.072   6.385  12.151  0.00  0.00    +0.000 C 
ATOM      2  C   UNL     1      44.758   6.898  12.776  0.00  0.00    +0.000 C 
ATOM      3  C   UNL     1      46.400   4.995  12.759  0.00  0.00    +0.000 C 
ENDROOT
BRANCH   1   4
ATOM      4  C   UNL     1      47.168   7.420  12.477  0.00  0.00    +0.000 A 
ATOM      5  C   UNL     1      47.068   8.305  13.551  0.00  0.00    +0.000 A 
ATOM      6  N   UNL     1      47.988   9.241  13.873  0.00  0.00    +0.000 NA
ATOM      7  C   UNL     1      49.093   9.303  13.093  0.00  0.00    +0.000 A 
ATOM      8  C   UNL     1      49.360   8.461  12.018  0.00  0.00    +0.000 A 
ATOM      9  C   UNL     1      48.361   7.506  11.736  0.00  0.00    +0.000 A 
BRANCH   8  10
ATOM     10  C   UNL     1      50.602   8.552  11.223  0.00  0.00    +0.000 A 
ATOM     11  C   UNL     1      51.226   9.791  10.973  0.00  0.00    +0.000 A 
ATOM     12  C   UNL     1      52.409   9.881  10.229  0.00  0.00    +0.000 A 
ATOM     13  C   UNL     1      52.993   8.725   9.733  0.00  0.00    +0.000 A 
ATOM     14  C   UNL     1      52.410   7.488   9.958  0.00  0.00    +0.000 A 
ATOM     15  C   UNL     1      51.221   7.404  10.691  0.00  0.00    +0.000 A 
BRANCH  13  16
ATOM     16  O   UNL     1      54.150   8.762   9.014  0.00  0.00    +0.000 OA
ATOM     17  H   UNL     1      54.057   9.422   8.309  0.00  0.00    +0.000 HD
ENDBRANCH  13  16
ENDBRANCH   8  10
ENDBRANCH   1   4
BRANCH   1  18
ATOM     18  C   UNL     1      45.903   6.215  10.600  0.00  0.00    +0.000 C 
BRANCH  18  19
ATOM     19  N   UNL     1      44.868   5.249  10.233  0.00  0.00    +0.000 N 
ATOM     20  H   UNL     1      43.934   5.628  10.107  0.00  0.00    +0.000 HD
BRANCH  19  23
ATOM     21  C   UNL     1      46.191   3.085   7.535  0.00  0.00    +0.000 A 
ATOM     22  C   UNL     1      45.889   4.250   8.225  0.00  0.00    +0.000 A 
ATOM     23  C   UNL     1      45.146   4.167   9.396  0.00  0.00    +0.000 A 
ATOM     24  C   UNL     1      44.794   2.877   9.794  0.00  0.00    +0.000 A 
ATOM     25  N   UNL     1      45.099   1.753   9.106  0.00  0.00    +0.000 NA
ATOM     26  N   UNL     1      45.808   1.863   7.961  0.00  0.00    +0.000 NA
BRANCH  21  28
ATOM     27  C   UNL     1      47.918   2.227   6.214  0.00  0.00    +0.000 C 
ATOM     28  O   UNL     1      46.907   3.222   6.361  0.00  0.00    +0.000 OA
ENDBRANCH  21  28
ENDBRANCH  19  23
ENDBRANCH  18  19
ENDBRANCH   1  18
TORSDOF 7
ENDMDL
