MODEL 1
REMARK VINA RESULT:    -7.462      0.000      0.000
REMARK INTER + INTRA:          -9.538
REMARK INTER:                  -9.207
REMARK INTRA:                  -0.331
REMARK UNBOUND:                -0.331
REMARK  Name = 
REMARK  5 active torsions:
REMARK  status: ('A' for Active; 'I' for Inactive)
REMARK    1  A    between atoms: C_1  and  C_2
REMARK    2  A    between atoms: C_2  and  O_3
REMARK    3  A    between atoms: C_2  and  C_14
REMARK    4  A    between atoms: O_3  and  C_4
REMARK    5  A    between atoms: C_7  and  C_8
REMARK                            x       y       z     vdW  Elec       q    Type
REMARK                         _______ _______ _______ _____ _____    ______ ____
ROOT
ATOM      1  C   UNL     1      44.641   3.991   9.095  0.00  0.00    +0.000 A 
ATOM      2  N   UNL     1      45.410   4.385   8.049  0.00  0.00    +0.000 NA
ATOM      3  C   UNL     1      46.201   3.422   7.508  0.00  0.00    +0.000 A 
ATOM      4  C   UNL     1      46.250   2.130   8.015  0.00  0.00    +0.000 A 
ATOM      5  N   UNL     1      45.503   1.724   9.077  0.00  0.00    +0.000 NA
ATOM      6  C   UNL     1      44.690   2.681   9.586  0.00  0.00    +0.000 A 
ATOM      7 CL   UNL     1      43.713   2.133  10.888  0.00  0.00    +0.000 Cl
ENDROOT
BRANCH   4   8
ATOM      8  C   UNL     1      47.136   1.116   7.381  0.00  0.00    +0.000 C 
ATOM      9  N   UNL     1      46.823  -0.186   7.639  0.00  0.00    +0.000 N 
ATOM     10  O   UNL     1      48.089   1.435   6.679  0.00  0.00    +0.000 OA
ATOM     11  H   UNL     1      46.031  -0.415   8.230  0.00  0.00    +0.000 HD
ATOM     12  H   UNL     1      47.381  -0.925   7.234  0.00  0.00    +0.000 HD
ENDBRANCH   4   8
BRANCH   1  13
ATOM     13  O   UNL     1      43.736   4.875   9.635  0.00  0.00    +0.000 OA
BRANCH  13  15
ATOM     14  C   UNL     1      42.583   5.868  11.438  0.00  0.00    +0.000 C 
ATOM     15  C   UNL     1      43.883   5.156  11.039  0.00  0.00    +0.000 C 
BRANCH  15  16
ATOM     16  C   UNL     1      45.159   5.998  11.327  0.00  0.00    +0.000 C 
ATOM     17  C   UNL     1      46.050   5.338  12.396  0.00  0.00    +0.000 C 
ATOM     18  C   UNL     1      47.285   6.172  12.726  0.00  0.00    +0.000 C 
ATOM     19  C   UNL     1      46.892   7.590  13.126  0.00  0.00    +0.000 C 
ATOM     20  C   UNL     1      46.099   8.264  12.013  0.00  0.00    +0.000 C 
ATOM     21  C   UNL     1      44.843   7.468  11.663  0.00  0.00    +0.000 C 
ENDBRANCH  15  16
ENDBRANCH  13  15
ENDBRANCH   1  13
TORSDOF 4
ENDMDL
MODEL 2
REMARK VINA RESULT:    -7.059      1.641      2.076
REMARK INTER + INTRA:          -9.040
REMARK INTER:                  -8.421
REMARK INTRA:                  -0.619
REMARK UNBOUND:                -0.331
REMARK  Name = 
REMARK  5 active torsions:
REMARK  status: ('A' for Active; 'I' for Inactive)
REMARK    1  A    between atoms: C_1  and  C_2
REMARK    2  A    between atoms: C_2  and  O_3
REMARK    3  A    between atoms: C_2  and  C_14
REMARK    4  A    between atoms: O_3  and  C_4
REMARK    5  A    between atoms: C_7  and  C_8
REMARK                            x       y       z     vdW  Elec       q    Type
REMARK                         _______ _______ _______ _____ _____    ______ ____
ROOT
ATOM      1  C   UNL     1      44.434   3.527   9.366  0.00  0.00    +0.000 A 
ATOM      2  N   UNL     1      44.072   2.220   9.361  0.00  0.00    +0.000 NA
ATOM      3  C   UNL     1      44.935   1.375   8.739  0.00  0.00    +0.000 A 
ATOM      4  C   UNL     1      46.092   1.822   8.115  0.00  0.00    +0.000 A 
ATOM      5  N   UNL     1      46.460   3.132   8.091  0.00  0.00    +0.000 NA
ATOM      6  C   UNL     1      45.612   3.962   8.745  0.00  0.00    +0.000 A 
ATOM      7 CL   UNL     1      46.123   5.602   8.753  0.00  0.00    +0.000 Cl
ENDROOT
BRANCH   4   8
ATOM      8  C   UNL     1      47.001   0.850   7.448  0.00  0.00    +0.000 C 
ATOM      9  N   UNL     1      46.722  -0.467   7.666  0.00  0.00    +0.000 N 
ATOM     10  O   UNL     1      47.943   1.215   6.753  0.00  0.00    +0.000 OA
ATOM     11  H   UNL     1      45.937  -0.734   8.251  0.00  0.00    +0.000 HD
ATOM     12  H   UNL     1      47.297  -1.178   7.237  0.00  0.00    +0.000 HD
ENDBRANCH   4   8
BRANCH   1  13
ATOM     13  O   UNL     1      43.670   4.434  10.062  0.00  0.00    +0.000 OA
BRANCH  13  15
ATOM     14  C   UNL     1      42.670   5.344  11.996  0.00  0.00    +0.000 C 
ATOM     15  C   UNL     1      43.692   4.313  11.497  0.00  0.00    +0.000 C 
BRANCH  15  16
ATOM     16  C   UNL     1      45.121   4.536  12.071  0.00  0.00    +0.000 C 
ATOM     17  C   UNL     1      45.567   3.363  12.964  0.00  0.00    +0.000 C 
ATOM     18  C   UNL     1      46.948   3.583  13.574  0.00  0.00    +0.000 C 
ATOM     19  C   UNL     1      47.006   4.909  14.326  0.00  0.00    +0.000 C 
ATOM     20  C   UNL     1      46.661   6.069  13.399  0.00  0.00    +0.000 C 
ATOM     21  C   UNL     1      45.276   5.895  12.780  0.00  0.00    +0.000 C 
ENDBRANCH  15  16
ENDBRANCH  13  15
ENDBRANCH   1  13
TORSDOF 4
ENDMDL
MODEL 3
REMARK VINA RESULT:    -6.836      3.546      6.003
REMARK INTER + INTRA:          -8.766
REMARK INTER:                  -8.190
REMARK INTRA:                  -0.576
REMARK UNBOUND:                -0.331
REMARK  Name = 
REMARK  5 active torsions:
REMARK  status: ('A' for Active; 'I' for Inactive)
REMARK    1  A    between atoms: C_1  and  C_2
REMARK    2  A    between atoms: C_2  and  O_3
REMARK    3  A    between atoms: C_2  and  C_14
REMARK    4  A    between atoms: O_3  and  C_4
REMARK    5  A    between atoms: C_7  and  C_8
REMARK                            x       y       z     vdW  Elec       q    Type
REMARK                         _______ _______ _______ _____ _____    ______ ____
ROOT
ATOM      1  C   UNL     1      46.061   5.748  12.375  0.00  0.00    +0.000 A 
ATOM      2  N   UNL     1      46.162   6.993  11.846  0.00  0.00    +0.000 NA
ATOM      3  C   UNL     1      47.322   7.649  12.108  0.00  0.00    +0.000 A 
ATOM      4  C   UNL     1      48.323   7.099  12.898  0.00  0.00    +0.000 A 
ATOM      5  N   UNL     1      48.230   5.861  13.455  0.00  0.00    +0.000 NA
ATOM      6  C   UNL     1      47.084   5.200  13.157  0.00  0.00    +0.000 A 
ATOM      7 CL   UNL     1      47.010   3.617  13.820  0.00  0.00    +0.000 Cl
ENDROOT
BRANCH   4   8
ATOM      8  C   UNL     1      49.574   7.864  13.153  0.00  0.00    +0.000 C 
ATOM      9  N   UNL     1      50.373   7.378  14.146  0.00  0.00    +0.000 N 
ATOM     10  O   UNL     1      49.861   8.869  12.513  0.00  0.00    +0.000 OA
ATOM     11  H   UNL     1      50.102   6.546  14.660  0.00  0.00    +0.000 HD
ATOM     12  H   UNL     1      51.241   7.847  14.365  0.00  0.00    +0.000 HD
ENDBRANCH   4   8
BRANCH   1  13
ATOM     13  O   UNL     1      44.963   4.976  12.072  0.00  0.00    +0.000 OA
BRANCH  13  15
ATOM     14  C   UNL     1      42.760   5.495  11.407  0.00  0.00    +0.000 C 
ATOM     15  C   UNL     1      44.208   5.373  10.912  0.00  0.00    +0.000 C 
BRANCH  15  16
ATOM     16  C   UNL     1      44.375   4.361   9.742  0.00  0.00    +0.000 C 
ATOM     17  C   UNL     1      44.397   2.906  10.246  0.00  0.00    +0.000 C 
ATOM     18  C   UNL     1      44.606   1.899   9.118  0.00  0.00    +0.000 C 
ATOM     19  C   UNL     1      45.861   2.230   8.318  0.00  0.00    +0.000 C 
ATOM     20  C   UNL     1      45.776   3.638   7.742  0.00  0.00    +0.000 C 
ATOM     21  C   UNL     1      45.583   4.680   8.842  0.00  0.00    +0.000 C 
ENDBRANCH  15  16
ENDBRANCH  13  15
ENDBRANCH   1  13
TORSDOF 4
ENDMDL
MODEL 4
REMARK VINA RESULT:    -6.062      3.342      4.954
REMARK INTER + INTRA:          -7.811
REMARK INTER:                  -7.249
REMARK INTRA:                  -0.562
REMARK UNBOUND:                -0.331
REMARK  Name = 
REMARK  5 active torsions:
REMARK  status: ('A' for Active; 'I' for Inactive)
REMARK    1  A    between atoms: C_1  and  C_2
REMARK    2  A    between atoms: C_2  and  O_3
REMARK    3  A    between atoms: C_2  and  C_14
REMARK    4  A    between atoms: O_3  and  C_4
REMARK    5  A    between atoms: C_7  and  C_8
REMARK                            x       y       z     vdW  Elec       q    Type
REMARK                         _______ _______ _______ _____ _____    ______ ____
ROOT
ATOM      1  C   UNL     1      46.398   5.847  12.719  0.00  0.00    +0.000 A 
ATOM      2  N   UNL     1      45.854   6.072  11.497  0.00  0.00    +0.000 NA
ATOM      3  C   UNL     1      45.080   5.069  11.006  0.00  0.00    +0.000 A 
ATOM      4  C   UNL     1      44.889   3.876  11.691  0.00  0.00    +0.000 A 
ATOM      5  N   UNL     1      45.443   3.625  12.909  0.00  0.00    +0.000 NA
ATOM      6  C   UNL     1      46.184   4.646  13.405  0.00  0.00    +0.000 A 
ATOM      7 CL   UNL     1      46.827   4.333  14.967  0.00  0.00    +0.000 Cl
ENDROOT
BRANCH   4   8
ATOM      8  C   UNL     1      44.030   2.811  11.105  0.00  0.00    +0.000 C 
ATOM      9  N   UNL     1      44.493   2.244   9.955  0.00  0.00    +0.000 N 
ATOM     10  O   UNL     1      42.972   2.474  11.625  0.00  0.00    +0.000 OA
ATOM     11  H   UNL     1      45.370   2.551   9.550  0.00  0.00    +0.000 HD
ATOM     12  H   UNL     1      43.960   1.510   9.510  0.00  0.00    +0.000 HD
ENDBRANCH   4   8
BRANCH   1  13
ATOM     13  O   UNL     1      47.110   6.852  13.333  0.00  0.00    +0.000 OA
BRANCH  13  15
ATOM     14  C   UNL     1      49.143   7.095  14.505  0.00  0.00    +0.000 C 
ATOM     15  C   UNL     1      48.533   6.843  13.119  0.00  0.00    +0.000 C 
BRANCH  15  16
ATOM     16  C   UNL     1      48.961   7.898  12.058  0.00  0.00    +0.000 C 
ATOM     17  C   UNL     1      50.492   8.055  11.994  0.00  0.00    +0.000 C 
ATOM     18  C   UNL     1      50.931   9.118  10.991  0.00  0.00    +0.000 C 
ATOM     19  C   UNL     1      50.246  10.450  11.276  0.00  0.00    +0.000 C 
ATOM     20  C   UNL     1      48.730  10.296  11.233  0.00  0.00    +0.000 C 
ATOM     21  C   UNL     1      48.248   9.251  12.236  0.00  0.00    +0.000 C 
ENDBRANCH  15  16
ENDBRANCH  13  15
ENDBRANCH   1  13
TORSDOF 4
ENDMDL
MODEL 5
REMARK VINA RESULT:    -6.002      4.462      6.527
REMARK INTER + INTRA:          -7.737
REMARK INTER:                  -7.186
REMARK INTRA:                  -0.551
REMARK UNBOUND:                -0.331
REMARK  Name = 
REMARK  5 active torsions:
REMARK  status: ('A' for Active; 'I' for Inactive)
REMARK    1  A    between atoms: C_1  and  C_2
REMARK    2  A    between atoms: C_2  and  O_3
REMARK    3  A    between atoms: C_2  and  C_14
REMARK    4  A    between atoms: O_3  and  C_4
REMARK    5  A    between atoms: C_7  and  C_8
REMARK                            x       y       z     vdW  Elec       q    Type
REMARK                         _______ _______ _______ _____ _____    ______ ____
ROOT
ATOM      1  C   UNL     1      46.832   5.443  13.418  0.00  0.00    +0.000 A 
ATOM      2  N   UNL     1      45.839   4.619  13.835  0.00  0.00    +0.000 NA
ATOM      3  C   UNL     1      44.708   4.636  13.081  0.00  0.00    +0.000 A 
ATOM      4  C   UNL     1      44.562   5.470  11.981  0.00  0.00    +0.000 A 
ATOM      5  N   UNL     1      45.540   6.318  11.561  0.00  0.00    +0.000 NA
ATOM      6  C   UNL     1      46.677   6.267  12.297  0.00  0.00    +0.000 A 
ATOM      7 CL   UNL     1      47.919   7.302  11.716  0.00  0.00    +0.000 Cl
ENDROOT
BRANCH   4   8
ATOM      8  C   UNL     1      43.300   5.447  11.192  0.00  0.00    +0.000 C 
ATOM      9  N   UNL     1      42.236   6.083  11.760  0.00  0.00    +0.000 N 
ATOM     10  O   UNL     1      43.227   4.886  10.104  0.00  0.00    +0.000 OA
ATOM     11  H   UNL     1      42.331   6.532  12.664  0.00  0.00    +0.000 HD
ATOM     12  H   UNL     1      41.351   6.110  11.273  0.00  0.00    +0.000 HD
ENDBRANCH   4   8
BRANCH   1  13
ATOM     13  O   UNL     1      48.048   5.411  14.062  0.00  0.00    +0.000 OA
BRANCH  13  15
ATOM     14  C   UNL     1      48.970   7.270  15.183  0.00  0.00    +0.000 C 
ATOM     15  C   UNL     1      48.092   6.024  15.364  0.00  0.00    +0.000 C 
BRANCH  15  16
ATOM     16  C   UNL     1      48.632   5.042  16.444  0.00  0.00    +0.000 C 
ATOM     17  C   UNL     1      47.529   4.102  16.963  0.00  0.00    +0.000 C 
ATOM     18  C   UNL     1      48.027   3.161  18.056  0.00  0.00    +0.000 C 
ATOM     19  C   UNL     1      48.674   3.944  19.194  0.00  0.00    +0.000 C 
ATOM     20  C   UNL     1      49.831   4.790  18.676  0.00  0.00    +0.000 C 
ATOM     21  C   UNL     1      49.369   5.759  17.590  0.00  0.00    +0.000 C 
ENDBRANCH  15  16
ENDBRANCH  13  15
ENDBRANCH   1  13
TORSDOF 4
ENDMDL
MODEL 6
REMARK VINA RESULT:    -5.919      3.431      6.101
REMARK INTER + INTRA:          -7.634
REMARK INTER:                  -8.727
REMARK INTRA:                   1.093
REMARK UNBOUND:                -0.331
REMARK  Name = 
REMARK  5 active torsions:
REMARK  status: ('A' for Active; 'I' for Inactive)
REMARK    1  A    between atoms: C_1  and  C_2
REMARK    2  A    between atoms: C_2  and  O_3
REMARK    3  A    between atoms: C_2  and  C_14
REMARK    4  A    between atoms: O_3  and  C_4
REMARK    5  A    between atoms: C_7  and  C_8
REMARK                            x       y       z     vdW  Elec       q    Type
REMARK                         _______ _______ _______ _____ _____    ______ ____
ROOT
ATOM      1  C   UNL     1      45.165   4.927  11.790  0.00  0.00    +0.000 A 
ATOM      2  N   UNL     1      45.405   3.702  12.320  0.00  0.00    +0.000 NA
ATOM      3  C   UNL     1      46.185   3.687  13.432  0.00  0.00    +0.000 A 
ATOM      4  C   UNL     1      46.733   4.843  13.970  0.00  0.00    +0.000 A 
ATOM      5  N   UNL     1      46.521   6.079  13.439  0.00  0.00    +0.000 NA
ATOM      6  C   UNL     1      45.712   6.087  12.352  0.00  0.00    +0.000 A 
ATOM      7 CL   UNL     1      45.410   7.660  11.732  0.00  0.00    +0.000 Cl
ENDROOT
BRANCH   4   8
ATOM      8  C   UNL     1      47.581   4.767  15.191  0.00  0.00    +0.000 C 
ATOM      9  N   UNL     1      47.313   3.729  16.034  0.00  0.00    +0.000 N 
ATOM     10  O   UNL     1      48.460   5.591  15.422  0.00  0.00    +0.000 OA
ATOM     11  H   UNL     1      46.575   3.069  15.814  0.00  0.00    +0.000 HD
ATOM     12  H   UNL     1      47.856   3.616  16.878  0.00  0.00    +0.000 HD
ENDBRANCH   4   8
BRANCH   1  13
ATOM     13  O   UNL     1      44.302   5.042  10.725  0.00  0.00    +0.000 OA
BRANCH  13  15
ATOM     14  C   UNL     1      43.504   2.846  11.052  0.00  0.00    +0.000 C 
ATOM     15  C   UNL     1      44.027   3.831   9.997  0.00  0.00    +0.000 C 
BRANCH  15  16
ATOM     16  C   UNL     1      45.288   3.314   9.245  0.00  0.00    +0.000 C 
ATOM     17  C   UNL     1      45.646   4.213   8.047  0.00  0.00    +0.000 C 
ATOM     18  C   UNL     1      46.852   3.698   7.268  0.00  0.00    +0.000 C 
ATOM     19  C   UNL     1      46.643   2.250   6.836  0.00  0.00    +0.000 C 
ATOM     20  C   UNL     1      46.393   1.358   8.045  0.00  0.00    +0.000 C 
ATOM     21  C   UNL     1      45.179   1.831   8.845  0.00  0.00    +0.000 C 
ENDBRANCH  15  16
ENDBRANCH  13  15
ENDBRANCH   1  13
TORSDOF 4
ENDMDL
MODEL 7
REMARK VINA RESULT:    -5.656      4.034      5.623
REMARK INTER + INTRA:          -7.309
REMARK INTER:                  -6.784
REMARK INTRA:                  -0.526
REMARK UNBOUND:                -0.331
REMARK  Name = 
REMARK  5 active torsions:
REMARK  status: ('A' for Active; 'I' for Inactive)
REMARK    1  A    between atoms: C_1  and  C_2
REMARK    2  A    between atoms: C_2  and  O_3
REMARK    3  A    between atoms: C_2  and  C_14
REMARK    4  A    between atoms: O_3  and  C_4
REMARK    5  A    between atoms: C_7  and  C_8
REMARK                            x       y       z     vdW  Elec       q    Type
REMARK                         _______ _______ _______ _____ _____    ______ ____
ROOT
ATOM      1  C   UNL     1      47.089   5.514  12.839  0.00  0.00    +0.000 A 
ATOM      2  N   UNL     1      46.581   5.988  11.674  0.00  0.00    +0.000 NA
ATOM      3  C   UNL     1      45.321   5.577  11.374  0.00  0.00    +0.000 A 
ATOM      4  C   UNL     1      44.614   4.699  12.184  0.00  0.00    +0.000 A 
ATOM      5  N   UNL     1      45.116   4.197  13.345  0.00  0.00    +0.000 NA
ATOM      6  C   UNL     1      46.358   4.642  13.654  0.00  0.00    +0.000 A 
ATOM      7 CL   UNL     1      46.951   4.042  15.151  0.00  0.00    +0.000 Cl
ENDROOT
BRANCH   4   8
ATOM      8  C   UNL     1      43.236   4.283  11.805  0.00  0.00    +0.000 C 
ATOM      9  N   UNL     1      42.271   5.236  11.943  0.00  0.00    +0.000 N 
ATOM     10  O   UNL     1      42.989   3.152  11.401  0.00  0.00    +0.000 OA
ATOM     11  H   UNL     1      42.509   6.160  12.286  0.00  0.00    +0.000 HD
ATOM     12  H   UNL     1      41.315   5.020  11.697  0.00  0.00    +0.000 HD
ENDBRANCH   4   8
BRANCH   1  13
ATOM     13  O   UNL     1      48.316   5.962  13.269  0.00  0.00    +0.000 OA
BRANCH  13  15
ATOM     14  C   UNL     1      49.586   7.576  12.108  0.00  0.00    +0.000 C 
ATOM     15  C   UNL     1      48.531   7.385  13.206  0.00  0.00    +0.000 C 
BRANCH  15  16
ATOM     16  C   UNL     1      48.966   7.962  14.584  0.00  0.00    +0.000 C 
ATOM     17  C   UNL     1      49.240   6.846  15.609  0.00  0.00    +0.000 C 
ATOM     18  C   UNL     1      49.624   7.393  16.981  0.00  0.00    +0.000 C 
ATOM     19  C   UNL     1      48.571   8.371  17.491  0.00  0.00    +0.000 C 
ATOM     20  C   UNL     1      48.387   9.524  16.511  0.00  0.00    +0.000 C 
ATOM     21  C   UNL     1      47.985   9.019  15.126  0.00  0.00    +0.000 C 
ENDBRANCH  15  16
ENDBRANCH  13  15
ENDBRANCH   1  13
TORSDOF 4
ENDMDL
MODEL 8
REMARK VINA RESULT:    -5.617      3.854      5.605
REMARK INTER + INTRA:          -7.261
REMARK INTER:                  -6.591
REMARK INTRA:                  -0.670
REMARK UNBOUND:                -0.331
REMARK  Name = 
REMARK  5 active torsions:
REMARK  status: ('A' for Active; 'I' for Inactive)
REMARK    1  A    between atoms: C_1  and  C_2
REMARK    2  A    between atoms: C_2  and  O_3
REMARK    3  A    between atoms: C_2  and  C_14
REMARK    4  A    between atoms: O_3  and  C_4
REMARK    5  A    between atoms: C_7  and  C_8
REMARK                            x       y       z     vdW  Elec       q    Type
REMARK                         _______ _______ _______ _____ _____    ______ ____
ROOT
ATOM      1  C   UNL     1      46.531   6.342  13.227  0.00  0.00    +0.000 A 
ATOM      2  N   UNL     1      46.784   5.047  13.541  0.00  0.00    +0.000 NA
ATOM      3  C   UNL     1      45.897   4.142  13.052  0.00  0.00    +0.000 A 
ATOM      4  C   UNL     1      44.782   4.518  12.315  0.00  0.00    +0.000 A 
ATOM      5  N   UNL     1      44.501   5.814  12.010  0.00  0.00    +0.000 NA
ATOM      6  C   UNL     1      45.412   6.706  12.470  0.00  0.00    +0.000 A 
ATOM      7 CL   UNL     1      45.069   8.330  12.025  0.00  0.00    +0.000 Cl
ENDROOT
BRANCH   4   8
ATOM      8  C   UNL     1      43.842   3.482  11.805  0.00  0.00    +0.000 C 
ATOM      9  N   UNL     1      43.738   2.353  12.563  0.00  0.00    +0.000 N 
ATOM     10  O   UNL     1      43.210   3.637  10.767  0.00  0.00    +0.000 OA
ATOM     11  H   UNL     1      44.281   2.256  13.415  0.00  0.00    +0.000 HD
ATOM     12  H   UNL     1      43.113   1.614  12.277  0.00  0.00    +0.000 HD
ENDBRANCH   4   8
BRANCH   1  13
ATOM     13  O   UNL     1      47.435   7.312  13.594  0.00  0.00    +0.000 OA
BRANCH  13  15
ATOM     14  C   UNL     1      49.629   7.259  14.460  0.00  0.00    +0.000 C 
ATOM     15  C   UNL     1      48.798   7.098  13.180  0.00  0.00    +0.000 C 
BRANCH  15  16
ATOM     16  C   UNL     1      49.215   8.081  12.048  0.00  0.00    +0.000 C 
ATOM     17  C   UNL     1      50.747   8.209  11.939  0.00  0.00    +0.000 C 
ATOM     18  C   UNL     1      51.177   9.203  10.865  0.00  0.00    +0.000 C 
ATOM     19  C   UNL     1      50.519  10.561  11.085  0.00  0.00    +0.000 C 
ATOM     20  C   UNL     1      49.000  10.430  11.087  0.00  0.00    +0.000 C 
ATOM     21  C   UNL     1      48.527   9.454  12.162  0.00  0.00    +0.000 C 
ENDBRANCH  15  16
ENDBRANCH  13  15
ENDBRANCH   1  13
TORSDOF 4
ENDMDL
MODEL 9
REMARK VINA RESULT:    -5.545      5.781      7.607
REMARK INTER + INTRA:          -7.173
REMARK INTER:                  -6.400
REMARK INTRA:                  -0.772
REMARK UNBOUND:                -0.331
REMARK  Name = 
REMARK  5 active torsions:
REMARK  status: ('A' for Active; 'I' for Inactive)
REMARK    1  A    between atoms: C_1  and  C_2
REMARK    2  A    between atoms: C_2  and  O_3
REMARK    3  A    between atoms: C_2  and  C_14
REMARK    4  A    between atoms: O_3  and  C_4
REMARK    5  A    between atoms: C_7  and  C_8
REMARK                            x       y       z     vdW  Elec       q    Type
REMARK                         _______ _______ _______ _____ _____    ______ ____
ROOT
ATOM      1  C   UNL     1      48.285   5.440  15.422  0.00  0.00    +0.000 A 
ATOM      2  N   UNL     1      48.257   6.109  14.242  0.00  0.00    +0.000 NA
ATOM      3  C   UNL     1      47.306   5.703  13.361  0.00  0.00    +0.000 A 
ATOM      4  C   UNL     1      46.444   4.649  13.632  0.00  0.00    +0.000 A 
ATOM      5  N   UNL     1      46.471   3.953  14.801  0.00  0.00    +0.000 NA
ATOM      6  C   UNL     1      47.399   4.390  15.688  0.00  0.00    +0.000 A 
ATOM      7 CL   UNL     1      47.379   3.537  17.179  0.00  0.00    +0.000 Cl
ENDROOT
BRANCH   4   8
ATOM      8  C   UNL     1      45.421   4.248  12.628  0.00  0.00    +0.000 C 
ATOM      9  N   UNL     1      45.168   2.910  12.544  0.00  0.00    +0.000 N 
ATOM     10  O   UNL     1      44.849   5.070  11.921  0.00  0.00    +0.000 OA
ATOM     11  H   UNL     1      45.663   2.257  13.141  0.00  0.00    +0.000 HD
ATOM     12  H   UNL     1      44.479   2.572  11.887  0.00  0.00    +0.000 HD
ENDBRANCH   4   8
BRANCH   1  13
ATOM     13  O   UNL     1      49.148   5.855  16.410  0.00  0.00    +0.000 OA
BRANCH  13  15
ATOM     14  C   UNL     1      49.534   8.146  16.819  0.00  0.00    +0.000 C 
ATOM     15  C   UNL     1      48.688   6.937  17.241  0.00  0.00    +0.000 C 
BRANCH  15  16
ATOM     16  C   UNL     1      48.816   6.595  18.754  0.00  0.00    +0.000 C 
ATOM     17  C   UNL     1      49.840   5.470  18.999  0.00  0.00    +0.000 C 
ATOM     18  C   UNL     1      49.948   5.088  20.472  0.00  0.00    +0.000 C 
ATOM     19  C   UNL     1      48.579   4.730  21.043  0.00  0.00    +0.000 C 
ATOM     20  C   UNL     1      47.608   5.893  20.883  0.00  0.00    +0.000 C 
ATOM     21  C   UNL     1      47.459   6.297  19.417  0.00  0.00    +0.000 C 
ENDBRANCH  15  16
ENDBRANCH  13  15
ENDBRANCH   1  13
TORSDOF 4
ENDMDL
