MODEL 1
REMARK VINA RESULT:    -7.888      0.000      0.000
REMARK INTER + INTRA:          -9.968
REMARK INTER:                  -9.732
REMARK INTRA:                  -0.236
REMARK UNBOUND:                -0.236
REMARK  Name = 
REMARK  5 active torsions:
REMARK  status: ('A' for Active; 'I' for Inactive)
REMARK    1  A    between atoms: C_1  and  C_2
REMARK    2  A    between atoms: N_5  and  C_6
REMARK    3  A    between atoms: C_6  and  C_7
REMARK    4  A    between atoms: C_11  and  C_12
REMARK    5  A    between atoms: C_20  and  C_21
REMARK                            x       y       z     vdW  Elec       q    Type
REMARK                         _______ _______ _______ _____ _____    ______ ____
ROOT
ATOM      1  C   UNL     1      47.139   4.757  14.993  0.00  0.00    +0.000 C 
ATOM      2  C   UNL     1      47.255   5.663  13.806  0.00  0.00    +0.000 A 
ATOM      3  N   UNL     1      46.164   5.858  13.043  0.00  0.00    +0.000 NA
ATOM      4  C   UNL     1      46.282   6.667  11.979  0.00  0.00    +0.000 A 
ATOM      5  N   UNL     1      45.175   6.949  11.160  0.00  0.00    +0.000 N 
ATOM      6  C   UNL     1      47.473   7.299  11.687  0.00  0.00    +0.000 A 
ATOM      7  C   UNL     1      48.553   7.061  12.519  0.00  0.00    +0.000 A 
ATOM      8  N   UNL     1      48.453   6.229  13.586  0.00  0.00    +0.000 NA
ATOM      9  H   UNL     1      45.410   6.800  10.184  0.00  0.00    +0.000 HD
ENDROOT
BRANCH   7  10
ATOM     10  C   UNL     1      49.880   7.748  12.251  0.00  0.00    +0.000 C 
ATOM     11  F   UNL     1      50.607   7.150  11.260  0.00  0.00    +0.000 F 
ATOM     12  F   UNL     1      49.743   9.048  11.864  0.00  0.00    +0.000 F 
ATOM     13  F   UNL     1      50.702   7.764  13.339  0.00  0.00    +0.000 F 
ENDBRANCH   7  10
BRANCH   5  14
ATOM     14  C   UNL     1      43.943   6.268  11.531  0.00  0.00    +0.000 C 
BRANCH  14  15
ATOM     15  C   UNL     1      44.032   4.805  11.148  0.00  0.00    +0.000 A 
ATOM     16  C   UNL     1      43.267   3.846  11.823  0.00  0.00    +0.000 A 
ATOM     17  C   UNL     1      43.320   2.506  11.441  0.00  0.00    +0.000 A 
ATOM     18  C   UNL     1      44.123   2.115  10.366  0.00  0.00    +0.000 A 
ATOM     19  C   UNL     1      44.892   3.049   9.649  0.00  0.00    +0.000 A 
ATOM     20  C   UNL     1      44.863   4.389  10.091  0.00  0.00    +0.000 A 
BRANCH  19  21
ATOM     21  C   UNL     1      45.651   2.668   8.440  0.00  0.00    +0.000 A 
ATOM     22  C   UNL     1      45.910   3.562   7.397  0.00  0.00    +0.000 A 
ATOM     23  N   UNL     1      46.663   3.257   6.308  0.00  0.00    +0.000 NA
ATOM     24  C   UNL     1      47.166   2.006   6.298  0.00  0.00    +0.000 A 
ATOM     25  C   UNL     1      46.921   1.104   7.317  0.00  0.00    +0.000 A 
ATOM     26  N   UNL     1      46.169   1.411   8.402  0.00  0.00    +0.000 NA
ENDBRANCH  19  21
ENDBRANCH  14  15
ENDBRANCH   5  14
TORSDOF 4
ENDMDL
MODEL 2
REMARK VINA RESULT:    -7.388      3.353      7.255
REMARK INTER + INTRA:          -9.351
REMARK INTER:                  -8.654
REMARK INTRA:                  -0.697
REMARK UNBOUND:                -0.236
REMARK  Name = 
REMARK  5 active torsions:
REMARK  status: ('A' for Active; 'I' for Inactive)
REMARK    1  A    between atoms: C_1  and  C_2
REMARK    2  A    between atoms: N_5  and  C_6
REMARK    3  A    between atoms: C_6  and  C_7
REMARK    4  A    between atoms: C_11  and  C_12
REMARK    5  A    between atoms: C_20  and  C_21
REMARK                            x       y       z     vdW  Elec       q    Type
REMARK                         _______ _______ _______ _____ _____    ______ ____
ROOT
ATOM      1  C   UNL     1      43.443   2.883  12.113  0.00  0.00    +0.000 C 
ATOM      2  C   UNL     1      44.264   3.684  11.151  0.00  0.00    +0.000 A 
ATOM      3  N   UNL     1      44.705   4.894  11.543  0.00  0.00    +0.000 NA
ATOM      4  C   UNL     1      45.435   5.606  10.671  0.00  0.00    +0.000 A 
ATOM      5  N   UNL     1      45.963   6.860  11.024  0.00  0.00    +0.000 N 
ATOM      6  C   UNL     1      45.746   5.108   9.421  0.00  0.00    +0.000 A 
ATOM      7  C   UNL     1      45.267   3.853   9.087  0.00  0.00    +0.000 A 
ATOM      8  N   UNL     1      44.511   3.132   9.952  0.00  0.00    +0.000 NA
ATOM      9  H   UNL     1      45.737   7.551  10.316  0.00  0.00    +0.000 HD
ENDROOT
BRANCH   7  10
ATOM     10  C   UNL     1      45.598   3.254   7.732  0.00  0.00    +0.000 C 
ATOM     11  F   UNL     1      46.563   3.948   7.056  0.00  0.00    +0.000 F 
ATOM     12  F   UNL     1      46.061   1.974   7.810  0.00  0.00    +0.000 F 
ATOM     13  F   UNL     1      44.527   3.216   6.890  0.00  0.00    +0.000 F 
ENDBRANCH   7  10
BRANCH   5  14
ATOM     14  C   UNL     1      45.616   7.320  12.361  0.00  0.00    +0.000 C 
BRANCH  14  15
ATOM     15  C   UNL     1      46.835   7.250  13.258  0.00  0.00    +0.000 A 
ATOM     16  C   UNL     1      47.778   8.285  13.256  0.00  0.00    +0.000 A 
ATOM     17  C   UNL     1      48.878   8.236  14.111  0.00  0.00    +0.000 A 
ATOM     18  C   UNL     1      49.033   7.163  14.994  0.00  0.00    +0.000 A 
ATOM     19  C   UNL     1      48.099   6.113  15.040  0.00  0.00    +0.000 A 
ATOM     20  C   UNL     1      47.026   6.159  14.126  0.00  0.00    +0.000 A 
BRANCH  19  21
ATOM     21  C   UNL     1      48.189   5.036  16.048  0.00  0.00    +0.000 A 
ATOM     22  C   UNL     1      47.134   4.157  16.311  0.00  0.00    +0.000 A 
ATOM     23  N   UNL     1      47.215   3.117  17.180  0.00  0.00    +0.000 NA
ATOM     24  C   UNL     1      48.412   2.975  17.787  0.00  0.00    +0.000 A 
ATOM     25  C   UNL     1      49.468   3.834  17.544  0.00  0.00    +0.000 A 
ATOM     26  N   UNL     1      49.384   4.871  16.676  0.00  0.00    +0.000 NA
ENDBRANCH  19  21
ENDBRANCH  14  15
ENDBRANCH   5  14
TORSDOF 4
ENDMDL
MODEL 3
REMARK VINA RESULT:    -7.358      3.276      4.174
REMARK INTER + INTRA:          -9.314
REMARK INTER:                  -8.874
REMARK INTRA:                  -0.441
REMARK UNBOUND:                -0.236
REMARK  Name = 
REMARK  5 active torsions:
REMARK  status: ('A' for Active; 'I' for Inactive)
REMARK    1  A    between atoms: C_1  and  C_2
REMARK    2  A    between atoms: N_5  and  C_6
REMARK    3  A    between atoms: C_6  and  C_7
REMARK    4  A    between atoms: C_11  and  C_12
REMARK    5  A    between atoms: C_20  and  C_21
REMARK                            x       y       z     vdW  Elec       q    Type
REMARK                         _______ _______ _______ _____ _____    ______ ____
ROOT
ATOM      1  C   UNL     1      50.261   7.510  15.559  0.00  0.00    +0.000 C 
ATOM      2  C   UNL     1      49.415   6.310  15.852  0.00  0.00    +0.000 A 
ATOM      3  N   UNL     1      48.286   6.137  15.140  0.00  0.00    +0.000 NA
ATOM      4  C   UNL     1      47.532   5.062  15.415  0.00  0.00    +0.000 A 
ATOM      5  N   UNL     1      46.360   4.795  14.686  0.00  0.00    +0.000 N 
ATOM      6  C   UNL     1      47.909   4.149  16.380  0.00  0.00    +0.000 A 
ATOM      7  C   UNL     1      49.086   4.384  17.068  0.00  0.00    +0.000 A 
ATOM      8  N   UNL     1      49.847   5.478  16.813  0.00  0.00    +0.000 NA
ATOM      9  H   UNL     1      45.583   4.622  15.315  0.00  0.00    +0.000 HD
ENDROOT
BRANCH   7  10
ATOM     10  C   UNL     1      49.554   3.400  18.124  0.00  0.00    +0.000 C 
ATOM     11  F   UNL     1      50.219   2.324  17.605  0.00  0.00    +0.000 F 
ATOM     12  F   UNL     1      50.411   3.951  19.031  0.00  0.00    +0.000 F 
ATOM     13  F   UNL     1      48.528   2.870  18.851  0.00  0.00    +0.000 F 
ENDBRANCH   7  10
BRANCH   5  14
ATOM     14  C   UNL     1      46.027   5.783  13.670  0.00  0.00    +0.000 C 
BRANCH  14  15
ATOM     15  C   UNL     1      45.094   5.170  12.646  0.00  0.00    +0.000 A 
ATOM     16  C   UNL     1      43.706   5.268  12.802  0.00  0.00    +0.000 A 
ATOM     17  C   UNL     1      42.851   4.737  11.837  0.00  0.00    +0.000 A 
ATOM     18  C   UNL     1      43.375   4.123  10.696  0.00  0.00    +0.000 A 
ATOM     19  C   UNL     1      44.762   4.020  10.493  0.00  0.00    +0.000 A 
ATOM     20  C   UNL     1      45.605   4.515  11.510  0.00  0.00    +0.000 A 
BRANCH  19  21
ATOM     21  C   UNL     1      45.327   3.480   9.239  0.00  0.00    +0.000 A 
ATOM     22  C   UNL     1      45.735   4.296   8.180  0.00  0.00    +0.000 A 
ATOM     23  N   UNL     1      46.321   3.830   7.047  0.00  0.00    +0.000 NA
ATOM     24  C   UNL     1      46.495   2.493   7.006  0.00  0.00    +0.000 A 
ATOM     25  C   UNL     1      46.096   1.666   8.040  0.00  0.00    +0.000 A 
ATOM     26  N   UNL     1      45.512   2.134   9.170  0.00  0.00    +0.000 NA
ENDBRANCH  19  21
ENDBRANCH  14  15
ENDBRANCH   5  14
TORSDOF 4
ENDMDL
MODEL 4
REMARK VINA RESULT:    -7.235      1.735      2.461
REMARK INTER + INTRA:          -9.162
REMARK INTER:                  -8.491
REMARK INTRA:                  -0.671
REMARK UNBOUND:                -0.236
REMARK  Name = 
REMARK  5 active torsions:
REMARK  status: ('A' for Active; 'I' for Inactive)
REMARK    1  A    between atoms: C_1  and  C_2
REMARK    2  A    between atoms: N_5  and  C_6
REMARK    3  A    between atoms: C_6  and  C_7
REMARK    4  A    between atoms: C_11  and  C_12
REMARK    5  A    between atoms: C_20  and  C_21
REMARK                            x       y       z     vdW  Elec       q    Type
REMARK                         _______ _______ _______ _____ _____    ______ ____
ROOT
ATOM      1  C   UNL     1      44.512  10.578  11.715  0.00  0.00    +0.000 C 
ATOM      2  C   UNL     1      45.643   9.642  12.008  0.00  0.00    +0.000 A 
ATOM      3  N   UNL     1      45.348   8.384  12.385  0.00  0.00    +0.000 NA
ATOM      4  C   UNL     1      46.370   7.555  12.651  0.00  0.00    +0.000 A 
ATOM      5  N   UNL     1      46.139   6.216  13.012  0.00  0.00    +0.000 N 
ATOM      6  C   UNL     1      47.681   7.968  12.522  0.00  0.00    +0.000 A 
ATOM      7  C   UNL     1      47.911   9.273  12.122  0.00  0.00    +0.000 A 
ATOM      8  N   UNL     1      46.888  10.126  11.869  0.00  0.00    +0.000 NA
ATOM      9  H   UNL     1      46.655   5.982  13.853  0.00  0.00    +0.000 HD
ENDROOT
BRANCH   7  10
ATOM     10  C   UNL     1      49.335   9.769  11.946  0.00  0.00    +0.000 C 
ATOM     11  F   UNL     1      49.482  10.633  10.897  0.00  0.00    +0.000 F 
ATOM     12  F   UNL     1      49.808  10.439  13.035  0.00  0.00    +0.000 F 
ATOM     13  F   UNL     1      50.225   8.762  11.709  0.00  0.00    +0.000 F 
ENDBRANCH   7  10
BRANCH   5  14
ATOM     14  C   UNL     1      44.737   5.837  13.112  0.00  0.00    +0.000 C 
BRANCH  14  15
ATOM     15  C   UNL     1      44.480   4.604  12.271  0.00  0.00    +0.000 A 
ATOM     16  C   UNL     1      43.501   3.677  12.650  0.00  0.00    +0.000 A 
ATOM     17  C   UNL     1      43.239   2.564  11.853  0.00  0.00    +0.000 A 
ATOM     18  C   UNL     1      43.937   2.378  10.656  0.00  0.00    +0.000 A 
ATOM     19  C   UNL     1      44.914   3.295  10.229  0.00  0.00    +0.000 A 
ATOM     20  C   UNL     1      45.200   4.383  11.081  0.00  0.00    +0.000 A 
BRANCH  19  21
ATOM     21  C   UNL     1      45.574   3.172   8.913  0.00  0.00    +0.000 A 
ATOM     22  C   UNL     1      45.821   4.272   8.086  0.00  0.00    +0.000 A 
ATOM     23  N   UNL     1      46.487   4.196   6.905  0.00  0.00    +0.000 NA
ATOM     24  C   UNL     1      46.913   2.960   6.571  0.00  0.00    +0.000 A 
ATOM     25  C   UNL     1      46.677   1.858   7.372  0.00  0.00    +0.000 A 
ATOM     26  N   UNL     1      46.012   1.936   8.551  0.00  0.00    +0.000 NA
ENDBRANCH  19  21
ENDBRANCH  14  15
ENDBRANCH   5  14
TORSDOF 4
ENDMDL
MODEL 5
REMARK VINA RESULT:    -7.199      2.050      3.039
REMARK INTER + INTRA:          -9.118
REMARK INTER:                  -8.500
REMARK INTRA:                  -0.618
REMARK UNBOUND:                -0.236
REMARK  Name = 
REMARK  5 active torsions:
REMARK  status: ('A' for Active; 'I' for Inactive)
REMARK    1  A    between atoms: C_1  and  C_2
REMARK    2  A    between atoms: N_5  and  C_6
REMARK    3  A    between atoms: C_6  and  C_7
REMARK    4  A    between atoms: C_11  and  C_12
REMARK    5  A    between atoms: C_20  and  C_21
REMARK                            x       y       z     vdW  Elec       q    Type
REMARK                         _______ _______ _______ _____ _____    ______ ____
ROOT
ATOM      1  C   UNL     1      50.425   8.447  11.311  0.00  0.00    +0.000 C 
ATOM      2  C   UNL     1      49.601   8.000  12.478  0.00  0.00    +0.000 A 
ATOM      3  N   UNL     1      48.270   7.881  12.310  0.00  0.00    +0.000 NA
ATOM      4  C   UNL     1      47.541   7.486  13.365  0.00  0.00    +0.000 A 
ATOM      5  N   UNL     1      46.151   7.301  13.253  0.00  0.00    +0.000 N 
ATOM      6  C   UNL     1      48.132   7.187  14.576  0.00  0.00    +0.000 A 
ATOM      7  C   UNL     1      49.506   7.323  14.675  0.00  0.00    +0.000 A 
ATOM      8  N   UNL     1      50.253   7.741  13.624  0.00  0.00    +0.000 NA
ATOM      9  H   UNL     1      45.668   7.791  13.999  0.00  0.00    +0.000 HD
ENDROOT
BRANCH   7  10
ATOM     10  C   UNL     1      50.205   6.988  15.980  0.00  0.00    +0.000 C 
ATOM     11  F   UNL     1      50.383   8.073  16.792  0.00  0.00    +0.000 F 
ATOM     12  F   UNL     1      49.525   6.080  16.736  0.00  0.00    +0.000 F 
ATOM     13  F   UNL     1      51.453   6.468  15.799  0.00  0.00    +0.000 F 
ENDBRANCH   7  10
BRANCH   5  14
ATOM     14  C   UNL     1      45.591   7.613  11.947  0.00  0.00    +0.000 C 
BRANCH  14  15
ATOM     15  C   UNL     1      44.911   6.386  11.376  0.00  0.00    +0.000 A 
ATOM     16  C   UNL     1      43.578   6.100  11.692  0.00  0.00    +0.000 A 
ATOM     17  C   UNL     1      42.943   4.992  11.133  0.00  0.00    +0.000 A 
ATOM     18  C   UNL     1      43.629   4.171  10.234  0.00  0.00    +0.000 A 
ATOM     19  C   UNL     1      44.963   4.433   9.875  0.00  0.00    +0.000 A 
ATOM     20  C   UNL     1      45.599   5.528  10.497  0.00  0.00    +0.000 A 
BRANCH  19  21
ATOM     21  C   UNL     1      45.660   3.643   8.838  0.00  0.00    +0.000 A 
ATOM     22  C   UNL     1      45.707   2.246   8.857  0.00  0.00    +0.000 A 
ATOM     23  N   UNL     1      46.280   1.495   7.882  0.00  0.00    +0.000 NA
ATOM     24  C   UNL     1      46.810   2.199   6.860  0.00  0.00    +0.000 A 
ATOM     25  C   UNL     1      46.777   3.581   6.822  0.00  0.00    +0.000 A 
ATOM     26  N   UNL     1      46.205   4.328   7.797  0.00  0.00    +0.000 NA
ENDBRANCH  19  21
ENDBRANCH  14  15
ENDBRANCH   5  14
TORSDOF 4
ENDMDL
MODEL 6
REMARK VINA RESULT:    -7.048      4.094      6.203
REMARK INTER + INTRA:          -8.931
REMARK INTER:                  -8.274
REMARK INTRA:                  -0.658
REMARK UNBOUND:                -0.236
REMARK  Name = 
REMARK  5 active torsions:
REMARK  status: ('A' for Active; 'I' for Inactive)
REMARK    1  A    between atoms: C_1  and  C_2
REMARK    2  A    between atoms: N_5  and  C_6
REMARK    3  A    between atoms: C_6  and  C_7
REMARK    4  A    between atoms: C_11  and  C_12
REMARK    5  A    between atoms: C_20  and  C_21
REMARK                            x       y       z     vdW  Elec       q    Type
REMARK                         _______ _______ _______ _____ _____    ______ ____
ROOT
ATOM      1  C   UNL     1      48.597   2.520  16.578  0.00  0.00    +0.000 C 
ATOM      2  C   UNL     1      48.581   3.919  17.113  0.00  0.00    +0.000 A 
ATOM      3  N   UNL     1      48.694   4.937  16.240  0.00  0.00    +0.000 NA
ATOM      4  C   UNL     1      48.684   6.185  16.733  0.00  0.00    +0.000 A 
ATOM      5  N   UNL     1      48.758   7.299  15.878  0.00  0.00    +0.000 N 
ATOM      6  C   UNL     1      48.540   6.423  18.085  0.00  0.00    +0.000 A 
ATOM      7  C   UNL     1      48.420   5.329  18.924  0.00  0.00    +0.000 A 
ATOM      8  N   UNL     1      48.449   4.062  18.442  0.00  0.00    +0.000 NA
ATOM      9  H   UNL     1      49.481   7.939  16.191  0.00  0.00    +0.000 HD
ENDROOT
BRANCH   7  10
ATOM     10  C   UNL     1      48.239   5.539  20.417  0.00  0.00    +0.000 C 
ATOM     11  F   UNL     1      48.314   4.380  21.138  0.00  0.00    +0.000 F 
ATOM     12  F   UNL     1      49.179   6.364  20.960  0.00  0.00    +0.000 F 
ATOM     13  F   UNL     1      47.031   6.083  20.737  0.00  0.00    +0.000 F 
ENDBRANCH   7  10
BRANCH   5  14
ATOM     14  C   UNL     1      48.888   6.983  14.463  0.00  0.00    +0.000 C 
BRANCH  14  15
ATOM     15  C   UNL     1      47.549   7.150  13.776  0.00  0.00    +0.000 A 
ATOM     16  C   UNL     1      47.051   8.428  13.491  0.00  0.00    +0.000 A 
ATOM     17  C   UNL     1      45.836   8.577  12.823  0.00  0.00    +0.000 A 
ATOM     18  C   UNL     1      45.119   7.451  12.412  0.00  0.00    +0.000 A 
ATOM     19  C   UNL     1      45.592   6.150  12.662  0.00  0.00    +0.000 A 
ATOM     20  C   UNL     1      46.795   6.026  13.388  0.00  0.00    +0.000 A 
BRANCH  19  21
ATOM     21  C   UNL     1      44.903   4.956  12.131  0.00  0.00    +0.000 A 
ATOM     22  C   UNL     1      44.377   3.957  12.956  0.00  0.00    +0.000 A 
ATOM     23  N   UNL     1      43.679   2.887  12.497  0.00  0.00    +0.000 NA
ATOM     24  C   UNL     1      43.513   2.847  11.159  0.00  0.00    +0.000 A 
ATOM     25  C   UNL     1      44.027   3.822  10.323  0.00  0.00    +0.000 A 
ATOM     26  N   UNL     1      44.724   4.890  10.784  0.00  0.00    +0.000 NA
ENDBRANCH  19  21
ENDBRANCH  14  15
ENDBRANCH   5  14
TORSDOF 4
ENDMDL
MODEL 7
REMARK VINA RESULT:    -6.840      2.440      3.310
REMARK INTER + INTRA:          -8.676
REMARK INTER:                  -8.124
REMARK INTRA:                  -0.551
REMARK UNBOUND:                -0.236
REMARK  Name = 
REMARK  5 active torsions:
REMARK  status: ('A' for Active; 'I' for Inactive)
REMARK    1  A    between atoms: C_1  and  C_2
REMARK    2  A    between atoms: N_5  and  C_6
REMARK    3  A    between atoms: C_6  and  C_7
REMARK    4  A    between atoms: C_11  and  C_12
REMARK    5  A    between atoms: C_20  and  C_21
REMARK                            x       y       z     vdW  Elec       q    Type
REMARK                         _______ _______ _______ _____ _____    ______ ____
ROOT
ATOM      1  C   UNL     1      49.116   7.316  12.808  0.00  0.00    +0.000 C 
ATOM      2  C   UNL     1      48.250   6.386  13.602  0.00  0.00    +0.000 A 
ATOM      3  N   UNL     1      47.113   5.938  13.039  0.00  0.00    +0.000 NA
ATOM      4  C   UNL     1      46.343   5.110  13.762  0.00  0.00    +0.000 A 
ATOM      5  N   UNL     1      45.161   4.570  13.225  0.00  0.00    +0.000 N 
ATOM      6  C   UNL     1      46.711   4.711  15.031  0.00  0.00    +0.000 A 
ATOM      7  C   UNL     1      47.898   5.205  15.545  0.00  0.00    +0.000 A 
ATOM      8  N   UNL     1      48.676   6.058  14.833  0.00  0.00    +0.000 NA
ATOM      9  H   UNL     1      44.386   4.708  13.865  0.00  0.00    +0.000 HD
ENDROOT
BRANCH   7  10
ATOM     10  C   UNL     1      48.356   4.781  16.928  0.00  0.00    +0.000 C 
ATOM     11  F   UNL     1      48.246   3.435  17.145  0.00  0.00    +0.000 F 
ATOM     12  F   UNL     1      49.663   5.081  17.176  0.00  0.00    +0.000 F 
ATOM     13  F   UNL     1      47.639   5.365  17.930  0.00  0.00    +0.000 F 
ENDBRANCH   7  10
BRANCH   5  14
ATOM     14  C   UNL     1      44.837   5.013  11.877  0.00  0.00    +0.000 C 
BRANCH  14  15
ATOM     15  C   UNL     1      44.738   3.815  10.955  0.00  0.00    +0.000 A 
ATOM     16  C   UNL     1      43.751   2.843  11.156  0.00  0.00    +0.000 A 
ATOM     17  C   UNL     1      43.637   1.763  10.283  0.00  0.00    +0.000 A 
ATOM     18  C   UNL     1      44.496   1.655   9.185  0.00  0.00    +0.000 A 
ATOM     19  C   UNL     1      45.489   2.619   8.936  0.00  0.00    +0.000 A 
ATOM     20  C   UNL     1      45.619   3.672   9.866  0.00  0.00    +0.000 A 
BRANCH  19  21
ATOM     21  C   UNL     1      46.324   2.579   7.717  0.00  0.00    +0.000 A 
ATOM     22  C   UNL     1      47.164   1.505   7.411  0.00  0.00    +0.000 A 
ATOM     23  N   UNL     1      47.887   1.412   6.265  0.00  0.00    +0.000 NA
ATOM     24  C   UNL     1      47.736   2.446   5.413  0.00  0.00    +0.000 A 
ATOM     25  C   UNL     1      46.912   3.521   5.696  0.00  0.00    +0.000 A 
ATOM     26  N   UNL     1      46.192   3.611   6.840  0.00  0.00    +0.000 NA
ENDBRANCH  19  21
ENDBRANCH  14  15
ENDBRANCH   5  14
TORSDOF 4
ENDMDL
MODEL 8
REMARK VINA RESULT:    -6.702      4.481      8.878
REMARK INTER + INTRA:          -8.505
REMARK INTER:                  -8.017
REMARK INTRA:                  -0.487
REMARK UNBOUND:                -0.236
REMARK  Name = 
REMARK  5 active torsions:
REMARK  status: ('A' for Active; 'I' for Inactive)
REMARK    1  A    between atoms: C_1  and  C_2
REMARK    2  A    between atoms: N_5  and  C_6
REMARK    3  A    between atoms: C_6  and  C_7
REMARK    4  A    between atoms: C_11  and  C_12
REMARK    5  A    between atoms: C_20  and  C_21
REMARK                            x       y       z     vdW  Elec       q    Type
REMARK                         _______ _______ _______ _____ _____    ______ ____
ROOT
ATOM      1  C   UNL     1      42.292   5.554  11.994  0.00  0.00    +0.000 C 
ATOM      2  C   UNL     1      43.515   4.721  11.761  0.00  0.00    +0.000 A 
ATOM      3  N   UNL     1      44.457   4.691  12.722  0.00  0.00    +0.000 NA
ATOM      4  C   UNL     1      45.552   3.946  12.499  0.00  0.00    +0.000 A 
ATOM      5  N   UNL     1      46.559   3.834  13.473  0.00  0.00    +0.000 N 
ATOM      6  C   UNL     1      45.699   3.216  11.337  0.00  0.00    +0.000 A 
ATOM      7  C   UNL     1      44.687   3.287  10.396  0.00  0.00    +0.000 A 
ATOM      8  N   UNL     1      43.585   4.051  10.599  0.00  0.00    +0.000 NA
ATOM      9  H   UNL     1      47.469   4.023  13.065  0.00  0.00    +0.000 HD
ENDROOT
BRANCH   7  10
ATOM     10  C   UNL     1      44.793   2.487   9.110  0.00  0.00    +0.000 C 
ATOM     11  F   UNL     1      44.065   1.330   9.131  0.00  0.00    +0.000 F 
ATOM     12  F   UNL     1      44.355   3.170   8.015  0.00  0.00    +0.000 F 
ATOM     13  F   UNL     1      46.070   2.101   8.826  0.00  0.00    +0.000 F 
ENDBRANCH   7  10
BRANCH   5  14
ATOM     14  C   UNL     1      46.336   4.612  14.683  0.00  0.00    +0.000 C 
BRANCH  14  15
ATOM     15  C   UNL     1      47.223   4.091  15.796  0.00  0.00    +0.000 A 
ATOM     16  C   UNL     1      47.887   2.866  15.661  0.00  0.00    +0.000 A 
ATOM     17  C   UNL     1      48.733   2.408  16.670  0.00  0.00    +0.000 A 
ATOM     18  C   UNL     1      48.942   3.183  17.815  0.00  0.00    +0.000 A 
ATOM     19  C   UNL     1      48.309   4.427  17.982  0.00  0.00    +0.000 A 
ATOM     20  C   UNL     1      47.415   4.841  16.972  0.00  0.00    +0.000 A 
BRANCH  19  21
ATOM     21  C   UNL     1      48.612   5.306  19.130  0.00  0.00    +0.000 A 
ATOM     22  C   UNL     1      49.879   5.376  19.715  0.00  0.00    +0.000 A 
ATOM     23  N   UNL     1      50.202   6.225  20.725  0.00  0.00    +0.000 NA
ATOM     24  C   UNL     1      49.197   7.026  21.136  0.00  0.00    +0.000 A 
ATOM     25  C   UNL     1      47.934   6.972  20.574  0.00  0.00    +0.000 A 
ATOM     26  N   UNL     1      47.616   6.123  19.566  0.00  0.00    +0.000 NA
ENDBRANCH  19  21
ENDBRANCH  14  15
ENDBRANCH   5  14
TORSDOF 4
ENDMDL
MODEL 9
REMARK VINA RESULT:    -6.565      3.775      7.231
REMARK INTER + INTRA:          -8.336
REMARK INTER:                  -7.643
REMARK INTRA:                  -0.693
REMARK UNBOUND:                -0.236
REMARK  Name = 
REMARK  5 active torsions:
REMARK  status: ('A' for Active; 'I' for Inactive)
REMARK    1  A    between atoms: C_1  and  C_2
REMARK    2  A    between atoms: N_5  and  C_6
REMARK    3  A    between atoms: C_6  and  C_7
REMARK    4  A    between atoms: C_11  and  C_12
REMARK    5  A    between atoms: C_20  and  C_21
REMARK                            x       y       z     vdW  Elec       q    Type
REMARK                         _______ _______ _______ _____ _____    ______ ____
ROOT
ATOM      1  C   UNL     1      46.917   4.389  14.603  0.00  0.00    +0.000 C 
ATOM      2  C   UNL     1      46.101   4.832  13.428  0.00  0.00    +0.000 A 
ATOM      3  N   UNL     1      45.908   6.152  13.249  0.00  0.00    +0.000 NA
ATOM      4  C   UNL     1      45.171   6.537  12.196  0.00  0.00    +0.000 A 
ATOM      5  N   UNL     1      44.960   7.900  11.922  0.00  0.00    +0.000 N 
ATOM      6  C   UNL     1      44.645   5.616  11.312  0.00  0.00    +0.000 A 
ATOM      7  C   UNL     1      44.890   4.275  11.553  0.00  0.00    +0.000 A 
ATOM      8  N   UNL     1      45.617   3.872  12.624  0.00  0.00    +0.000 NA
ATOM      9  H   UNL     1      43.971   8.084  11.784  0.00  0.00    +0.000 HD
ENDROOT
BRANCH   7  10
ATOM     10  C   UNL     1      44.350   3.226  10.599  0.00  0.00    +0.000 C 
ATOM     11  F   UNL     1      45.314   2.382  10.122  0.00  0.00    +0.000 F 
ATOM     12  F   UNL     1      43.411   2.417  11.167  0.00  0.00    +0.000 F 
ATOM     13  F   UNL     1      43.764   3.763   9.491  0.00  0.00    +0.000 F 
ENDBRANCH   7  10
BRANCH   5  14
ATOM     14  C   UNL     1      45.555   8.821  12.878  0.00  0.00    +0.000 C 
BRANCH  14  15
ATOM     15  C   UNL     1      46.725   9.539  12.237  0.00  0.00    +0.000 A 
ATOM     16  C   UNL     1      46.536  10.763  11.584  0.00  0.00    +0.000 A 
ATOM     17  C   UNL     1      47.621  11.440  11.030  0.00  0.00    +0.000 A 
ATOM     18  C   UNL     1      48.909  10.912  11.142  0.00  0.00    +0.000 A 
ATOM     19  C   UNL     1      49.146   9.694  11.806  0.00  0.00    +0.000 A 
ATOM     20  C   UNL     1      48.024   9.002  12.309  0.00  0.00    +0.000 A 
BRANCH  19  21
ATOM     21  C   UNL     1      50.514   9.185  12.034  0.00  0.00    +0.000 A 
ATOM     22  C   UNL     1      51.294   8.632  11.014  0.00  0.00    +0.000 A 
ATOM     23  N   UNL     1      52.578   8.222  11.181  0.00  0.00    +0.000 NA
ATOM     24  C   UNL     1      53.071   8.390  12.425  0.00  0.00    +0.000 A 
ATOM     25  C   UNL     1      52.316   8.932  13.450  0.00  0.00    +0.000 A 
ATOM     26  N   UNL     1      51.035   9.341  13.280  0.00  0.00    +0.000 NA
ENDBRANCH  19  21
ENDBRANCH  14  15
ENDBRANCH   5  14
TORSDOF 4
ENDMDL
