MODEL 1
REMARK VINA RESULT:    -7.741      0.000      0.000
REMARK INTER + INTRA:          -9.480
REMARK INTER:                  -9.099
REMARK INTRA:                  -0.381
REMARK UNBOUND:                -0.381
REMARK  Name = 
REMARK  3 active torsions:
REMARK  status: ('A' for Active; 'I' for Inactive)
REMARK    1  A    between atoms: C_2  and  C_4
REMARK    2  A    between atoms: N_11  and  C_12
REMARK    3  A    between atoms: C_12  and  C_13
REMARK                            x       y       z     vdW  Elec       q    Type
REMARK                         _______ _______ _______ _____ _____    ______ ____
ROOT
ATOM      1  C   UNL     1      46.843   6.116  13.089  0.00  0.00    +0.000 A 
ATOM      2  C   UNL     1      46.804   6.443  11.738  0.00  0.00    +0.000 A 
ATOM      3  N   UNL     1      46.005   5.862  10.803  0.00  0.00    +0.000 NA
ATOM      4  C   UNL     1      45.192   4.916  11.319  0.00  0.00    +0.000 A 
ATOM      5  C   UNL     1      45.106   4.524  12.653  0.00  0.00    +0.000 A 
ATOM      6  C   UNL     1      44.105   3.522  12.737  0.00  0.00    +0.000 A 
ATOM      7  C   UNL     1      43.626   3.308  11.463  0.00  0.00    +0.000 A 
ATOM      8  N   UNL     1      44.307   4.141  10.606  0.00  0.00    +0.000 N 
ATOM      9  C   UNL     1      45.963   5.146  13.577  0.00  0.00    +0.000 A 
ENDROOT
BRANCH   1  11
ATOM     10  N   UNL     1      47.483   8.077  14.371  0.00  0.00    +0.000 N 
ATOM     11  C   UNL     1      47.807   6.810  13.967  0.00  0.00    +0.000 C 
ATOM     12  O   UNL     1      48.833   6.264  14.352  0.00  0.00    +0.000 OA
ATOM     13  H   UNL     1      48.100   8.510  15.046  0.00  0.00    +0.000 HD
ATOM     14  H   UNL     1      46.553   8.460  14.275  0.00  0.00    +0.000 HD
ENDBRANCH   1  11
BRANCH   8  15
ATOM     15  C   UNL     1      44.123   4.178   9.162  0.00  0.00    +0.000 C 
BRANCH  15  16
ATOM     16  C   UNL     1      45.227   3.423   8.461  0.00  0.00    +0.000 A 
ATOM     17  C   UNL     1      45.420   2.063   8.704  0.00  0.00    +0.000 A 
ATOM     18  C   UNL     1      46.398   1.379   7.988  0.00  0.00    +0.000 A 
ATOM     19  C   UNL     1      47.172   2.068   7.064  0.00  0.00    +0.000 A 
ATOM     20  C   UNL     1      46.940   3.423   6.901  0.00  0.00    +0.000 A 
ATOM     21  N   UNL     1      45.989   4.112   7.572  0.00  0.00    +0.000 NA
ENDBRANCH  15  16
ENDBRANCH   8  15
TORSDOF 3
ENDMDL
MODEL 2
REMARK VINA RESULT:    -7.434      1.830      2.086
REMARK INTER + INTRA:          -9.119
REMARK INTER:                  -8.670
REMARK INTRA:                  -0.448
REMARK UNBOUND:                -0.381
REMARK  Name = 
REMARK  3 active torsions:
REMARK  status: ('A' for Active; 'I' for Inactive)
REMARK    1  A    between atoms: C_2  and  C_4
REMARK    2  A    between atoms: N_11  and  C_12
REMARK    3  A    between atoms: C_12  and  C_13
REMARK                            x       y       z     vdW  Elec       q    Type
REMARK                         _______ _______ _______ _____ _____    ______ ____
ROOT
ATOM      1  C   UNL     1      45.611   7.422  12.553  0.00  0.00    +0.000 A 
ATOM      2  C   UNL     1      44.847   7.255  11.402  0.00  0.00    +0.000 A 
ATOM      3  N   UNL     1      44.506   6.064  10.841  0.00  0.00    +0.000 NA
ATOM      4  C   UNL     1      44.967   5.003  11.537  0.00  0.00    +0.000 A 
ATOM      5  C   UNL     1      45.706   5.034  12.718  0.00  0.00    +0.000 A 
ATOM      6  C   UNL     1      45.947   3.690  13.101  0.00  0.00    +0.000 A 
ATOM      7  C   UNL     1      45.381   2.877  12.144  0.00  0.00    +0.000 A 
ATOM      8  N   UNL     1      44.809   3.682  11.186  0.00  0.00    +0.000 N 
ATOM      9  C   UNL     1      46.042   6.290  13.249  0.00  0.00    +0.000 A 
ENDROOT
BRANCH   1  11
ATOM     10  N   UNL     1      46.777   8.910  14.077  0.00  0.00    +0.000 N 
ATOM     11  C   UNL     1      45.934   8.791  13.006  0.00  0.00    +0.000 C 
ATOM     12  O   UNL     1      45.500   9.778  12.427  0.00  0.00    +0.000 OA
ATOM     13  H   UNL     1      47.070   9.847  14.324  0.00  0.00    +0.000 HD
ATOM     14  H   UNL     1      47.336   8.141  14.421  0.00  0.00    +0.000 HD
ENDBRANCH   1  11
BRANCH   8  15
ATOM     15  C   UNL     1      44.151   3.201   9.980  0.00  0.00    +0.000 C 
BRANCH  15  16
ATOM     16  C   UNL     1      45.166   2.861   8.915  0.00  0.00    +0.000 A 
ATOM     17  C   UNL     1      45.679   3.855   8.082  0.00  0.00    +0.000 A 
ATOM     18  C   UNL     1      46.666   3.523   7.158  0.00  0.00    +0.000 A 
ATOM     19  C   UNL     1      47.103   2.209   7.073  0.00  0.00    +0.000 A 
ATOM     20  C   UNL     1      46.524   1.273   7.913  0.00  0.00    +0.000 A 
ATOM     21  N   UNL     1      45.573   1.567   8.828  0.00  0.00    +0.000 NA
ENDBRANCH  15  16
ENDBRANCH   8  15
TORSDOF 3
ENDMDL
MODEL 3
REMARK VINA RESULT:    -7.385      1.800      2.322
REMARK INTER + INTRA:          -9.061
REMARK INTER:                  -8.816
REMARK INTRA:                  -0.245
REMARK UNBOUND:                -0.381
REMARK  Name = 
REMARK  3 active torsions:
REMARK  status: ('A' for Active; 'I' for Inactive)
REMARK    1  A    between atoms: C_2  and  C_4
REMARK    2  A    between atoms: N_11  and  C_12
REMARK    3  A    between atoms: C_12  and  C_13
REMARK                            x       y       z     vdW  Elec       q    Type
REMARK                         _______ _______ _______ _____ _____    ______ ____
ROOT
ATOM      1  C   UNL     1      46.656   4.529  14.217  0.00  0.00    +0.000 A 
ATOM      2  C   UNL     1      46.598   3.288  13.590  0.00  0.00    +0.000 A 
ATOM      3  N   UNL     1      45.919   3.007  12.446  0.00  0.00    +0.000 NA
ATOM      4  C   UNL     1      45.298   4.086  11.923  0.00  0.00    +0.000 A 
ATOM      5  C   UNL     1      45.311   5.384  12.428  0.00  0.00    +0.000 A 
ATOM      6  C   UNL     1      44.548   6.190  11.544  0.00  0.00    +0.000 A 
ATOM      7  C   UNL     1      44.070   5.371  10.545  0.00  0.00    +0.000 A 
ATOM      8  N   UNL     1      44.511   4.092  10.795  0.00  0.00    +0.000 N 
ATOM      9  C   UNL     1      46.016   5.619  13.621  0.00  0.00    +0.000 A 
ENDROOT
BRANCH   1  11
ATOM     10  N   UNL     1      47.003   3.858  16.525  0.00  0.00    +0.000 N 
ATOM     11  C   UNL     1      47.400   4.656  15.487  0.00  0.00    +0.000 C 
ATOM     12  O   UNL     1      48.356   5.412  15.597  0.00  0.00    +0.000 OA
ATOM     13  H   UNL     1      47.574   3.881  17.360  0.00  0.00    +0.000 HD
ATOM     14  H   UNL     1      46.390   3.065  16.401  0.00  0.00    +0.000 HD
ENDBRANCH   1  11
BRANCH   8  15
ATOM     15  C   UNL     1      44.176   2.925   9.992  0.00  0.00    +0.000 C 
BRANCH  15  16
ATOM     16  C   UNL     1      45.190   2.721   8.893  0.00  0.00    +0.000 A 
ATOM     17  C   UNL     1      45.592   3.789   8.091  0.00  0.00    +0.000 A 
ATOM     18  C   UNL     1      46.582   3.584   7.134  0.00  0.00    +0.000 A 
ATOM     19  C   UNL     1      47.133   2.319   6.986  0.00  0.00    +0.000 A 
ATOM     20  C   UNL     1      46.661   1.302   7.799  0.00  0.00    +0.000 A 
ATOM     21  N   UNL     1      45.710   1.473   8.745  0.00  0.00    +0.000 NA
ENDBRANCH  15  16
ENDBRANCH   8  15
TORSDOF 3
ENDMDL
MODEL 4
REMARK VINA RESULT:    -7.296      2.606      5.890
REMARK INTER + INTRA:          -8.957
REMARK INTER:                  -8.746
REMARK INTRA:                  -0.211
REMARK UNBOUND:                -0.381
REMARK  Name = 
REMARK  3 active torsions:
REMARK  status: ('A' for Active; 'I' for Inactive)
REMARK    1  A    between atoms: C_2  and  C_4
REMARK    2  A    between atoms: N_11  and  C_12
REMARK    3  A    between atoms: C_12  and  C_13
REMARK                            x       y       z     vdW  Elec       q    Type
REMARK                         _______ _______ _______ _____ _____    ______ ____
ROOT
ATOM      1  C   UNL     1      46.510   2.758   7.504  0.00  0.00    +0.000 A 
ATOM      2  C   UNL     1      46.417   4.141   7.627  0.00  0.00    +0.000 A 
ATOM      3  N   UNL     1      45.658   4.808   8.537  0.00  0.00    +0.000 NA
ATOM      4  C   UNL     1      44.990   3.983   9.372  0.00  0.00    +0.000 A 
ATOM      5  C   UNL     1      45.027   2.591   9.379  0.00  0.00    +0.000 A 
ATOM      6  C   UNL     1      44.194   2.150  10.438  0.00  0.00    +0.000 A 
ATOM      7  C   UNL     1      43.651   3.269  11.031  0.00  0.00    +0.000 A 
ATOM      8  N   UNL     1      44.121   4.376  10.363  0.00  0.00    +0.000 N 
ATOM      9  C   UNL     1      45.818   1.950   8.409  0.00  0.00    +0.000 A 
ENDROOT
BRANCH   1  11
ATOM     10  N   UNL     1      47.539   2.961   5.314  0.00  0.00    +0.000 N 
ATOM     11  C   UNL     1      47.345   2.189   6.427  0.00  0.00    +0.000 C 
ATOM     12  O   UNL     1      47.876   1.092   6.538  0.00  0.00    +0.000 OA
ATOM     13  H   UNL     1      48.187   2.607   4.622  0.00  0.00    +0.000 HD
ATOM     14  H   UNL     1      47.324   3.948   5.289  0.00  0.00    +0.000 HD
ENDBRANCH   1  11
BRANCH   8  15
ATOM     15  C   UNL     1      43.738   5.749  10.657  0.00  0.00    +0.000 C 
BRANCH  15  16
ATOM     16  C   UNL     1      44.785   6.428  11.506  0.00  0.00    +0.000 A 
ATOM     17  C   UNL     1      45.655   5.677  12.297  0.00  0.00    +0.000 A 
ATOM     18  C   UNL     1      46.656   6.328  13.011  0.00  0.00    +0.000 A 
ATOM     19  C   UNL     1      46.755   7.710  12.937  0.00  0.00    +0.000 A 
ATOM     20  C   UNL     1      45.837   8.389  12.155  0.00  0.00    +0.000 A 
ATOM     21  N   UNL     1      44.861   7.784  11.440  0.00  0.00    +0.000 NA
ENDBRANCH  15  16
ENDBRANCH   8  15
TORSDOF 3
ENDMDL
MODEL 5
REMARK VINA RESULT:    -6.096      3.796      7.015
REMARK INTER + INTRA:          -7.546
REMARK INTER:                  -7.411
REMARK INTRA:                  -0.134
REMARK UNBOUND:                -0.381
REMARK  Name = 
REMARK  3 active torsions:
REMARK  status: ('A' for Active; 'I' for Inactive)
REMARK    1  A    between atoms: C_2  and  C_4
REMARK    2  A    between atoms: N_11  and  C_12
REMARK    3  A    between atoms: C_12  and  C_13
REMARK                            x       y       z     vdW  Elec       q    Type
REMARK                         _______ _______ _______ _____ _____    ______ ____
ROOT
ATOM      1  C   UNL     1      45.616   5.127  11.626  0.00  0.00    +0.000 A 
ATOM      2  C   UNL     1      45.221   4.177  12.563  0.00  0.00    +0.000 A 
ATOM      3  N   UNL     1      45.737   4.032  13.813  0.00  0.00    +0.000 NA
ATOM      4  C   UNL     1      46.692   4.944  14.098  0.00  0.00    +0.000 A 
ATOM      5  C   UNL     1      47.148   5.964  13.267  0.00  0.00    +0.000 A 
ATOM      6  C   UNL     1      48.132   6.689  13.988  0.00  0.00    +0.000 A 
ATOM      7  C   UNL     1      48.272   6.086  15.219  0.00  0.00    +0.000 A 
ATOM      8  N   UNL     1      47.411   5.014  15.268  0.00  0.00    +0.000 N 
ATOM      9  C   UNL     1      46.591   6.063  11.981  0.00  0.00    +0.000 A 
ENDROOT
BRANCH   1  11
ATOM     10  N   UNL     1      43.620   5.150  10.245  0.00  0.00    +0.000 N 
ATOM     11  C   UNL     1      44.987   5.120  10.290  0.00  0.00    +0.000 C 
ATOM     12  O   UNL     1      45.656   5.128   9.266  0.00  0.00    +0.000 OA
ATOM     13  H   UNL     1      43.197   5.241   9.329  0.00  0.00    +0.000 HD
ATOM     14  H   UNL     1      43.051   5.385  11.046  0.00  0.00    +0.000 HD
ENDBRANCH   1  11
BRANCH   8  15
ATOM     15  C   UNL     1      47.298   4.090  16.388  0.00  0.00    +0.000 C 
BRANCH  15  16
ATOM     16  C   UNL     1      48.646   3.513  16.746  0.00  0.00    +0.000 A 
ATOM     17  C   UNL     1      49.512   4.206  17.593  0.00  0.00    +0.000 A 
ATOM     18  C   UNL     1      50.717   3.615  17.962  0.00  0.00    +0.000 A 
ATOM     19  C   UNL     1      51.039   2.360  17.465  0.00  0.00    +0.000 A 
ATOM     20  C   UNL     1      50.141   1.748  16.606  0.00  0.00    +0.000 A 
ATOM     21  N   UNL     1      48.959   2.292  16.239  0.00  0.00    +0.000 NA
ENDBRANCH  15  16
ENDBRANCH   8  15
TORSDOF 3
ENDMDL
MODEL 6
REMARK VINA RESULT:    -6.090      1.540      2.197
REMARK INTER + INTRA:          -7.540
REMARK INTER:                  -7.294
REMARK INTRA:                  -0.245
REMARK UNBOUND:                -0.381
REMARK  Name = 
REMARK  3 active torsions:
REMARK  status: ('A' for Active; 'I' for Inactive)
REMARK    1  A    between atoms: C_2  and  C_4
REMARK    2  A    between atoms: N_11  and  C_12
REMARK    3  A    between atoms: C_12  and  C_13
REMARK                            x       y       z     vdW  Elec       q    Type
REMARK                         _______ _______ _______ _____ _____    ______ ____
ROOT
ATOM      1  C   UNL     1      47.500   6.618  13.831  0.00  0.00    +0.000 A 
ATOM      2  C   UNL     1      47.187   5.304  13.501  0.00  0.00    +0.000 A 
ATOM      3  N   UNL     1      46.180   4.909  12.678  0.00  0.00    +0.000 NA
ATOM      4  C   UNL     1      45.489   5.946  12.157  0.00  0.00    +0.000 A 
ATOM      5  C   UNL     1      45.724   7.302  12.375  0.00  0.00    +0.000 A 
ATOM      6  C   UNL     1      44.774   8.024  11.609  0.00  0.00    +0.000 A 
ATOM      7  C   UNL     1      43.972   7.106  10.969  0.00  0.00    +0.000 A 
ATOM      8  N   UNL     1      44.398   5.847  11.325  0.00  0.00    +0.000 N 
ATOM      9  C   UNL     1      46.770   7.655  13.245  0.00  0.00    +0.000 A 
ENDROOT
BRANCH   1  11
ATOM     10  N   UNL     1      48.254   7.133  16.081  0.00  0.00    +0.000 N 
ATOM     11  C   UNL     1      48.600   6.877  14.783  0.00  0.00    +0.000 C 
ATOM     12  O   UNL     1      49.773   6.824  14.437  0.00  0.00    +0.000 OA
ATOM     13  H   UNL     1      49.012   7.216  16.747  0.00  0.00    +0.000 HD
ATOM     14  H   UNL     1      47.330   6.948  16.448  0.00  0.00    +0.000 HD
ENDBRANCH   1  11
BRANCH   8  15
ATOM     15  C   UNL     1      43.772   4.605  10.895  0.00  0.00    +0.000 C 
BRANCH  15  16
ATOM     16  C   UNL     1      44.605   3.923   9.837  0.00  0.00    +0.000 A 
ATOM     17  C   UNL     1      44.732   2.534   9.820  0.00  0.00    +0.000 A 
ATOM     18  C   UNL     1      45.447   1.931   8.789  0.00  0.00    +0.000 A 
ATOM     19  C   UNL     1      46.033   2.724   7.813  0.00  0.00    +0.000 A 
ATOM     20  C   UNL     1      45.887   4.098   7.914  0.00  0.00    +0.000 A 
ATOM     21  N   UNL     1      45.189   4.712   8.896  0.00  0.00    +0.000 NA
ENDBRANCH  15  16
ENDBRANCH   8  15
TORSDOF 3
ENDMDL
MODEL 7
REMARK VINA RESULT:    -6.026      3.512      5.475
REMARK INTER + INTRA:          -7.464
REMARK INTER:                  -7.065
REMARK INTRA:                  -0.399
REMARK UNBOUND:                -0.381
REMARK  Name = 
REMARK  3 active torsions:
REMARK  status: ('A' for Active; 'I' for Inactive)
REMARK    1  A    between atoms: C_2  and  C_4
REMARK    2  A    between atoms: N_11  and  C_12
REMARK    3  A    between atoms: C_12  and  C_13
REMARK                            x       y       z     vdW  Elec       q    Type
REMARK                         _______ _______ _______ _____ _____    ______ ____
ROOT
ATOM      1  C   UNL     1      48.318   4.601  17.748  0.00  0.00    +0.000 A 
ATOM      2  C   UNL     1      47.697   3.470  17.228  0.00  0.00    +0.000 A 
ATOM      3  N   UNL     1      47.222   3.337  15.960  0.00  0.00    +0.000 NA
ATOM      4  C   UNL     1      47.435   4.432  15.200  0.00  0.00    +0.000 A 
ATOM      5  C   UNL     1      48.075   5.608  15.587  0.00  0.00    +0.000 A 
ATOM      6  C   UNL     1      48.092   6.470  14.461  0.00  0.00    +0.000 A 
ATOM      7  C   UNL     1      47.447   5.822  13.432  0.00  0.00    +0.000 A 
ATOM      8  N   UNL     1      47.030   4.595  13.896  0.00  0.00    +0.000 N 
ATOM      9  C   UNL     1      48.536   5.699  16.911  0.00  0.00    +0.000 A 
ENDROOT
BRANCH   1  11
ATOM     10  N   UNL     1      48.414   3.501  19.910  0.00  0.00    +0.000 N 
ATOM     11  C   UNL     1      48.735   4.603  19.165  0.00  0.00    +0.000 C 
ATOM     12  O   UNL     1      49.374   5.529  19.645  0.00  0.00    +0.000 OA
ATOM     13  H   UNL     1      48.783   3.466  20.852  0.00  0.00    +0.000 HD
ATOM     14  H   UNL     1      48.108   2.631  19.496  0.00  0.00    +0.000 HD
ENDBRANCH   1  11
BRANCH   8  15
ATOM     15  C   UNL     1      46.265   3.630  13.120  0.00  0.00    +0.000 C 
BRANCH  15  16
ATOM     16  C   UNL     1      44.994   4.252  12.594  0.00  0.00    +0.000 A 
ATOM     17  C   UNL     1      44.801   4.419  11.222  0.00  0.00    +0.000 A 
ATOM     18  C   UNL     1      43.589   4.928  10.765  0.00  0.00    +0.000 A 
ATOM     19  C   UNL     1      42.608   5.276  11.682  0.00  0.00    +0.000 A 
ATOM     20  C   UNL     1      42.885   5.110  13.029  0.00  0.00    +0.000 A 
ATOM     21  N   UNL     1      44.047   4.606  13.503  0.00  0.00    +0.000 NA
ENDBRANCH  15  16
ENDBRANCH   8  15
TORSDOF 3
ENDMDL
MODEL 8
REMARK VINA RESULT:    -5.983      1.660      2.507
REMARK INTER + INTRA:          -7.414
REMARK INTER:                  -6.993
REMARK INTRA:                  -0.420
REMARK UNBOUND:                -0.381
REMARK  Name = 
REMARK  3 active torsions:
REMARK  status: ('A' for Active; 'I' for Inactive)
REMARK    1  A    between atoms: C_2  and  C_4
REMARK    2  A    between atoms: N_11  and  C_12
REMARK    3  A    between atoms: C_12  and  C_13
REMARK                            x       y       z     vdW  Elec       q    Type
REMARK                         _______ _______ _______ _____ _____    ______ ____
ROOT
ATOM      1  C   UNL     1      48.265   7.791  13.070  0.00  0.00    +0.000 A 
ATOM      2  C   UNL     1      47.315   8.052  12.088  0.00  0.00    +0.000 A 
ATOM      3  N   UNL     1      46.322   7.208  11.698  0.00  0.00    +0.000 NA
ATOM      4  C   UNL     1      46.312   6.050  12.393  0.00  0.00    +0.000 A 
ATOM      5  C   UNL     1      47.178   5.685  13.422  0.00  0.00    +0.000 A 
ATOM      6  C   UNL     1      46.780   4.400  13.872  0.00  0.00    +0.000 A 
ATOM      7  C   UNL     1      45.711   4.002  13.101  0.00  0.00    +0.000 A 
ATOM      8  N   UNL     1      45.448   5.000  12.191  0.00  0.00    +0.000 N 
ATOM      9  C   UNL     1      48.194   6.587  13.777  0.00  0.00    +0.000 A 
ENDROOT
BRANCH   1  11
ATOM     10  N   UNL     1      49.893   9.399  12.258  0.00  0.00    +0.000 N 
ATOM     11  C   UNL     1      49.311   8.798  13.341  0.00  0.00    +0.000 C 
ATOM     12  O   UNL     1      49.618   9.112  14.483  0.00  0.00    +0.000 OA
ATOM     13  H   UNL     1      50.540  10.153  12.451  0.00  0.00    +0.000 HD
ATOM     14  H   UNL     1      49.504   9.344  11.328  0.00  0.00    +0.000 HD
ENDBRANCH   1  11
BRANCH   8  15
ATOM     15  C   UNL     1      44.419   4.936  11.163  0.00  0.00    +0.000 C 
BRANCH  15  16
ATOM     16  C   UNL     1      44.889   4.119   9.983  0.00  0.00    +0.000 A 
ATOM     17  C   UNL     1      45.578   4.722   8.931  0.00  0.00    +0.000 A 
ATOM     18  C   UNL     1      46.061   3.930   7.894  0.00  0.00    +0.000 A 
ATOM     19  C   UNL     1      45.830   2.562   7.919  0.00  0.00    +0.000 A 
ATOM     20  C   UNL     1      45.111   2.041   8.983  0.00  0.00    +0.000 A 
ATOM     21  N   UNL     1      44.640   2.783  10.010  0.00  0.00    +0.000 NA
ENDBRANCH  15  16
ENDBRANCH   8  15
TORSDOF 3
ENDMDL
MODEL 9
REMARK VINA RESULT:    -5.822      3.607      7.236
REMARK INTER + INTRA:          -7.224
REMARK INTER:                  -6.830
REMARK INTRA:                  -0.394
REMARK UNBOUND:                -0.381
REMARK  Name = 
REMARK  3 active torsions:
REMARK  status: ('A' for Active; 'I' for Inactive)
REMARK    1  A    between atoms: C_2  and  C_4
REMARK    2  A    between atoms: N_11  and  C_12
REMARK    3  A    between atoms: C_12  and  C_13
REMARK                            x       y       z     vdW  Elec       q    Type
REMARK                         _______ _______ _______ _____ _____    ______ ____
ROOT
ATOM      1  C   UNL     1      44.737   4.492  12.390  0.00  0.00    +0.000 A 
ATOM      2  C   UNL     1      45.937   4.042  12.930  0.00  0.00    +0.000 A 
ATOM      3  N   UNL     1      46.954   4.828  13.374  0.00  0.00    +0.000 NA
ATOM      4  C   UNL     1      46.683   6.147  13.270  0.00  0.00    +0.000 A 
ATOM      5  C   UNL     1      45.511   6.725  12.787  0.00  0.00    +0.000 A 
ATOM      6  C   UNL     1      45.660   8.132  12.888  0.00  0.00    +0.000 A 
ATOM      7  C   UNL     1      46.915   8.380  13.399  0.00  0.00    +0.000 A 
ATOM      8  N   UNL     1      47.537   7.171  13.606  0.00  0.00    +0.000 N 
ATOM      9  C   UNL     1      44.496   5.867  12.329  0.00  0.00    +0.000 A 
ENDROOT
BRANCH   1  11
ATOM     10  N   UNL     1      43.730   2.287  12.535  0.00  0.00    +0.000 N 
ATOM     11  C   UNL     1      43.752   3.503  11.908  0.00  0.00    +0.000 C 
ATOM     12  O   UNL     1      42.960   3.770  11.013  0.00  0.00    +0.000 OA
ATOM     13  H   UNL     1      42.992   1.649  12.265  0.00  0.00    +0.000 HD
ATOM     14  H   UNL     1      44.191   2.120  13.419  0.00  0.00    +0.000 HD
ENDBRANCH   1  11
BRANCH   8  15
ATOM     15  C   UNL     1      48.900   7.011  14.092  0.00  0.00    +0.000 C 
BRANCH  15  16
ATOM     16  C   UNL     1      48.916   6.810  15.589  0.00  0.00    +0.000 A 
ATOM     17  C   UNL     1      48.823   7.902  16.452  0.00  0.00    +0.000 A 
ATOM     18  C   UNL     1      48.767   7.678  17.824  0.00  0.00    +0.000 A 
ATOM     19  C   UNL     1      48.826   6.378  18.304  0.00  0.00    +0.000 A 
ATOM     20  C   UNL     1      48.948   5.348  17.386  0.00  0.00    +0.000 A 
ATOM     21  N   UNL     1      48.992   5.533  16.048  0.00  0.00    +0.000 NA
ENDBRANCH  15  16
ENDBRANCH   8  15
TORSDOF 3
ENDMDL
