MODEL 1
REMARK VINA RESULT:    -8.787      0.000      0.000
REMARK INTER + INTRA:         -13.446
REMARK INTER:                 -12.383
REMARK INTRA:                  -1.063
REMARK UNBOUND:                -1.063
REMARK  Name = 
REMARK  7 active torsions:
REMARK  status: ('A' for Active; 'I' for Inactive)
REMARK    1  A    between atoms: C_2  and  C_4
REMARK    2  A    between atoms: C_7  and  O_8
REMARK    3  A    between atoms: O_8  and  C_9
REMARK    4  A    between atoms: C_9  and  C_10
REMARK    5  A    between atoms: C_10  and  C_13
REMARK    6  A    between atoms: C_17  and  O_18
REMARK    7  A    between atoms: O_18  and  C_19
REMARK                            x       y       z     vdW  Elec       q    Type
REMARK                         _______ _______ _______ _____ _____    ______ ____
ROOT
ATOM      1  C   UNL     1      43.767   4.655  12.485  0.00  0.00    +0.000 C 
ATOM      2  F   UNL     1      42.867   5.388  13.206  0.00  0.00    +0.000 F 
ATOM      3  F   UNL     1      43.667   3.380  12.965  0.00  0.00    +0.000 F 
ENDROOT
BRANCH   1   4
ATOM      4  C   UNL     1      45.177   5.201  12.631  0.00  0.00    +0.000 A 
ATOM      5  C   UNL     1      45.725   6.045  11.655  0.00  0.00    +0.000 A 
ATOM      6  C   UNL     1      47.020   6.545  11.801  0.00  0.00    +0.000 A 
ATOM      7  C   UNL     1      47.788   6.208  12.919  0.00  0.00    +0.000 A 
ATOM      8  C   UNL     1      47.259   5.360  13.889  0.00  0.00    +0.000 A 
ATOM      9  C   UNL     1      45.958   4.866  13.748  0.00  0.00    +0.000 A 
BRANCH   8  10
ATOM     10  O   UNL     1      47.903   4.978  15.037  0.00  0.00    +0.000 OA
BRANCH  10  11
ATOM     11  C   UNL     1      47.219   4.116  15.974  0.00  0.00    +0.000 C 
ATOM     12  C   UNL     1      47.218   4.520  17.454  0.00  0.00    +0.000 C 
ATOM     13  O   UNL     1      47.865   3.289  17.848  0.00  0.00    +0.000 OA
ATOM     14  C   UNL     1      48.034   2.912  16.463  0.00  0.00    +0.000 C 
ENDBRANCH  10  11
ENDBRANCH   8  10
ENDBRANCH   1   4
BRANCH   1  15
ATOM     15  C   UNL     1      43.333   4.661  11.008  0.00  0.00    +0.000 C 
BRANCH  15  16
ATOM     16  O   UNL     1      43.504   3.356  10.429  0.00  0.00    +0.000 OA
BRANCH  16  20
ATOM     17  C   UNL     1      46.410   2.645   7.614  0.00  0.00    +0.000 A 
ATOM     18  C   UNL     1      45.977   3.959   7.741  0.00  0.00    +0.000 A 
ATOM     19  C   UNL     1      44.989   4.249   8.684  0.00  0.00    +0.000 A 
ATOM     20  C   UNL     1      44.467   3.224   9.469  0.00  0.00    +0.000 A 
ATOM     21  C   UNL     1      44.967   1.940   9.265  0.00  0.00    +0.000 A 
ATOM     22  N   UNL     1      45.923   1.615   8.358  0.00  0.00    +0.000 NA
BRANCH  17  24
ATOM     23  N   UNL     1      47.409   3.022   5.436  0.00  0.00    +0.000 N 
ATOM     24  C   UNL     1      47.467   2.315   6.606  0.00  0.00    +0.000 C 
ATOM     25  O   UNL     1      48.331   1.472   6.810  0.00  0.00    +0.000 OA
ATOM     26  H   UNL     1      48.097   2.851   4.718  0.00  0.00    +0.000 HD
ATOM     27  H   UNL     1      46.686   3.719   5.307  0.00  0.00    +0.000 HD
ENDBRANCH  17  24
ENDBRANCH  16  20
ENDBRANCH  15  16
ENDBRANCH   1  15
TORSDOF 7
ENDMDL
MODEL 2
REMARK VINA RESULT:    -8.024      1.311      1.513
REMARK INTER + INTRA:         -12.370
REMARK INTER:                 -11.334
REMARK INTRA:                  -1.036
REMARK UNBOUND:                -1.063
REMARK  Name = 
REMARK  7 active torsions:
REMARK  status: ('A' for Active; 'I' for Inactive)
REMARK    1  A    between atoms: C_2  and  C_4
REMARK    2  A    between atoms: C_7  and  O_8
REMARK    3  A    between atoms: O_8  and  C_9
REMARK    4  A    between atoms: C_9  and  C_10
REMARK    5  A    between atoms: C_10  and  C_13
REMARK    6  A    between atoms: C_17  and  O_18
REMARK    7  A    between atoms: O_18  and  C_19
REMARK                            x       y       z     vdW  Elec       q    Type
REMARK                         _______ _______ _______ _____ _____    ______ ____
ROOT
ATOM      1  C   UNL     1      43.989   4.890  12.189  0.00  0.00    +0.000 C 
ATOM      2  F   UNL     1      43.259   5.580  11.263  0.00  0.00    +0.000 F 
ATOM      3  F   UNL     1      43.257   4.940  13.342  0.00  0.00    +0.000 F 
ENDROOT
BRANCH   1   4
ATOM      4  C   UNL     1      45.371   5.493  12.375  0.00  0.00    +0.000 A 
ATOM      5  C   UNL     1      45.906   6.370  11.420  0.00  0.00    +0.000 A 
ATOM      6  C   UNL     1      47.175   6.923  11.603  0.00  0.00    +0.000 A 
ATOM      7  C   UNL     1      47.928   6.606  12.737  0.00  0.00    +0.000 A 
ATOM      8  C   UNL     1      47.412   5.727  13.685  0.00  0.00    +0.000 A 
ATOM      9  C   UNL     1      46.138   5.180  13.508  0.00  0.00    +0.000 A 
BRANCH   8  10
ATOM     10  O   UNL     1      48.044   5.361  14.846  0.00  0.00    +0.000 OA
BRANCH  10  11
ATOM     11  C   UNL     1      48.511   6.390  15.746  0.00  0.00    +0.000 C 
ATOM     12  C   UNL     1      50.025   6.609  15.866  0.00  0.00    +0.000 C 
ATOM     13  O   UNL     1      50.010   6.333  17.284  0.00  0.00    +0.000 OA
ATOM     14  C   UNL     1      48.613   5.968  17.218  0.00  0.00    +0.000 C 
ENDBRANCH  10  11
ENDBRANCH   8  10
ENDBRANCH   1   4
BRANCH   1  15
ATOM     15  C   UNL     1      44.094   3.422  11.736  0.00  0.00    +0.000 C 
BRANCH  15  16
ATOM     16  O   UNL     1      43.607   3.275  10.391  0.00  0.00    +0.000 OA
BRANCH  16  20
ATOM     17  C   UNL     1      46.437   2.593   7.493  0.00  0.00    +0.000 A 
ATOM     18  C   UNL     1      45.976   3.898   7.615  0.00  0.00    +0.000 A 
ATOM     19  C   UNL     1      45.012   4.177   8.586  0.00  0.00    +0.000 A 
ATOM     20  C   UNL     1      44.542   3.152   9.403  0.00  0.00    +0.000 A 
ATOM     21  C   UNL     1      45.067   1.878   9.200  0.00  0.00    +0.000 A 
ATOM     22  N   UNL     1      46.000   1.562   8.267  0.00  0.00    +0.000 NA
BRANCH  17  24
ATOM     23  N   UNL     1      47.432   3.047   5.328  0.00  0.00    +0.000 N 
ATOM     24  C   UNL     1      47.469   2.274   6.456  0.00  0.00    +0.000 C 
ATOM     25  O   UNL     1      48.296   1.383   6.602  0.00  0.00    +0.000 OA
ATOM     26  H   UNL     1      48.105   2.887   4.593  0.00  0.00    +0.000 HD
ATOM     27  H   UNL     1      46.740   3.782   5.246  0.00  0.00    +0.000 HD
ENDBRANCH  17  24
ENDBRANCH  16  20
ENDBRANCH  15  16
ENDBRANCH   1  15
TORSDOF 7
ENDMDL
MODEL 3
REMARK VINA RESULT:    -7.932      2.337      3.672
REMARK INTER + INTRA:         -12.241
REMARK INTER:                 -11.320
REMARK INTRA:                  -0.922
REMARK UNBOUND:                -1.063
REMARK  Name = 
REMARK  7 active torsions:
REMARK  status: ('A' for Active; 'I' for Inactive)
REMARK    1  A    between atoms: C_2  and  C_4
REMARK    2  A    between atoms: C_7  and  O_8
REMARK    3  A    between atoms: O_8  and  C_9
REMARK    4  A    between atoms: C_9  and  C_10
REMARK    5  A    between atoms: C_10  and  C_13
REMARK    6  A    between atoms: C_17  and  O_18
REMARK    7  A    between atoms: O_18  and  C_19
REMARK                            x       y       z     vdW  Elec       q    Type
REMARK                         _______ _______ _______ _____ _____    ______ ____
ROOT
ATOM      1  C   UNL     1      43.471   5.447  12.112  0.00  0.00    +0.000 C 
ATOM      2  F   UNL     1      43.036   6.573  11.473  0.00  0.00    +0.000 F 
ATOM      3  F   UNL     1      42.642   5.295  13.188  0.00  0.00    +0.000 F 
ENDROOT
BRANCH   1   4
ATOM      4  C   UNL     1      44.924   5.569  12.536  0.00  0.00    +0.000 A 
ATOM      5  C   UNL     1      45.438   4.780  13.576  0.00  0.00    +0.000 A 
ATOM      6  C   UNL     1      46.777   4.896  13.954  0.00  0.00    +0.000 A 
ATOM      7  C   UNL     1      47.620   5.801  13.304  0.00  0.00    +0.000 A 
ATOM      8  C   UNL     1      47.118   6.598  12.278  0.00  0.00    +0.000 A 
ATOM      9  C   UNL     1      45.780   6.476  11.892  0.00  0.00    +0.000 A 
BRANCH   8  10
ATOM     10  O   UNL     1      47.851   7.502  11.552  0.00  0.00    +0.000 OA
BRANCH  10  11
ATOM     11  C   UNL     1      48.370   8.677  12.213  0.00  0.00    +0.000 C 
ATOM     12  C   UNL     1      47.664  10.016  11.960  0.00  0.00    +0.000 C 
ATOM     13  O   UNL     1      48.870  10.617  11.436  0.00  0.00    +0.000 OA
ATOM     14  C   UNL     1      49.558   9.347  11.508  0.00  0.00    +0.000 C 
ENDBRANCH  10  11
ENDBRANCH   8  10
ENDBRANCH   1   4
BRANCH   1  15
ATOM     15  C   UNL     1      43.279   4.244  11.170  0.00  0.00    +0.000 C 
BRANCH  15  16
ATOM     16  O   UNL     1      43.585   4.613   9.815  0.00  0.00    +0.000 OA
BRANCH  16  20
ATOM     17  C   UNL     1      46.199   2.023   7.991  0.00  0.00    +0.000 A 
ATOM     18  C   UNL     1      46.238   3.344   7.565  0.00  0.00    +0.000 A 
ATOM     19  C   UNL     1      45.366   4.261   8.155  0.00  0.00    +0.000 A 
ATOM     20  C   UNL     1      44.489   3.834   9.149  0.00  0.00    +0.000 A 
ATOM     21  C   UNL     1      44.527   2.488   9.504  0.00  0.00    +0.000 A 
ATOM     22  N   UNL     1      45.355   1.563   8.954  0.00  0.00    +0.000 NA
BRANCH  17  24
ATOM     23  N   UNL     1      46.843  -0.288   7.632  0.00  0.00    +0.000 N 
ATOM     24  C   UNL     1      47.125   1.024   7.367  0.00  0.00    +0.000 C 
ATOM     25  O   UNL     1      48.072   1.352   6.664  0.00  0.00    +0.000 OA
ATOM     26  H   UNL     1      47.425  -1.011   7.236  0.00  0.00    +0.000 HD
ATOM     27  H   UNL     1      46.045  -0.524   8.209  0.00  0.00    +0.000 HD
ENDBRANCH  17  24
ENDBRANCH  16  20
ENDBRANCH  15  16
ENDBRANCH   1  15
TORSDOF 7
ENDMDL
MODEL 4
REMARK VINA RESULT:    -7.258      3.116      7.812
REMARK INTER + INTRA:         -11.291
REMARK INTER:                 -10.606
REMARK INTRA:                  -0.685
REMARK UNBOUND:                -1.063
REMARK  Name = 
REMARK  7 active torsions:
REMARK  status: ('A' for Active; 'I' for Inactive)
REMARK    1  A    between atoms: C_2  and  C_4
REMARK    2  A    between atoms: C_7  and  O_8
REMARK    3  A    between atoms: O_8  and  C_9
REMARK    4  A    between atoms: C_9  and  C_10
REMARK    5  A    between atoms: C_10  and  C_13
REMARK    6  A    between atoms: C_17  and  O_18
REMARK    7  A    between atoms: O_18  and  C_19
REMARK                            x       y       z     vdW  Elec       q    Type
REMARK                         _______ _______ _______ _____ _____    ______ ____
ROOT
ATOM      1  C   UNL     1      45.676   6.257  11.147  0.00  0.00    +0.000 C 
ATOM      2  F   UNL     1      44.831   7.295  10.876  0.00  0.00    +0.000 F 
ATOM      3  F   UNL     1      46.908   6.668  10.722  0.00  0.00    +0.000 F 
ENDROOT
BRANCH   1   4
ATOM      4  C   UNL     1      45.238   4.982  10.449  0.00  0.00    +0.000 A 
ATOM      5  C   UNL     1      44.444   4.036  11.113  0.00  0.00    +0.000 A 
ATOM      6  C   UNL     1      44.042   2.868  10.460  0.00  0.00    +0.000 A 
ATOM      7  C   UNL     1      44.430   2.627   9.139  0.00  0.00    +0.000 A 
ATOM      8  C   UNL     1      45.229   3.553   8.474  0.00  0.00    +0.000 A 
ATOM      9  C   UNL     1      45.624   4.726   9.124  0.00  0.00    +0.000 A 
BRANCH   8  10
ATOM     10  O   UNL     1      45.652   3.439   7.175  0.00  0.00    +0.000 OA
BRANCH  10  11
ATOM     11  C   UNL     1      47.034   3.107   6.912  0.00  0.00    +0.000 C 
ATOM     12  C   UNL     1      47.405   2.639   5.499  0.00  0.00    +0.000 C 
ATOM     13  O   UNL     1      47.909   1.376   5.989  0.00  0.00    +0.000 OA
ATOM     14  C   UNL     1      47.451   1.689   7.324  0.00  0.00    +0.000 C 
ENDBRANCH  10  11
ENDBRANCH   8  10
ENDBRANCH   1   4
BRANCH   1  15
ATOM     15  C   UNL     1      45.726   6.051  12.672  0.00  0.00    +0.000 C 
BRANCH  15  16
ATOM     16  O   UNL     1      47.027   6.386  13.183  0.00  0.00    +0.000 OA
BRANCH  16  20
ATOM     17  C   UNL     1      48.090   4.172  16.476  0.00  0.00    +0.000 A 
ATOM     18  C   UNL     1      48.595   5.464  16.408  0.00  0.00    +0.000 A 
ATOM     19  C   UNL     1      48.263   6.254  15.306  0.00  0.00    +0.000 A 
ATOM     20  C   UNL     1      47.438   5.734  14.312  0.00  0.00    +0.000 A 
ATOM     21  C   UNL     1      46.983   4.427  14.472  0.00  0.00    +0.000 A 
ATOM     22  N   UNL     1      47.286   3.624  15.524  0.00  0.00    +0.000 NA
BRANCH  17  24
ATOM     23  N   UNL     1      47.375   2.786  18.334  0.00  0.00    +0.000 N 
ATOM     24  C   UNL     1      48.438   3.308  17.649  0.00  0.00    +0.000 C 
ATOM     25  O   UNL     1      49.595   3.078  17.977  0.00  0.00    +0.000 OA
ATOM     26  H   UNL     1      47.542   2.190  19.130  0.00  0.00    +0.000 HD
ATOM     27  H   UNL     1      46.432   2.989  18.026  0.00  0.00    +0.000 HD
ENDBRANCH  17  24
ENDBRANCH  16  20
ENDBRANCH  15  16
ENDBRANCH   1  15
TORSDOF 7
ENDMDL
MODEL 5
REMARK VINA RESULT:    -6.364      3.881      8.507
REMARK INTER + INTRA:         -10.031
REMARK INTER:                  -9.498
REMARK INTRA:                  -0.533
REMARK UNBOUND:                -1.063
REMARK  Name = 
REMARK  7 active torsions:
REMARK  status: ('A' for Active; 'I' for Inactive)
REMARK    1  A    between atoms: C_2  and  C_4
REMARK    2  A    between atoms: C_7  and  O_8
REMARK    3  A    between atoms: O_8  and  C_9
REMARK    4  A    between atoms: C_9  and  C_10
REMARK    5  A    between atoms: C_10  and  C_13
REMARK    6  A    between atoms: C_17  and  O_18
REMARK    7  A    between atoms: O_18  and  C_19
REMARK                            x       y       z     vdW  Elec       q    Type
REMARK                         _______ _______ _______ _____ _____    ______ ____
ROOT
ATOM      1  C   UNL     1      46.347   6.161  12.737  0.00  0.00    +0.000 C 
ATOM      2  F   UNL     1      45.876   7.377  13.143  0.00  0.00    +0.000 F 
ATOM      3  F   UNL     1      47.588   6.403  12.220  0.00  0.00    +0.000 F 
ENDROOT
BRANCH   1   4
ATOM      4  C   UNL     1      45.428   5.518  11.713  0.00  0.00    +0.000 A 
ATOM      5  C   UNL     1      44.142   5.088  12.071  0.00  0.00    +0.000 A 
ATOM      6  C   UNL     1      43.303   4.503  11.120  0.00  0.00    +0.000 A 
ATOM      7  C   UNL     1      43.736   4.336   9.802  0.00  0.00    +0.000 A 
ATOM      8  C   UNL     1      45.015   4.748   9.438  0.00  0.00    +0.000 A 
ATOM      9  C   UNL     1      45.852   5.342  10.387  0.00  0.00    +0.000 A 
BRANCH   8  10
ATOM     10  O   UNL     1      45.540   4.659   8.174  0.00  0.00    +0.000 OA
BRANCH  10  11
ATOM     11  C   UNL     1      45.571   3.374   7.515  0.00  0.00    +0.000 C 
ATOM     12  C   UNL     1      46.054   2.162   8.322  0.00  0.00    +0.000 C 
ATOM     13  O   UNL     1      47.127   1.898   7.391  0.00  0.00    +0.000 OA
ATOM     14  C   UNL     1      46.821   3.110   6.664  0.00  0.00    +0.000 C 
ENDBRANCH  10  11
ENDBRANCH   8  10
ENDBRANCH   1   4
BRANCH   1  15
ATOM     15  C   UNL     1      46.497   5.256  13.974  0.00  0.00    +0.000 C 
BRANCH  15  16
ATOM     16  O   UNL     1      47.851   5.285  14.457  0.00  0.00    +0.000 OA
BRANCH  16  20
ATOM     17  C   UNL     1      48.590   4.944  18.483  0.00  0.00    +0.000 A 
ATOM     18  C   UNL     1      47.797   3.956  17.912  0.00  0.00    +0.000 A 
ATOM     19  C   UNL     1      47.517   4.031  16.546  0.00  0.00    +0.000 A 
ATOM     20  C   UNL     1      48.036   5.083  15.796  0.00  0.00    +0.000 A 
ATOM     21  C   UNL     1      48.819   6.023  16.462  0.00  0.00    +0.000 A 
ATOM     22  N   UNL     1      49.111   5.990  17.787  0.00  0.00    +0.000 NA
BRANCH  17  24
ATOM     23  N   UNL     1      48.582   3.704  20.568  0.00  0.00    +0.000 N 
ATOM     24  C   UNL     1      48.898   4.881  19.948  0.00  0.00    +0.000 C 
ATOM     25  O   UNL     1      49.404   5.817  20.555  0.00  0.00    +0.000 OA
ATOM     26  H   UNL     1      48.771   3.595  21.553  0.00  0.00    +0.000 HD
ATOM     27  H   UNL     1      48.175   2.947  20.032  0.00  0.00    +0.000 HD
ENDBRANCH  17  24
ENDBRANCH  16  20
ENDBRANCH  15  16
ENDBRANCH   1  15
TORSDOF 7
ENDMDL
MODEL 6
REMARK VINA RESULT:    -6.222      3.634      7.941
REMARK INTER + INTRA:          -9.831
REMARK INTER:                  -9.173
REMARK INTRA:                  -0.658
REMARK UNBOUND:                -1.063
REMARK  Name = 
REMARK  7 active torsions:
REMARK  status: ('A' for Active; 'I' for Inactive)
REMARK    1  A    between atoms: C_2  and  C_4
REMARK    2  A    between atoms: C_7  and  O_8
REMARK    3  A    between atoms: O_8  and  C_9
REMARK    4  A    between atoms: C_9  and  C_10
REMARK    5  A    between atoms: C_10  and  C_13
REMARK    6  A    between atoms: C_17  and  O_18
REMARK    7  A    between atoms: O_18  and  C_19
REMARK                            x       y       z     vdW  Elec       q    Type
REMARK                         _______ _______ _______ _____ _____    ______ ____
ROOT
ATOM      1  C   UNL     1      46.778   4.497  13.491  0.00  0.00    +0.000 C 
ATOM      2  F   UNL     1      47.731   5.347  13.004  0.00  0.00    +0.000 F 
ATOM      3  F   UNL     1      47.323   3.247  13.400  0.00  0.00    +0.000 F 
ENDROOT
BRANCH   1   4
ATOM      4  C   UNL     1      45.481   4.603  12.708  0.00  0.00    +0.000 A 
ATOM      5  C   UNL     1      44.324   5.128  13.302  0.00  0.00    +0.000 A 
ATOM      6  C   UNL     1      43.138   5.226  12.571  0.00  0.00    +0.000 A 
ATOM      7  C   UNL     1      43.089   4.799  11.242  0.00  0.00    +0.000 A 
ATOM      8  C   UNL     1      44.228   4.265  10.645  0.00  0.00    +0.000 A 
ATOM      9  C   UNL     1      45.418   4.175  11.373  0.00  0.00    +0.000 A 
BRANCH   8  10
ATOM     10  O   UNL     1      44.309   3.837   9.345  0.00  0.00    +0.000 OA
BRANCH  10  11
ATOM     11  C   UNL     1      45.572   3.345   8.844  0.00  0.00    +0.000 C 
ATOM     12  C   UNL     1      45.833   3.437   7.335  0.00  0.00    +0.000 C 
ATOM     13  O   UNL     1      46.012   2.007   7.222  0.00  0.00    +0.000 OA
ATOM     14  C   UNL     1      45.631   1.830   8.606  0.00  0.00    +0.000 C 
ENDBRANCH  10  11
ENDBRANCH   8  10
ENDBRANCH   1   4
BRANCH   1  15
ATOM     15  C   UNL     1      46.543   4.824  14.977  0.00  0.00    +0.000 C 
BRANCH  15  16
ATOM     16  O   UNL     1      46.745   3.654  15.788  0.00  0.00    +0.000 OA
BRANCH  16  20
ATOM     17  C   UNL     1      50.456   2.843  17.349  0.00  0.00    +0.000 A 
ATOM     18  C   UNL     1      49.991   4.143  17.500  0.00  0.00    +0.000 A 
ATOM     19  C   UNL     1      48.735   4.466  16.983  0.00  0.00    +0.000 A 
ATOM     20  C   UNL     1      47.984   3.487  16.338  0.00  0.00    +0.000 A 
ATOM     21  C   UNL     1      48.540   2.213  16.238  0.00  0.00    +0.000 A 
ATOM     22  N   UNL     1      49.757   1.858  16.721  0.00  0.00    +0.000 NA
BRANCH  17  24
ATOM     23  N   UNL     1      52.019   1.140  18.088  0.00  0.00    +0.000 N 
ATOM     24  C   UNL     1      51.802   2.477  17.894  0.00  0.00    +0.000 C 
ATOM     25  O   UNL     1      52.659   3.314  18.149  0.00  0.00    +0.000 OA
ATOM     26  H   UNL     1      52.908   0.828  18.447  0.00  0.00    +0.000 HD
ATOM     27  H   UNL     1      51.291   0.476  17.855  0.00  0.00    +0.000 HD
ENDBRANCH  17  24
ENDBRANCH  16  20
ENDBRANCH  15  16
ENDBRANCH   1  15
TORSDOF 7
ENDMDL
MODEL 7
REMARK VINA RESULT:    -6.100      4.431      7.500
REMARK INTER + INTRA:          -9.659
REMARK INTER:                  -8.699
REMARK INTRA:                  -0.960
REMARK UNBOUND:                -1.063
REMARK  Name = 
REMARK  7 active torsions:
REMARK  status: ('A' for Active; 'I' for Inactive)
REMARK    1  A    between atoms: C_2  and  C_4
REMARK    2  A    between atoms: C_7  and  O_8
REMARK    3  A    between atoms: O_8  and  C_9
REMARK    4  A    between atoms: C_9  and  C_10
REMARK    5  A    between atoms: C_10  and  C_13
REMARK    6  A    between atoms: C_17  and  O_18
REMARK    7  A    between atoms: O_18  and  C_19
REMARK                            x       y       z     vdW  Elec       q    Type
REMARK                         _______ _______ _______ _____ _____    ______ ____
ROOT
ATOM      1  C   UNL     1      49.201   8.216  12.109  0.00  0.00    +0.000 C 
ATOM      2  F   UNL     1      49.662   9.500  12.186  0.00  0.00    +0.000 F 
ATOM      3  F   UNL     1      49.757   7.696  10.975  0.00  0.00    +0.000 F 
ENDROOT
BRANCH   1   4
ATOM      4  C   UNL     1      47.684   8.168  12.064  0.00  0.00    +0.000 A 
ATOM      5  C   UNL     1      46.922   9.328  12.262  0.00  0.00    +0.000 A 
ATOM      6  C   UNL     1      45.527   9.274  12.214  0.00  0.00    +0.000 A 
ATOM      7  C   UNL     1      44.874   8.063  11.972  0.00  0.00    +0.000 A 
ATOM      8  C   UNL     1      45.620   6.902  11.786  0.00  0.00    +0.000 A 
ATOM      9  C   UNL     1      47.016   6.956  11.825  0.00  0.00    +0.000 A 
BRANCH   8  10
ATOM     10  O   UNL     1      45.095   5.663  11.518  0.00  0.00    +0.000 OA
BRANCH  10  11
ATOM     11  C   UNL     1      44.939   4.717  12.600  0.00  0.00    +0.000 C 
ATOM     12  C   UNL     1      45.127   3.228  12.285  0.00  0.00    +0.000 C 
ATOM     13  O   UNL     1      43.788   2.908  12.724  0.00  0.00    +0.000 OA
ATOM     14  C   UNL     1      43.490   4.312  12.903  0.00  0.00    +0.000 C 
ENDBRANCH  10  11
ENDBRANCH   8  10
ENDBRANCH   1   4
BRANCH   1  15
ATOM     15  C   UNL     1      49.733   7.431  13.322  0.00  0.00    +0.000 C 
BRANCH  15  16
ATOM     16  O   UNL     1      49.015   7.796  14.513  0.00  0.00    +0.000 OA
BRANCH  16  20
ATOM     17  C   UNL     1      48.013   4.642  16.945  0.00  0.00    +0.000 A 
ATOM     18  C   UNL     1      48.772   5.653  17.521  0.00  0.00    +0.000 A 
ATOM     19  C   UNL     1      49.138   6.745  16.732  0.00  0.00    +0.000 A 
ATOM     20  C   UNL     1      48.736   6.796  15.400  0.00  0.00    +0.000 A 
ATOM     21  C   UNL     1      47.978   5.732  14.917  0.00  0.00    +0.000 A 
ATOM     22  N   UNL     1      47.604   4.650  15.647  0.00  0.00    +0.000 NA
BRANCH  17  24
ATOM     23  N   UNL     1      48.409   3.203  18.858  0.00  0.00    +0.000 N 
ATOM     24  C   UNL     1      47.613   3.461  17.775  0.00  0.00    +0.000 C 
ATOM     25  O   UNL     1      46.638   2.769  17.510  0.00  0.00    +0.000 OA
ATOM     26  H   UNL     1      48.189   2.425  19.462  0.00  0.00    +0.000 HD
ATOM     27  H   UNL     1      49.201   3.803  19.053  0.00  0.00    +0.000 HD
ENDBRANCH  17  24
ENDBRANCH  16  20
ENDBRANCH  15  16
ENDBRANCH   1  15
TORSDOF 7
ENDMDL
MODEL 8
REMARK VINA RESULT:    -6.008      4.065      5.848
REMARK INTER + INTRA:          -9.529
REMARK INTER:                  -8.878
REMARK INTRA:                  -0.651
REMARK UNBOUND:                -1.063
REMARK  Name = 
REMARK  7 active torsions:
REMARK  status: ('A' for Active; 'I' for Inactive)
REMARK    1  A    between atoms: C_2  and  C_4
REMARK    2  A    between atoms: C_7  and  O_8
REMARK    3  A    between atoms: O_8  and  C_9
REMARK    4  A    between atoms: C_9  and  C_10
REMARK    5  A    between atoms: C_10  and  C_13
REMARK    6  A    between atoms: C_17  and  O_18
REMARK    7  A    between atoms: O_18  and  C_19
REMARK                            x       y       z     vdW  Elec       q    Type
REMARK                         _______ _______ _______ _____ _____    ______ ____
ROOT
ATOM      1  C   UNL     1      49.449   8.008  15.054  0.00  0.00    +0.000 C 
ATOM      2  F   UNL     1      50.648   7.722  14.466  0.00  0.00    +0.000 F 
ATOM      3  F   UNL     1      49.440   9.364  15.223  0.00  0.00    +0.000 F 
ENDROOT
BRANCH   1   4
ATOM      4  C   UNL     1      49.285   7.277  16.375  0.00  0.00    +0.000 A 
ATOM      5  C   UNL     1      48.446   7.785  17.377  0.00  0.00    +0.000 A 
ATOM      6  C   UNL     1      48.297   7.102  18.586  0.00  0.00    +0.000 A 
ATOM      7  C   UNL     1      48.986   5.907  18.813  0.00  0.00    +0.000 A 
ATOM      8  C   UNL     1      49.831   5.400  17.830  0.00  0.00    +0.000 A 
ATOM      9  C   UNL     1      49.973   6.078  16.616  0.00  0.00    +0.000 A 
BRANCH   8  10
ATOM     10  O   UNL     1      50.537   4.229  17.927  0.00  0.00    +0.000 OA
BRANCH  10  11
ATOM     11  C   UNL     1      49.832   2.972  17.824  0.00  0.00    +0.000 C 
ATOM     12  C   UNL     1      50.495   1.837  17.033  0.00  0.00    +0.000 C 
ATOM     13  O   UNL     1      49.384   1.751  16.114  0.00  0.00    +0.000 OA
ATOM     14  C   UNL     1      48.769   2.912  16.718  0.00  0.00    +0.000 C 
ENDBRANCH  10  11
ENDBRANCH   8  10
ENDBRANCH   1   4
BRANCH   1  15
ATOM     15  C   UNL     1      48.321   7.627  14.078  0.00  0.00    +0.000 C 
BRANCH  15  16
ATOM     16  O   UNL     1      48.400   6.232  13.738  0.00  0.00    +0.000 OA
BRANCH  16  20
ATOM     17  C   UNL     1      45.052   4.282  12.374  0.00  0.00    +0.000 A 
ATOM     18  C   UNL     1      45.443   5.413  11.668  0.00  0.00    +0.000 A 
ATOM     19  C   UNL     1      46.574   6.110  12.096  0.00  0.00    +0.000 A 
ATOM     20  C   UNL     1      47.280   5.658  13.208  0.00  0.00    +0.000 A 
ATOM     21  C   UNL     1      46.807   4.514  13.848  0.00  0.00    +0.000 A 
ATOM     22  N   UNL     1      45.710   3.810  13.468  0.00  0.00    +0.000 NA
BRANCH  17  24
ATOM     23  N   UNL     1      43.703   2.268  12.460  0.00  0.00    +0.000 N 
ATOM     24  C   UNL     1      43.840   3.523  11.932  0.00  0.00    +0.000 C 
ATOM     25  O   UNL     1      43.019   3.989  11.152  0.00  0.00    +0.000 OA
ATOM     26  H   UNL     1      42.903   1.707  12.207  0.00  0.00    +0.000 HD
ATOM     27  H   UNL     1      44.396   1.919  13.111  0.00  0.00    +0.000 HD
ENDBRANCH  17  24
ENDBRANCH  16  20
ENDBRANCH  15  16
ENDBRANCH   1  15
TORSDOF 7
ENDMDL
MODEL 9
REMARK VINA RESULT:    -6.000      3.595      7.505
REMARK INTER + INTRA:          -9.518
REMARK INTER:                  -8.822
REMARK INTRA:                  -0.695
REMARK UNBOUND:                -1.063
REMARK  Name = 
REMARK  7 active torsions:
REMARK  status: ('A' for Active; 'I' for Inactive)
REMARK    1  A    between atoms: C_2  and  C_4
REMARK    2  A    between atoms: C_7  and  O_8
REMARK    3  A    between atoms: O_8  and  C_9
REMARK    4  A    between atoms: C_9  and  C_10
REMARK    5  A    between atoms: C_10  and  C_13
REMARK    6  A    between atoms: C_17  and  O_18
REMARK    7  A    between atoms: O_18  and  C_19
REMARK                            x       y       z     vdW  Elec       q    Type
REMARK                         _______ _______ _______ _____ _____    ______ ____
ROOT
ATOM      1  C   UNL     1      44.762   6.242  11.178  0.00  0.00    +0.000 C 
ATOM      2  F   UNL     1      43.599   6.956  11.120  0.00  0.00    +0.000 F 
ATOM      3  F   UNL     1      45.663   6.952  10.437  0.00  0.00    +0.000 F 
ENDROOT
BRANCH   1   4
ATOM      4  C   UNL     1      44.581   4.832  10.642  0.00  0.00    +0.000 A 
ATOM      5  C   UNL     1      43.857   3.876  11.368  0.00  0.00    +0.000 A 
ATOM      6  C   UNL     1      43.692   2.584  10.864  0.00  0.00    +0.000 A 
ATOM      7  C   UNL     1      44.250   2.228   9.634  0.00  0.00    +0.000 A 
ATOM      8  C   UNL     1      44.981   3.166   8.910  0.00  0.00    +0.000 A 
ATOM      9  C   UNL     1      45.139   4.462   9.409  0.00  0.00    +0.000 A 
BRANCH   8  10
ATOM     10  O   UNL     1      45.553   2.942   7.684  0.00  0.00    +0.000 OA
BRANCH  10  11
ATOM     11  C   UNL     1      46.933   2.515   7.620  0.00  0.00    +0.000 C 
ATOM     12  C   UNL     1      47.671   2.668   6.284  0.00  0.00    +0.000 C 
ATOM     13  O   UNL     1      47.944   1.251   6.208  0.00  0.00    +0.000 OA
ATOM     14  C   UNL     1      47.136   1.012   7.383  0.00  0.00    +0.000 C 
ENDBRANCH  10  11
ENDBRANCH   8  10
ENDBRANCH   1   4
BRANCH   1  15
ATOM     15  C   UNL     1      45.245   6.209  12.640  0.00  0.00    +0.000 C 
BRANCH  15  16
ATOM     16  O   UNL     1      45.602   7.530  13.081  0.00  0.00    +0.000 OA
BRANCH  16  20
ATOM     17  C   UNL     1      49.579   7.839  14.064  0.00  0.00    +0.000 A 
ATOM     18  C   UNL     1      48.781   8.938  14.354  0.00  0.00    +0.000 A 
ATOM     19  C   UNL     1      47.422   8.880  14.037  0.00  0.00    +0.000 A 
ATOM     20  C   UNL     1      46.904   7.731  13.444  0.00  0.00    +0.000 A 
ATOM     21  C   UNL     1      47.787   6.684  13.192  0.00  0.00    +0.000 A 
ATOM     22  N   UNL     1      49.113   6.701  13.481  0.00  0.00    +0.000 NA
BRANCH  17  24
ATOM     23  N   UNL     1      51.439   7.060  15.411  0.00  0.00    +0.000 N 
ATOM     24  C   UNL     1      51.039   7.883  14.395  0.00  0.00    +0.000 C 
ATOM     25  O   UNL     1      51.828   8.604  13.797  0.00  0.00    +0.000 OA
ATOM     26  H   UNL     1      52.412   7.039  15.679  0.00  0.00    +0.000 HD
ATOM     27  H   UNL     1      50.760   6.470  15.876  0.00  0.00    +0.000 HD
ENDBRANCH  17  24
ENDBRANCH  16  20
ENDBRANCH  15  16
ENDBRANCH   1  15
TORSDOF 7
ENDMDL
