MODEL 1
REMARK VINA RESULT:    -8.746      0.000      0.000
REMARK INTER + INTRA:         -12.290
REMARK INTER:                 -11.813
REMARK INTRA:                  -0.476
REMARK UNBOUND:                -0.476
REMARK  Name = 
REMARK  7 active torsions:
REMARK  status: ('A' for Active; 'I' for Inactive)
REMARK    1  A    between atoms: C_1  and  C_2
REMARK    2  A    between atoms: C_2  and  C_3
REMARK    3  A    between atoms: C_3  and  N_4
REMARK    4  A    between atoms: C_3  and  C_17
REMARK    5  A    between atoms: C_5  and  C_7
REMARK    6  A    between atoms: C_20  and  O_21
REMARK    7  A    between atoms: O_21  and  C_22
REMARK                            x       y       z     vdW  Elec       q    Type
REMARK                         _______ _______ _______ _____ _____    ______ ____
ROOT
ATOM      1  C   UNL     1      46.363   7.552  12.596  0.00  0.00    +0.000 C 
ENDROOT
BRANCH   1   2
ATOM      2  C   UNL     1      45.861   6.359  11.796  0.00  0.00    +0.000 A 
ATOM      3  C   UNL     1      45.116   5.360  12.435  0.00  0.00    +0.000 A 
ATOM      4  C   UNL     1      44.666   4.249  11.721  0.00  0.00    +0.000 A 
ATOM      5  C   UNL     1      44.906   4.146  10.349  0.00  0.00    +0.000 A 
ATOM      6  C   UNL     1      45.660   5.125   9.703  0.00  0.00    +0.000 A 
ATOM      7  C   UNL     1      46.133   6.226  10.422  0.00  0.00    +0.000 A 
BRANCH   5   8
ATOM      8  O   UNL     1      44.503   3.077   9.583  0.00  0.00    +0.000 OA
BRANCH   8   9
ATOM      9  C   UNL     1      45.361   2.623   8.587  0.00  0.00    +0.000 A 
ATOM     10  C   UNL     1      45.576   3.483   7.521  0.00  0.00    +0.000 A 
ATOM     11  C   UNL     1      46.441   3.072   6.512  0.00  0.00    +0.000 A 
ATOM     12  C   UNL     1      47.053   1.827   6.599  0.00  0.00    +0.000 A 
ATOM     13  C   UNL     1      46.758   1.028   7.690  0.00  0.00    +0.000 A 
ATOM     14  N   UNL     1      45.913   1.392   8.675  0.00  0.00    +0.000 NA
ENDBRANCH   8   9
ENDBRANCH   5   8
ENDBRANCH   1   2
BRANCH   1  15
ATOM     15  N   UNL     1      46.925   7.073  13.848  0.00  0.00    +0.000 N 
ATOM     16  C   UNL     1      48.214   6.641  13.994  0.00  0.00    +0.000 C 
ATOM     17  O   UNL     1      49.025   6.652  13.073  0.00  0.00    +0.000 OA
ATOM     18  H   UNL     1      46.259   6.884  14.588  0.00  0.00    +0.000 HD
BRANCH  16  19
ATOM     19  C   UNL     1      48.594   6.210  15.349  0.00  0.00    +0.000 A 
ATOM     20  C   UNL     1      49.545   6.923  16.066  0.00  0.00    +0.000 A 
ATOM     21  S   UNL     1      49.823   6.304  17.633  0.00  0.00    +0.000 S 
ATOM     22  C   UNL     1      48.724   5.032  17.383  0.00  0.00    +0.000 A 
ATOM     23  N   UNL     1      48.493   4.085  18.328  0.00  0.00    +0.000 NA
ATOM     24  N   UNL     1      47.700   3.142  18.077  0.00  0.00    +0.000 NA
ATOM     25  N   UNL     1      47.070   3.106  16.868  0.00  0.00    +0.000 N 
ATOM     26  C   UNL     1      47.193   4.037  15.865  0.00  0.00    +0.000 A 
ATOM     27  O   UNL     1      46.533   3.968  14.837  0.00  0.00    +0.000 OA
ATOM     28  C   UNL     1      48.134   5.095  16.142  0.00  0.00    +0.000 A 
ATOM     29  H   UNL     1      46.428   2.338  16.720  0.00  0.00    +0.000 HD
ENDBRANCH  16  19
ENDBRANCH   1  15
BRANCH   1  31
ATOM     30  C   UNL     1      45.341   9.809  11.956  0.00  0.00    +0.000 C 
ATOM     31  C   UNL     1      45.240   8.576  12.849  0.00  0.00    +0.000 C 
ENDBRANCH   1  31
TORSDOF 6
ENDMDL
MODEL 2
REMARK VINA RESULT:    -8.454      1.457      2.041
REMARK INTER + INTRA:         -11.896
REMARK INTER:                 -11.155
REMARK INTRA:                  -0.741
REMARK UNBOUND:                -0.476
REMARK  Name = 
REMARK  7 active torsions:
REMARK  status: ('A' for Active; 'I' for Inactive)
REMARK    1  A    between atoms: C_1  and  C_2
REMARK    2  A    between atoms: C_2  and  C_3
REMARK    3  A    between atoms: C_3  and  N_4
REMARK    4  A    between atoms: C_3  and  C_17
REMARK    5  A    between atoms: C_5  and  C_7
REMARK    6  A    between atoms: C_20  and  O_21
REMARK    7  A    between atoms: O_21  and  C_22
REMARK                            x       y       z     vdW  Elec       q    Type
REMARK                         _______ _______ _______ _____ _____    ______ ____
ROOT
ATOM      1  C   UNL     1      46.348   6.772  12.735  0.00  0.00    +0.000 C 
ENDROOT
BRANCH   1   2
ATOM      2  C   UNL     1      45.879   5.735  11.725  0.00  0.00    +0.000 A 
ATOM      3  C   UNL     1      45.331   4.528  12.175  0.00  0.00    +0.000 A 
ATOM      4  C   UNL     1      44.914   3.558  11.263  0.00  0.00    +0.000 A 
ATOM      5  C   UNL     1      44.988   3.801   9.890  0.00  0.00    +0.000 A 
ATOM      6  C   UNL     1      45.546   4.992   9.428  0.00  0.00    +0.000 A 
ATOM      7  C   UNL     1      45.987   5.954  10.340  0.00  0.00    +0.000 A 
BRANCH   5   8
ATOM      8  O   UNL     1      44.606   2.890   8.933  0.00  0.00    +0.000 OA
BRANCH   8   9
ATOM      9  C   UNL     1      45.576   2.412   8.059  0.00  0.00    +0.000 A 
ATOM     10  C   UNL     1      45.845   3.199   6.949  0.00  0.00    +0.000 A 
ATOM     11  C   UNL     1      46.821   2.763   6.059  0.00  0.00    +0.000 A 
ATOM     12  C   UNL     1      47.486   1.567   6.302  0.00  0.00    +0.000 A 
ATOM     13  C   UNL     1      47.132   0.838   7.424  0.00  0.00    +0.000 A 
ATOM     14  N   UNL     1      46.181   1.226   8.296  0.00  0.00    +0.000 NA
ENDBRANCH   8   9
ENDBRANCH   5   8
ENDBRANCH   1   2
BRANCH   1  15
ATOM     15  N   UNL     1      46.599   6.109  14.005  0.00  0.00    +0.000 N 
ATOM     16  C   UNL     1      47.844   5.902  14.530  0.00  0.00    +0.000 C 
ATOM     17  O   UNL     1      48.869   6.293  13.979  0.00  0.00    +0.000 OA
ATOM     18  H   UNL     1      45.809   5.620  14.411  0.00  0.00    +0.000 HD
BRANCH  16  19
ATOM     19  C   UNL     1      47.882   5.224  15.835  0.00  0.00    +0.000 A 
ATOM     20  C   UNL     1      47.417   3.922  15.957  0.00  0.00    +0.000 A 
ATOM     21  S   UNL     1      47.582   3.284  17.533  0.00  0.00    +0.000 S 
ATOM     22  C   UNL     1      48.228   4.744  18.114  0.00  0.00    +0.000 A 
ATOM     23  N   UNL     1      48.571   4.911  19.417  0.00  0.00    +0.000 NA
ATOM     24  N   UNL     1      49.006   6.025  19.804  0.00  0.00    +0.000 NA
ATOM     25  N   UNL     1      49.149   7.035  18.898  0.00  0.00    +0.000 N 
ATOM     26  C   UNL     1      48.882   6.957  17.552  0.00  0.00    +0.000 A 
ATOM     27  O   UNL     1      49.109   7.891  16.794  0.00  0.00    +0.000 OA
ATOM     28  C   UNL     1      48.344   5.689  17.121  0.00  0.00    +0.000 A 
ATOM     29  H   UNL     1      49.520   7.907  19.253  0.00  0.00    +0.000 HD
ENDBRANCH  16  19
ENDBRANCH   1  15
BRANCH   1  31
ATOM     30  C   UNL     1      45.933   9.297  12.721  0.00  0.00    +0.000 C 
ATOM     31  C   UNL     1      45.322   7.910  12.897  0.00  0.00    +0.000 C 
ENDBRANCH   1  31
TORSDOF 6
ENDMDL
MODEL 3
REMARK VINA RESULT:    -8.072      2.818      3.981
REMARK INTER + INTRA:         -11.379
REMARK INTER:                 -10.082
REMARK INTRA:                  -1.297
REMARK UNBOUND:                -0.476
REMARK  Name = 
REMARK  7 active torsions:
REMARK  status: ('A' for Active; 'I' for Inactive)
REMARK    1  A    between atoms: C_1  and  C_2
REMARK    2  A    between atoms: C_2  and  C_3
REMARK    3  A    between atoms: C_3  and  N_4
REMARK    4  A    between atoms: C_3  and  C_17
REMARK    5  A    between atoms: C_5  and  C_7
REMARK    6  A    between atoms: C_20  and  O_21
REMARK    7  A    between atoms: O_21  and  C_22
REMARK                            x       y       z     vdW  Elec       q    Type
REMARK                         _______ _______ _______ _____ _____    ______ ____
ROOT
ATOM      1  C   UNL     1      45.681   5.812  13.109  0.00  0.00    +0.000 C 
ENDROOT
BRANCH   1   2
ATOM      2  C   UNL     1      45.400   5.193  11.748  0.00  0.00    +0.000 A 
ATOM      3  C   UNL     1      44.606   4.043  11.660  0.00  0.00    +0.000 A 
ATOM      4  C   UNL     1      44.355   3.451  10.422  0.00  0.00    +0.000 A 
ATOM      5  C   UNL     1      44.847   4.029   9.250  0.00  0.00    +0.000 A 
ATOM      6  C   UNL     1      45.652   5.165   9.324  0.00  0.00    +0.000 A 
ATOM      7  C   UNL     1      45.926   5.745  10.565  0.00  0.00    +0.000 A 
BRANCH   5   8
ATOM      8  O   UNL     1      44.650   3.497   7.996  0.00  0.00    +0.000 OA
BRANCH   8   9
ATOM      9  C   UNL     1      45.744   2.951   7.336  0.00  0.00    +0.000 A 
ATOM     10  C   UNL     1      46.292   1.806   7.894  0.00  0.00    +0.000 A 
ATOM     11  C   UNL     1      47.378   1.220   7.253  0.00  0.00    +0.000 A 
ATOM     12  C   UNL     1      47.878   1.793   6.089  0.00  0.00    +0.000 A 
ATOM     13  C   UNL     1      47.280   2.950   5.621  0.00  0.00    +0.000 A 
ATOM     14  N   UNL     1      46.237   3.549   6.227  0.00  0.00    +0.000 NA
ENDBRANCH   8   9
ENDBRANCH   5   8
ENDBRANCH   1   2
BRANCH   1  15
ATOM     15  N   UNL     1      46.847   6.673  13.000  0.00  0.00    +0.000 N 
ATOM     16  C   UNL     1      46.804   8.037  13.088  0.00  0.00    +0.000 C 
ATOM     17  O   UNL     1      45.766   8.655  13.301  0.00  0.00    +0.000 OA
ATOM     18  H   UNL     1      47.692   6.231  12.656  0.00  0.00    +0.000 HD
BRANCH  16  19
ATOM     19  C   UNL     1      48.099   8.726  12.965  0.00  0.00    +0.000 A 
ATOM     20  C   UNL     1      48.218   9.845  12.151  0.00  0.00    +0.000 A 
ATOM     21  S   UNL     1      49.780  10.537  12.170  0.00  0.00    +0.000 S 
ATOM     22  C   UNL     1      50.359   9.333  13.219  0.00  0.00    +0.000 A 
ATOM     23  N   UNL     1      51.653   9.299  13.630  0.00  0.00    +0.000 NA
ATOM     24  N   UNL     1      52.041   8.363  14.374  0.00  0.00    +0.000 NA
ATOM     25  N   UNL     1      51.144   7.416  14.775  0.00  0.00    +0.000 N 
ATOM     26  C   UNL     1      49.807   7.387  14.462  0.00  0.00    +0.000 A 
ATOM     27  O   UNL     1      49.055   6.539  14.925  0.00  0.00    +0.000 OA
ATOM     28  C   UNL     1      49.375   8.439  13.574  0.00  0.00    +0.000 A 
ATOM     29  H   UNL     1      51.499   6.694  15.389  0.00  0.00    +0.000 HD
ENDBRANCH  16  19
ENDBRANCH   1  15
BRANCH   1  31
ATOM     30  C   UNL     1      47.137   3.887  13.961  0.00  0.00    +0.000 C 
ATOM     31  C   UNL     1      45.888   4.733  14.190  0.00  0.00    +0.000 C 
ENDBRANCH   1  31
TORSDOF 6
ENDMDL
MODEL 4
REMARK VINA RESULT:    -8.058      3.245      7.743
REMARK INTER + INTRA:         -11.361
REMARK INTER:                 -10.042
REMARK INTRA:                  -1.319
REMARK UNBOUND:                -0.476
REMARK  Name = 
REMARK  7 active torsions:
REMARK  status: ('A' for Active; 'I' for Inactive)
REMARK    1  A    between atoms: C_1  and  C_2
REMARK    2  A    between atoms: C_2  and  C_3
REMARK    3  A    between atoms: C_3  and  N_4
REMARK    4  A    between atoms: C_3  and  C_17
REMARK    5  A    between atoms: C_5  and  C_7
REMARK    6  A    between atoms: C_20  and  O_21
REMARK    7  A    between atoms: O_21  and  C_22
REMARK                            x       y       z     vdW  Elec       q    Type
REMARK                         _______ _______ _______ _____ _____    ______ ____
ROOT
ATOM      1  C   UNL     1      47.875   7.150  13.206  0.00  0.00    +0.000 C 
ENDROOT
BRANCH   1   2
ATOM      2  C   UNL     1      48.271   6.459  14.502  0.00  0.00    +0.000 A 
ATOM      3  C   UNL     1      49.378   6.921  15.224  0.00  0.00    +0.000 A 
ATOM      4  C   UNL     1      49.768   6.286  16.403  0.00  0.00    +0.000 A 
ATOM      5  C   UNL     1      49.026   5.216  16.907  0.00  0.00    +0.000 A 
ATOM      6  C   UNL     1      47.931   4.735  16.191  0.00  0.00    +0.000 A 
ATOM      7  C   UNL     1      47.554   5.354  14.997  0.00  0.00    +0.000 A 
BRANCH   5   8
ATOM      8  O   UNL     1      49.355   4.535  18.057  0.00  0.00    +0.000 OA
BRANCH   8   9
ATOM      9  C   UNL     1      50.451   3.682  18.023  0.00  0.00    +0.000 A 
ATOM     10  C   UNL     1      50.262   2.461  17.393  0.00  0.00    +0.000 A 
ATOM     11  C   UNL     1      51.341   1.586  17.324  0.00  0.00    +0.000 A 
ATOM     12  C   UNL     1      52.559   1.953  17.884  0.00  0.00    +0.000 A 
ATOM     13  C   UNL     1      52.645   3.183  18.513  0.00  0.00    +0.000 A 
ATOM     14  N   UNL     1      51.614   4.046  18.610  0.00  0.00    +0.000 NA
ENDBRANCH   8   9
ENDBRANCH   5   8
ENDBRANCH   1   2
BRANCH   1  15
ATOM     15  N   UNL     1      47.156   6.202  12.370  0.00  0.00    +0.000 N 
ATOM     16  C   UNL     1      46.058   6.519  11.621  0.00  0.00    +0.000 C 
ATOM     17  O   UNL     1      45.599   7.656  11.566  0.00  0.00    +0.000 OA
ATOM     18  H   UNL     1      47.386   5.225  12.512  0.00  0.00    +0.000 HD
BRANCH  16  19
ATOM     19  C   UNL     1      45.483   5.418  10.832  0.00  0.00    +0.000 A 
ATOM     20  C   UNL     1      45.624   5.405   9.450  0.00  0.00    +0.000 A 
ATOM     21  S   UNL     1      44.935   4.029   8.708  0.00  0.00    +0.000 S 
ATOM     22  C   UNL     1      44.379   3.437  10.201  0.00  0.00    +0.000 A 
ATOM     23  N   UNL     1      43.664   2.287  10.297  0.00  0.00    +0.000 NA
ATOM     24  N   UNL     1      43.241   1.914  11.420  0.00  0.00    +0.000 NA
ATOM     25  N   UNL     1      43.533   2.662  12.523  0.00  0.00    +0.000 N 
ATOM     26  C   UNL     1      44.289   3.810  12.544  0.00  0.00    +0.000 A 
ATOM     27  O   UNL     1      44.565   4.380  13.591  0.00  0.00    +0.000 OA
ATOM     28  C   UNL     1      44.738   4.255  11.247  0.00  0.00    +0.000 A 
ATOM     29  H   UNL     1      43.186   2.312  13.407  0.00  0.00    +0.000 HD
ENDBRANCH  16  19
ENDBRANCH   1  15
BRANCH   1  31
ATOM     30  C   UNL     1      48.807   9.015  11.722  0.00  0.00    +0.000 C 
ATOM     31  C   UNL     1      49.103   7.719  12.469  0.00  0.00    +0.000 C 
ENDBRANCH   1  31
TORSDOF 6
ENDMDL
MODEL 5
REMARK VINA RESULT:    -7.729      3.537      5.476
REMARK INTER + INTRA:         -10.916
REMARK INTER:                  -9.561
REMARK INTRA:                  -1.356
REMARK UNBOUND:                -0.476
REMARK  Name = 
REMARK  7 active torsions:
REMARK  status: ('A' for Active; 'I' for Inactive)
REMARK    1  A    between atoms: C_1  and  C_2
REMARK    2  A    between atoms: C_2  and  C_3
REMARK    3  A    between atoms: C_3  and  N_4
REMARK    4  A    between atoms: C_3  and  C_17
REMARK    5  A    between atoms: C_5  and  C_7
REMARK    6  A    between atoms: C_20  and  O_21
REMARK    7  A    between atoms: O_21  and  C_22
REMARK                            x       y       z     vdW  Elec       q    Type
REMARK                         _______ _______ _______ _____ _____    ______ ____
ROOT
ATOM      1  C   UNL     1      49.134   6.398  17.563  0.00  0.00    +0.000 C 
ENDROOT
BRANCH   1   2
ATOM      2  C   UNL     1      48.446   5.901  16.301  0.00  0.00    +0.000 A 
ATOM      3  C   UNL     1      47.734   4.696  16.329  0.00  0.00    +0.000 A 
ATOM      4  C   UNL     1      47.114   4.215  15.176  0.00  0.00    +0.000 A 
ATOM      5  C   UNL     1      47.148   4.957  13.993  0.00  0.00    +0.000 A 
ATOM      6  C   UNL     1      47.866   6.151  13.947  0.00  0.00    +0.000 A 
ATOM      7  C   UNL     1      48.510   6.622  15.094  0.00  0.00    +0.000 A 
BRANCH   5   8
ATOM      8  O   UNL     1      46.570   4.543  12.816  0.00  0.00    +0.000 OA
BRANCH   8   9
ATOM      9  C   UNL     1      45.227   4.836  12.606  0.00  0.00    +0.000 A 
ATOM     10  C   UNL     1      44.952   5.830  11.680  0.00  0.00    +0.000 A 
ATOM     11  C   UNL     1      43.619   6.141  11.430  0.00  0.00    +0.000 A 
ATOM     12  C   UNL     1      42.617   5.459  12.109  0.00  0.00    +0.000 A 
ATOM     13  C   UNL     1      42.990   4.498  13.033  0.00  0.00    +0.000 A 
ATOM     14  N   UNL     1      44.271   4.185  13.308  0.00  0.00    +0.000 NA
ENDBRANCH   8   9
ENDBRANCH   5   8
ENDBRANCH   1   2
BRANCH   1  15
ATOM     15  N   UNL     1      50.178   5.455  17.930  0.00  0.00    +0.000 N 
ATOM     16  C   UNL     1      51.422   5.429  17.363  0.00  0.00    +0.000 C 
ATOM     17  O   UNL     1      51.777   6.232  16.507  0.00  0.00    +0.000 OA
ATOM     18  H   UNL     1      49.884   4.671  18.501  0.00  0.00    +0.000 HD
BRANCH  16  19
ATOM     19  C   UNL     1      52.340   4.404  17.885  0.00  0.00    +0.000 A 
ATOM     20  C   UNL     1      53.552   4.778  18.450  0.00  0.00    +0.000 A 
ATOM     21  S   UNL     1      54.464   3.459  19.042  0.00  0.00    +0.000 S 
ATOM     22  C   UNL     1      53.295   2.345  18.512  0.00  0.00    +0.000 A 
ATOM     23  N   UNL     1      53.454   1.007  18.671  0.00  0.00    +0.000 NA
ATOM     24  N   UNL     1      52.578   0.223  18.224  0.00  0.00    +0.000 NA
ATOM     25  N   UNL     1      51.473   0.738  17.612  0.00  0.00    +0.000 N 
ATOM     26  C   UNL     1      51.191   2.073  17.446  0.00  0.00    +0.000 A 
ATOM     27  O   UNL     1      50.138   2.451  16.950  0.00  0.00    +0.000 OA
ATOM     28  C   UNL     1      52.218   2.967  17.924  0.00  0.00    +0.000 A 
ATOM     29  H   UNL     1      50.789   0.068  17.286  0.00  0.00    +0.000 HD
ENDBRANCH  16  19
ENDBRANCH   1  15
BRANCH   1  31
ATOM     30  C   UNL     1      47.653   8.033  18.860  0.00  0.00    +0.000 C 
ATOM     31  C   UNL     1      48.132   6.592  18.717  0.00  0.00    +0.000 C 
ENDBRANCH   1  31
TORSDOF 6
ENDMDL
MODEL 6
REMARK VINA RESULT:    -7.638      2.439      3.271
REMARK INTER + INTRA:         -10.793
REMARK INTER:                  -9.377
REMARK INTRA:                  -1.417
REMARK UNBOUND:                -0.476
REMARK  Name = 
REMARK  7 active torsions:
REMARK  status: ('A' for Active; 'I' for Inactive)
REMARK    1  A    between atoms: C_1  and  C_2
REMARK    2  A    between atoms: C_2  and  C_3
REMARK    3  A    between atoms: C_3  and  N_4
REMARK    4  A    between atoms: C_3  and  C_17
REMARK    5  A    between atoms: C_5  and  C_7
REMARK    6  A    between atoms: C_20  and  O_21
REMARK    7  A    between atoms: O_21  and  C_22
REMARK                            x       y       z     vdW  Elec       q    Type
REMARK                         _______ _______ _______ _____ _____    ______ ____
ROOT
ATOM      1  C   UNL     1      48.199   7.701  14.066  0.00  0.00    +0.000 C 
ENDROOT
BRANCH   1   2
ATOM      2  C   UNL     1      47.221   6.987  13.145  0.00  0.00    +0.000 A 
ATOM      3  C   UNL     1      46.561   7.707  12.142  0.00  0.00    +0.000 A 
ATOM      4  C   UNL     1      45.646   7.071  11.302  0.00  0.00    +0.000 A 
ATOM      5  C   UNL     1      45.418   5.698  11.416  0.00  0.00    +0.000 A 
ATOM      6  C   UNL     1      46.058   4.972  12.420  0.00  0.00    +0.000 A 
ATOM      7  C   UNL     1      46.955   5.611  13.278  0.00  0.00    +0.000 A 
BRANCH   5   8
ATOM      8  O   UNL     1      44.525   5.006  10.631  0.00  0.00    +0.000 OA
BRANCH   8   9
ATOM      9  C   UNL     1      45.031   4.169   9.643  0.00  0.00    +0.000 A 
ATOM     10  C   UNL     1      44.809   2.811   9.814  0.00  0.00    +0.000 A 
ATOM     11  C   UNL     1      45.286   1.942   8.838  0.00  0.00    +0.000 A 
ATOM     12  C   UNL     1      45.964   2.452   7.738  0.00  0.00    +0.000 A 
ATOM     13  C   UNL     1      46.158   3.820   7.666  0.00  0.00    +0.000 A 
ATOM     14  N   UNL     1      45.722   4.686   8.602  0.00  0.00    +0.000 NA
ENDBRANCH   8   9
ENDBRANCH   5   8
ENDBRANCH   1   2
BRANCH   1  15
ATOM     15  N   UNL     1      48.117   7.105  15.389  0.00  0.00    +0.000 N 
ATOM     16  C   UNL     1      49.181   6.564  16.055  0.00  0.00    +0.000 C 
ATOM     17  O   UNL     1      50.319   6.566  15.596  0.00  0.00    +0.000 OA
ATOM     18  H   UNL     1      47.181   6.926  15.736  0.00  0.00    +0.000 HD
BRANCH  16  19
ATOM     19  C   UNL     1      48.891   6.024  17.392  0.00  0.00    +0.000 A 
ATOM     20  C   UNL     1      49.127   4.683  17.668  0.00  0.00    +0.000 A 
ATOM     21  S   UNL     1      48.775   4.247  19.282  0.00  0.00    +0.000 S 
ATOM     22  C   UNL     1      48.244   5.820  19.647  0.00  0.00    +0.000 A 
ATOM     23  N   UNL     1      47.765   6.150  20.873  0.00  0.00    +0.000 NA
ATOM     24  N   UNL     1      47.347   7.318  21.080  0.00  0.00    +0.000 NA
ATOM     25  N   UNL     1      47.409   8.235  20.071  0.00  0.00    +0.000 N 
ATOM     26  C   UNL     1      47.921   8.020  18.815  0.00  0.00    +0.000 A 
ATOM     27  O   UNL     1      48.006   8.922  17.991  0.00  0.00    +0.000 OA
ATOM     28  C   UNL     1      48.362   6.668  18.570  0.00  0.00    +0.000 A 
ATOM     29  H   UNL     1      47.077   9.165  20.291  0.00  0.00    +0.000 HD
ENDBRANCH  16  19
ENDBRANCH   1  15
BRANCH   1  31
ATOM     30  C   UNL     1      49.066  10.014  14.737  0.00  0.00    +0.000 C 
ATOM     31  C   UNL     1      47.920   9.216  14.122  0.00  0.00    +0.000 C 
ENDBRANCH   1  31
TORSDOF 6
ENDMDL
MODEL 7
REMARK VINA RESULT:    -7.501      1.847      2.524
REMARK INTER + INTRA:         -10.609
REMARK INTER:                  -9.447
REMARK INTRA:                  -1.161
REMARK UNBOUND:                -0.476
REMARK  Name = 
REMARK  7 active torsions:
REMARK  status: ('A' for Active; 'I' for Inactive)
REMARK    1  A    between atoms: C_1  and  C_2
REMARK    2  A    between atoms: C_2  and  C_3
REMARK    3  A    between atoms: C_3  and  N_4
REMARK    4  A    between atoms: C_3  and  C_17
REMARK    5  A    between atoms: C_5  and  C_7
REMARK    6  A    between atoms: C_20  and  O_21
REMARK    7  A    between atoms: O_21  and  C_22
REMARK                            x       y       z     vdW  Elec       q    Type
REMARK                         _______ _______ _______ _____ _____    ______ ____
ROOT
ATOM      1  C   UNL     1      48.199   7.903  13.697  0.00  0.00    +0.000 C 
ENDROOT
BRANCH   1   2
ATOM      2  C   UNL     1      47.118   7.109  12.980  0.00  0.00    +0.000 A 
ATOM      3  C   UNL     1      46.240   7.763  12.107  0.00  0.00    +0.000 A 
ATOM      4  C   UNL     1      45.230   7.053  11.458  0.00  0.00    +0.000 A 
ATOM      5  C   UNL     1      45.115   5.672  11.629  0.00  0.00    +0.000 A 
ATOM      6  C   UNL     1      45.972   5.010  12.507  0.00  0.00    +0.000 A 
ATOM      7  C   UNL     1      46.968   5.723  13.178  0.00  0.00    +0.000 A 
BRANCH   5   8
ATOM      8  O   UNL     1      44.140   4.908  11.030  0.00  0.00    +0.000 OA
BRANCH   8   9
ATOM      9  C   UNL     1      44.522   4.021  10.031  0.00  0.00    +0.000 A 
ATOM     10  C   UNL     1      45.281   4.549   8.997  0.00  0.00    +0.000 A 
ATOM     11  C   UNL     1      45.697   3.690   7.985  0.00  0.00    +0.000 A 
ATOM     12  C   UNL     1      45.343   2.347   8.037  0.00  0.00    +0.000 A 
ATOM     13  C   UNL     1      44.563   1.917   9.097  0.00  0.00    +0.000 A 
ATOM     14  N   UNL     1      44.132   2.727  10.083  0.00  0.00    +0.000 NA
ENDBRANCH   8   9
ENDBRANCH   5   8
ENDBRANCH   1   2
BRANCH   1  15
ATOM     15  N   UNL     1      48.113   7.632  15.122  0.00  0.00    +0.000 N 
ATOM     16  C   UNL     1      49.116   7.061  15.857  0.00  0.00    +0.000 C 
ATOM     17  O   UNL     1      50.200   6.755  15.371  0.00  0.00    +0.000 OA
ATOM     18  H   UNL     1      47.188   7.706  15.531  0.00  0.00    +0.000 HD
BRANCH  16  19
ATOM     19  C   UNL     1      48.836   6.884  17.290  0.00  0.00    +0.000 A 
ATOM     20  C   UNL     1      48.577   7.989  18.091  0.00  0.00    +0.000 A 
ATOM     21  S   UNL     1      48.229   7.588  19.715  0.00  0.00    +0.000 S 
ATOM     22  C   UNL     1      48.469   5.933  19.412  0.00  0.00    +0.000 A 
ATOM     23  N   UNL     1      48.360   5.000  20.392  0.00  0.00    +0.000 NA
ATOM     24  N   UNL     1      48.587   3.792  20.125  0.00  0.00    +0.000 NA
ATOM     25  N   UNL     1      48.912   3.444  18.846  0.00  0.00    +0.000 N 
ATOM     26  C   UNL     1      48.998   4.298  17.773  0.00  0.00    +0.000 A 
ATOM     27  O   UNL     1      49.224   3.890  16.641  0.00  0.00    +0.000 OA
ATOM     28  C   UNL     1      48.777   5.687  18.094  0.00  0.00    +0.000 A 
ATOM     29  H   UNL     1      49.068   2.458  18.676  0.00  0.00    +0.000 HD
ENDBRANCH  16  19
ENDBRANCH   1  15
BRANCH   1  31
ATOM     30  C   UNL     1      49.314  10.000  12.743  0.00  0.00    +0.000 C 
ATOM     31  C   UNL     1      48.075   9.413  13.412  0.00  0.00    +0.000 C 
ENDBRANCH   1  31
TORSDOF 6
ENDMDL
MODEL 8
REMARK VINA RESULT:    -7.488      2.548      4.156
REMARK INTER + INTRA:         -10.590
REMARK INTER:                 -10.305
REMARK INTRA:                  -0.286
REMARK UNBOUND:                -0.476
REMARK  Name = 
REMARK  7 active torsions:
REMARK  status: ('A' for Active; 'I' for Inactive)
REMARK    1  A    between atoms: C_1  and  C_2
REMARK    2  A    between atoms: C_2  and  C_3
REMARK    3  A    between atoms: C_3  and  N_4
REMARK    4  A    between atoms: C_3  and  C_17
REMARK    5  A    between atoms: C_5  and  C_7
REMARK    6  A    between atoms: C_20  and  O_21
REMARK    7  A    between atoms: O_21  and  C_22
REMARK                            x       y       z     vdW  Elec       q    Type
REMARK                         _______ _______ _______ _____ _____    ______ ____
ROOT
ATOM      1  C   UNL     1      46.064   5.169  13.953  0.00  0.00    +0.000 C 
ENDROOT
BRANCH   1   2
ATOM      2  C   UNL     1      45.675   4.667  12.570  0.00  0.00    +0.000 A 
ATOM      3  C   UNL     1      45.659   5.556  11.489  0.00  0.00    +0.000 A 
ATOM      4  C   UNL     1      45.285   5.117  10.219  0.00  0.00    +0.000 A 
ATOM      5  C   UNL     1      44.974   3.773   9.999  0.00  0.00    +0.000 A 
ATOM      6  C   UNL     1      44.970   2.880  11.070  0.00  0.00    +0.000 A 
ATOM      7  C   UNL     1      45.320   3.324  12.347  0.00  0.00    +0.000 A 
BRANCH   5   8
ATOM      8  O   UNL     1      44.587   3.270   8.779  0.00  0.00    +0.000 OA
BRANCH   8   9
ATOM      9  C   UNL     1      45.558   2.689   7.971  0.00  0.00    +0.000 A 
ATOM     10  C   UNL     1      45.983   3.438   6.884  0.00  0.00    +0.000 A 
ATOM     11  C   UNL     1      46.966   2.898   6.061  0.00  0.00    +0.000 A 
ATOM     12  C   UNL     1      47.484   1.640   6.346  0.00  0.00    +0.000 A 
ATOM     13  C   UNL     1      46.980   0.958   7.440  0.00  0.00    +0.000 A 
ATOM     14  N   UNL     1      46.018   1.447   8.246  0.00  0.00    +0.000 NA
ENDBRANCH   8   9
ENDBRANCH   5   8
ENDBRANCH   1   2
BRANCH   1  15
ATOM     15  N   UNL     1      46.606   6.512  13.827  0.00  0.00    +0.000 N 
ATOM     16  C   UNL     1      47.894   6.788  13.459  0.00  0.00    +0.000 C 
ATOM     17  O   UNL     1      48.703   5.911  13.170  0.00  0.00    +0.000 OA
ATOM     18  H   UNL     1      46.039   7.257  14.216  0.00  0.00    +0.000 HD
BRANCH  16  19
ATOM     19  C   UNL     1      48.243   8.215  13.376  0.00  0.00    +0.000 A 
ATOM     20  C   UNL     1      48.237   8.863  12.148  0.00  0.00    +0.000 A 
ATOM     21  S   UNL     1      48.622  10.524  12.252  0.00  0.00    +0.000 S 
ATOM     22  C   UNL     1      48.864  10.417  13.931  0.00  0.00    +0.000 A 
ATOM     23  N   UNL     1      49.250  11.488  14.671  0.00  0.00    +0.000 NA
ATOM     24  N   UNL     1      49.455  11.346  15.903  0.00  0.00    +0.000 NA
ATOM     25  N   UNL     1      49.258  10.122  16.474  0.00  0.00    +0.000 N 
ATOM     26  C   UNL     1      48.820   8.991  15.829  0.00  0.00    +0.000 A 
ATOM     27  O   UNL     1      48.599   7.949  16.432  0.00  0.00    +0.000 OA
ATOM     28  C   UNL     1      48.626   9.149  14.408  0.00  0.00    +0.000 A 
ATOM     29  H   UNL     1      49.418  10.062  17.471  0.00  0.00    +0.000 HD
ENDBRANCH  16  19
ENDBRANCH   1  15
BRANCH   1  31
ATOM     30  C   UNL     1      47.196   4.465  16.137  0.00  0.00    +0.000 C 
ATOM     31  C   UNL     1      47.072   4.225  14.635  0.00  0.00    +0.000 C 
ENDBRANCH   1  31
TORSDOF 6
ENDMDL
MODEL 9
REMARK VINA RESULT:    -7.338      3.336      8.223
REMARK INTER + INTRA:         -10.389
REMARK INTER:                  -9.141
REMARK INTRA:                  -1.247
REMARK UNBOUND:                -0.476
REMARK  Name = 
REMARK  7 active torsions:
REMARK  status: ('A' for Active; 'I' for Inactive)
REMARK    1  A    between atoms: C_1  and  C_2
REMARK    2  A    between atoms: C_2  and  C_3
REMARK    3  A    between atoms: C_3  and  N_4
REMARK    4  A    between atoms: C_3  and  C_17
REMARK    5  A    between atoms: C_5  and  C_7
REMARK    6  A    between atoms: C_20  and  O_21
REMARK    7  A    between atoms: O_21  and  C_22
REMARK                            x       y       z     vdW  Elec       q    Type
REMARK                         _______ _______ _______ _____ _____    ______ ____
ROOT
ATOM      1  C   UNL     1      48.256   7.679  12.478  0.00  0.00    +0.000 C 
ENDROOT
BRANCH   1   2
ATOM      2  C   UNL     1      48.712   7.177  13.840  0.00  0.00    +0.000 A 
ATOM      3  C   UNL     1      47.944   6.223  14.519  0.00  0.00    +0.000 A 
ATOM      4  C   UNL     1      48.337   5.767  15.778  0.00  0.00    +0.000 A 
ATOM      5  C   UNL     1      49.529   6.215  16.352  0.00  0.00    +0.000 A 
ATOM      6  C   UNL     1      50.295   7.176  15.693  0.00  0.00    +0.000 A 
ATOM      7  C   UNL     1      49.890   7.653  14.444  0.00  0.00    +0.000 A 
BRANCH   5   8
ATOM      8  O   UNL     1      49.975   5.819  17.591  0.00  0.00    +0.000 OA
BRANCH   8   9
ATOM      9  C   UNL     1      49.203   6.144  18.701  0.00  0.00    +0.000 A 
ATOM     10  C   UNL     1      48.810   5.087  19.508  0.00  0.00    +0.000 A 
ATOM     11  C   UNL     1      48.050   5.373  20.637  0.00  0.00    +0.000 A 
ATOM     12  C   UNL     1      47.709   6.691  20.918  0.00  0.00    +0.000 A 
ATOM     13  C   UNL     1      48.128   7.676  20.041  0.00  0.00    +0.000 A 
ATOM     14  N   UNL     1      48.851   7.429  18.931  0.00  0.00    +0.000 NA
ENDBRANCH   8   9
ENDBRANCH   5   8
ENDBRANCH   1   2
BRANCH   1  15
ATOM     15  N   UNL     1      47.471   6.638  11.834  0.00  0.00    +0.000 N 
ATOM     16  C   UNL     1      46.169   6.789  11.444  0.00  0.00    +0.000 C 
ATOM     17  O   UNL     1      45.555   7.843  11.580  0.00  0.00    +0.000 OA
ATOM     18  H   UNL     1      47.871   5.707  11.854  0.00  0.00    +0.000 HD
BRANCH  16  19
ATOM     19  C   UNL     1      45.557   5.619  10.796  0.00  0.00    +0.000 A 
ATOM     20  C   UNL     1      45.711   5.420   9.430  0.00  0.00    +0.000 A 
ATOM     21  S   UNL     1      44.972   3.988   8.862  0.00  0.00    +0.000 S 
ATOM     22  C   UNL     1      44.376   3.619  10.410  0.00  0.00    +0.000 A 
ATOM     23  N   UNL     1      43.612   2.521  10.643  0.00  0.00    +0.000 NA
ATOM     24  N   UNL     1      43.162   2.316  11.798  0.00  0.00    +0.000 NA
ATOM     25  N   UNL     1      43.474   3.188  12.800  0.00  0.00    +0.000 N 
ATOM     26  C   UNL     1      44.278   4.297  12.683  0.00  0.00    +0.000 A 
ATOM     27  O   UNL     1      44.567   4.988  13.652  0.00  0.00    +0.000 OA
ATOM     28  C   UNL     1      44.758   4.551  11.347  0.00  0.00    +0.000 A 
ATOM     29  H   UNL     1      43.103   2.970  13.716  0.00  0.00    +0.000 HD
ENDBRANCH  16  19
ENDBRANCH   1  15
BRANCH   1  31
ATOM     30  C   UNL     1      49.542   9.605  11.389  0.00  0.00    +0.000 C 
ATOM     31  C   UNL     1      49.450   8.097  11.599  0.00  0.00    +0.000 C 
ENDBRANCH   1  31
TORSDOF 6
ENDMDL
