MODEL 1
REMARK VINA RESULT:    -8.915      0.000      0.000
REMARK INTER + INTRA:         -12.170
REMARK INTER:                 -11.521
REMARK INTRA:                  -0.649
REMARK UNBOUND:                -0.649
REMARK  Name = 
REMARK  5 active torsions:
REMARK  status: ('A' for Active; 'I' for Inactive)
REMARK    1  A    between atoms: C_2  and  C_4
REMARK    2  A    between atoms: C_7  and  O_8
REMARK    3  A    between atoms: O_8  and  C_9
REMARK    4  A    between atoms: C_9  and  C_10
REMARK    5  A    between atoms: C_14  and  C_15
REMARK                            x       y       z     vdW  Elec       q    Type
REMARK                         _______ _______ _______ _____ _____    ______ ____
ROOT
ATOM      1  C   UNL     1      43.437   4.351  11.017  0.00  0.00    +0.000 C 
ENDROOT
BRANCH   1   2
ATOM      2  C   UNL     1      44.624   4.761  11.846  0.00  0.00    +0.000 A 
ATOM      3  C   UNL     1      45.120   3.917  12.831  0.00  0.00    +0.000 A 
ATOM      4  N   UNL     1      46.202   4.194  13.589  0.00  0.00    +0.000 NA
ATOM      5  C   UNL     1      46.826   5.373  13.345  0.00  0.00    +0.000 A 
ATOM      6  C   UNL     1      46.452   6.296  12.364  0.00  0.00    +0.000 A 
ATOM      7  C   UNL     1      45.325   5.948  11.607  0.00  0.00    +0.000 A 
BRANCH   6   8
ATOM      8  C   UNL     1      47.191   7.554  12.134  0.00  0.00    +0.000 A 
ATOM      9  C   UNL     1      48.563   7.554  11.811  0.00  0.00    +0.000 A 
ATOM     10  C   UNL     1      49.264   8.746  11.594  0.00  0.00    +0.000 A 
ATOM     11  C   UNL     1      48.604   9.965  11.684  0.00  0.00    +0.000 A 
ATOM     12  C   UNL     1      47.252   9.984  11.992  0.00  0.00    +0.000 A 
ATOM     13  F   UNL     1      46.609  11.155  12.075  0.00  0.00    +0.000 F 
ATOM     14  C   UNL     1      46.551   8.803  12.220  0.00  0.00    +0.000 A 
ENDBRANCH   6   8
ENDBRANCH   1   2
BRANCH   1  15
ATOM     15  O   UNL     1      43.618   4.733   9.644  0.00  0.00    +0.000 OA
BRANCH  15  19
ATOM     16  C   UNL     1      46.349   2.294   7.759  0.00  0.00    +0.000 A 
ATOM     17  C   UNL     1      45.446   1.742   8.670  0.00  0.00    +0.000 A 
ATOM     18  C   UNL     1      44.525   2.576   9.308  0.00  0.00    +0.000 A 
ATOM     19  C   UNL     1      44.544   3.930   9.008  0.00  0.00    +0.000 A 
ATOM     20  N   UNL     1      45.413   4.489   8.142  0.00  0.00    +0.000 NA
ATOM     21  C   UNL     1      46.304   3.664   7.542  0.00  0.00    +0.000 A 
BRANCH  16  23
ATOM     22  N   UNL     1      48.465   2.154   6.585  0.00  0.00    +0.000 N 
ATOM     23  C   UNL     1      47.351   1.495   7.027  0.00  0.00    +0.000 C 
ATOM     24  O   UNL     1      47.211   0.294   6.860  0.00  0.00    +0.000 OA
ATOM     25  H   UNL     1      49.195   1.582   6.179  0.00  0.00    +0.000 HD
ATOM     26  H   UNL     1      48.724   3.072   6.919  0.00  0.00    +0.000 HD
ENDBRANCH  16  23
ENDBRANCH  15  19
ENDBRANCH   1  15
TORSDOF 5
ENDMDL
MODEL 2
REMARK VINA RESULT:    -8.760      1.664      1.882
REMARK INTER + INTRA:         -11.970
REMARK INTER:                 -11.143
REMARK INTRA:                  -0.826
REMARK UNBOUND:                -0.649
REMARK  Name = 
REMARK  5 active torsions:
REMARK  status: ('A' for Active; 'I' for Inactive)
REMARK    1  A    between atoms: C_2  and  C_4
REMARK    2  A    between atoms: C_7  and  O_8
REMARK    3  A    between atoms: O_8  and  C_9
REMARK    4  A    between atoms: C_9  and  C_10
REMARK    5  A    between atoms: C_14  and  C_15
REMARK                            x       y       z     vdW  Elec       q    Type
REMARK                         _______ _______ _______ _____ _____    ______ ____
ROOT
ATOM      1  C   UNL     1      43.779   5.162  10.644  0.00  0.00    +0.000 C 
ENDROOT
BRANCH   1   2
ATOM      2  C   UNL     1      44.826   5.160  11.725  0.00  0.00    +0.000 A 
ATOM      3  C   UNL     1      44.756   4.249  12.771  0.00  0.00    +0.000 A 
ATOM      4  N   UNL     1      45.675   4.157  13.755  0.00  0.00    +0.000 NA
ATOM      5  C   UNL     1      46.723   5.013  13.686  0.00  0.00    +0.000 A 
ATOM      6  C   UNL     1      46.933   5.953  12.673  0.00  0.00    +0.000 A 
ATOM      7  C   UNL     1      45.947   5.996  11.677  0.00  0.00    +0.000 A 
BRANCH   6   8
ATOM      8  C   UNL     1      48.113   6.841  12.644  0.00  0.00    +0.000 A 
ATOM      9  C   UNL     1      48.398   7.652  11.528  0.00  0.00    +0.000 A 
ATOM     10  C   UNL     1      49.516   8.493  11.500  0.00  0.00    +0.000 A 
ATOM     11  C   UNL     1      50.370   8.548  12.596  0.00  0.00    +0.000 A 
ATOM     12  C   UNL     1      50.100   7.763  13.706  0.00  0.00    +0.000 A 
ATOM     13  F   UNL     1      50.916   7.817  14.767  0.00  0.00    +0.000 F 
ATOM     14  C   UNL     1      48.996   6.917  13.736  0.00  0.00    +0.000 A 
ENDBRANCH   6   8
ENDBRANCH   1   2
BRANCH   1  15
ATOM     15  O   UNL     1      43.555   3.833  10.148  0.00  0.00    +0.000 OA
BRANCH  15  19
ATOM     16  C   UNL     1      46.463   2.639   7.487  0.00  0.00    +0.000 A 
ATOM     17  C   UNL     1      45.948   1.719   8.403  0.00  0.00    +0.000 A 
ATOM     18  C   UNL     1      44.965   2.133   9.304  0.00  0.00    +0.000 A 
ATOM     19  C   UNL     1      44.534   3.451   9.253  0.00  0.00    +0.000 A 
ATOM     20  N   UNL     1      45.024   4.360   8.385  0.00  0.00    +0.000 NA
ATOM     21  C   UNL     1      45.984   3.941   7.527  0.00  0.00    +0.000 A 
BRANCH  16  23
ATOM     22  N   UNL     1      47.473   2.994   5.312  0.00  0.00    +0.000 N 
ATOM     23  C   UNL     1      47.494   2.296   6.488  0.00  0.00    +0.000 C 
ATOM     24  O   UNL     1      48.352   1.459   6.718  0.00  0.00    +0.000 OA
ATOM     25  H   UNL     1      48.244   2.830   4.677  0.00  0.00    +0.000 HD
ATOM     26  H   UNL     1      46.946   3.848   5.195  0.00  0.00    +0.000 HD
ENDBRANCH  16  23
ENDBRANCH  15  19
ENDBRANCH   1  15
TORSDOF 5
ENDMDL
MODEL 3
REMARK VINA RESULT:    -8.375      2.943      4.027
REMARK INTER + INTRA:         -11.472
REMARK INTER:                 -10.869
REMARK INTRA:                  -0.603
REMARK UNBOUND:                -0.649
REMARK  Name = 
REMARK  5 active torsions:
REMARK  status: ('A' for Active; 'I' for Inactive)
REMARK    1  A    between atoms: C_2  and  C_4
REMARK    2  A    between atoms: C_7  and  O_8
REMARK    3  A    between atoms: O_8  and  C_9
REMARK    4  A    between atoms: C_9  and  C_10
REMARK    5  A    between atoms: C_14  and  C_15
REMARK                            x       y       z     vdW  Elec       q    Type
REMARK                         _______ _______ _______ _____ _____    ______ ____
ROOT
ATOM      1  C   UNL     1      44.224   4.482  11.421  0.00  0.00    +0.000 C 
ENDROOT
BRANCH   1   2
ATOM      2  C   UNL     1      45.359   5.216  12.084  0.00  0.00    +0.000 A 
ATOM      3  C   UNL     1      45.858   6.389  11.531  0.00  0.00    +0.000 A 
ATOM      4  N   UNL     1      46.844   7.125  12.084  0.00  0.00    +0.000 NA
ATOM      5  C   UNL     1      47.354   6.671  13.255  0.00  0.00    +0.000 A 
ATOM      6  C   UNL     1      46.923   5.528  13.934  0.00  0.00    +0.000 A 
ATOM      7  C   UNL     1      45.892   4.810  13.312  0.00  0.00    +0.000 A 
BRANCH   6   8
ATOM      8  C   UNL     1      47.506   5.102  15.223  0.00  0.00    +0.000 A 
ATOM      9  C   UNL     1      48.550   5.824  15.834  0.00  0.00    +0.000 A 
ATOM     10  C   UNL     1      49.103   5.419  17.055  0.00  0.00    +0.000 A 
ATOM     11  C   UNL     1      48.616   4.285  17.695  0.00  0.00    +0.000 A 
ATOM     12  C   UNL     1      47.584   3.567  17.112  0.00  0.00    +0.000 A 
ATOM     13  F   UNL     1      47.106   2.478  17.727  0.00  0.00    +0.000 F 
ATOM     14  C   UNL     1      47.036   3.959  15.893  0.00  0.00    +0.000 A 
ENDBRANCH   6   8
ENDBRANCH   1   2
BRANCH   1  15
ATOM     15  O   UNL     1      44.119   4.850  10.037  0.00  0.00    +0.000 OA
BRANCH  15  19
ATOM     16  C   UNL     1      46.538   2.505   7.668  0.00  0.00    +0.000 A 
ATOM     17  C   UNL     1      45.685   1.900   8.594  0.00  0.00    +0.000 A 
ATOM     18  C   UNL     1      44.871   2.702   9.396  0.00  0.00    +0.000 A 
ATOM     19  C   UNL     1      44.940   4.079   9.239  0.00  0.00    +0.000 A 
ATOM     20  N   UNL     1      45.763   4.687   8.361  0.00  0.00    +0.000 NA
ATOM     21  C   UNL     1      46.552   3.891   7.600  0.00  0.00    +0.000 A 
BRANCH  16  23
ATOM     22  N   UNL     1      48.347   2.463   6.055  0.00  0.00    +0.000 N 
ATOM     23  C   UNL     1      47.427   1.745   6.768  0.00  0.00    +0.000 C 
ATOM     24  O   UNL     1      47.372   0.528   6.696  0.00  0.00    +0.000 OA
ATOM     25  H   UNL     1      49.022   1.927   5.523  0.00  0.00    +0.000 HD
ATOM     26  H   UNL     1      48.582   3.420   6.277  0.00  0.00    +0.000 HD
ENDBRANCH  16  23
ENDBRANCH  15  19
ENDBRANCH   1  15
TORSDOF 5
ENDMDL
MODEL 4
REMARK VINA RESULT:    -8.276      1.934      2.375
REMARK INTER + INTRA:         -11.344
REMARK INTER:                 -10.667
REMARK INTRA:                  -0.677
REMARK UNBOUND:                -0.649
REMARK  Name = 
REMARK  5 active torsions:
REMARK  status: ('A' for Active; 'I' for Inactive)
REMARK    1  A    between atoms: C_2  and  C_4
REMARK    2  A    between atoms: C_7  and  O_8
REMARK    3  A    between atoms: O_8  and  C_9
REMARK    4  A    between atoms: C_9  and  C_10
REMARK    5  A    between atoms: C_14  and  C_15
REMARK                            x       y       z     vdW  Elec       q    Type
REMARK                         _______ _______ _______ _____ _____    ______ ____
ROOT
ATOM      1  C   UNL     1      44.376   3.255  11.553  0.00  0.00    +0.000 C 
ENDROOT
BRANCH   1   2
ATOM      2  C   UNL     1      44.718   4.718  11.639  0.00  0.00    +0.000 A 
ATOM      3  C   UNL     1      43.743   5.683  11.420  0.00  0.00    +0.000 A 
ATOM      4  N   UNL     1      43.960   7.011  11.517  0.00  0.00    +0.000 NA
ATOM      5  C   UNL     1      45.214   7.397  11.858  0.00  0.00    +0.000 A 
ATOM      6  C   UNL     1      46.277   6.532  12.137  0.00  0.00    +0.000 A 
ATOM      7  C   UNL     1      45.986   5.165  12.025  0.00  0.00    +0.000 A 
BRANCH   6   8
ATOM      8  C   UNL     1      47.616   7.018  12.528  0.00  0.00    +0.000 A 
ATOM      9  C   UNL     1      48.075   6.925  13.857  0.00  0.00    +0.000 A 
ATOM     10  C   UNL     1      49.343   7.386  14.227  0.00  0.00    +0.000 A 
ATOM     11  C   UNL     1      50.185   7.943  13.271  0.00  0.00    +0.000 A 
ATOM     12  C   UNL     1      49.753   8.034  11.957  0.00  0.00    +0.000 A 
ATOM     13  F   UNL     1      50.562   8.564  11.031  0.00  0.00    +0.000 F 
ATOM     14  C   UNL     1      48.489   7.587  11.584  0.00  0.00    +0.000 A 
ENDBRANCH   6   8
ENDBRANCH   1   2
BRANCH   1  15
ATOM     15  O   UNL     1      43.751   2.951  10.296  0.00  0.00    +0.000 OA
BRANCH  15  19
ATOM     16  C   UNL     1      46.528   2.512   7.287  0.00  0.00    +0.000 A 
ATOM     17  C   UNL     1      45.847   3.723   7.424  0.00  0.00    +0.000 A 
ATOM     18  C   UNL     1      44.904   3.864   8.445  0.00  0.00    +0.000 A 
ATOM     19  C   UNL     1      44.681   2.786   9.289  0.00  0.00    +0.000 A 
ATOM     20  N   UNL     1      45.317   1.602   9.170  0.00  0.00    +0.000 NA
ATOM     21  C   UNL     1      46.219   1.484   8.167  0.00  0.00    +0.000 A 
BRANCH  16  23
ATOM     22  N   UNL     1      47.534   3.098   5.160  0.00  0.00    +0.000 N 
ATOM     23  C   UNL     1      47.549   2.270   6.249  0.00  0.00    +0.000 C 
ATOM     24  O   UNL     1      48.394   1.399   6.377  0.00  0.00    +0.000 OA
ATOM     25  H   UNL     1      48.300   2.996   4.507  0.00  0.00    +0.000 HD
ATOM     26  H   UNL     1      47.020   3.968   5.145  0.00  0.00    +0.000 HD
ENDBRANCH  16  23
ENDBRANCH  15  19
ENDBRANCH   1  15
TORSDOF 5
ENDMDL
MODEL 5
REMARK VINA RESULT:    -8.101      3.853      7.359
REMARK INTER + INTRA:         -11.119
REMARK INTER:                 -10.563
REMARK INTRA:                  -0.556
REMARK UNBOUND:                -0.649
REMARK  Name = 
REMARK  5 active torsions:
REMARK  status: ('A' for Active; 'I' for Inactive)
REMARK    1  A    between atoms: C_2  and  C_4
REMARK    2  A    between atoms: C_7  and  O_8
REMARK    3  A    between atoms: O_8  and  C_9
REMARK    4  A    between atoms: C_9  and  C_10
REMARK    5  A    between atoms: C_14  and  C_15
REMARK                            x       y       z     vdW  Elec       q    Type
REMARK                         _______ _______ _______ _____ _____    ______ ____
ROOT
ATOM      1  C   UNL     1      44.070   6.605  11.480  0.00  0.00    +0.000 C 
ENDROOT
BRANCH   1   2
ATOM      2  C   UNL     1      44.076   5.150  11.097  0.00  0.00    +0.000 A 
ATOM      3  C   UNL     1      43.255   4.245  11.756  0.00  0.00    +0.000 A 
ATOM      4  N   UNL     1      43.173   2.934  11.447  0.00  0.00    +0.000 NA
ATOM      5  C   UNL     1      43.946   2.506  10.418  0.00  0.00    +0.000 A 
ATOM      6  C   UNL     1      44.789   3.314   9.651  0.00  0.00    +0.000 A 
ATOM      7  C   UNL     1      44.825   4.667  10.019  0.00  0.00    +0.000 A 
BRANCH   6   8
ATOM      8  C   UNL     1      45.587   2.788   8.525  0.00  0.00    +0.000 A 
ATOM      9  C   UNL     1      46.032   3.625   7.483  0.00  0.00    +0.000 A 
ATOM     10  C   UNL     1      46.788   3.126   6.416  0.00  0.00    +0.000 A 
ATOM     11  C   UNL     1      47.124   1.778   6.374  0.00  0.00    +0.000 A 
ATOM     12  C   UNL     1      46.702   0.942   7.396  0.00  0.00    +0.000 A 
ATOM     13  F   UNL     1      47.028  -0.357   7.364  0.00  0.00    +0.000 F 
ATOM     14  C   UNL     1      45.941   1.429   8.454  0.00  0.00    +0.000 A 
ENDBRANCH   6   8
ENDBRANCH   1   2
BRANCH   1  15
ATOM     15  O   UNL     1      45.303   7.236  11.101  0.00  0.00    +0.000 OA
BRANCH  15  19
ATOM     16  C   UNL     1      47.970   7.364  14.236  0.00  0.00    +0.000 A 
ATOM     17  C   UNL     1      47.235   8.506  13.911  0.00  0.00    +0.000 A 
ATOM     18  C   UNL     1      46.335   8.456  12.845  0.00  0.00    +0.000 A 
ATOM     19  C   UNL     1      46.205   7.264  12.146  0.00  0.00    +0.000 A 
ATOM     20  N   UNL     1      46.912   6.152  12.433  0.00  0.00    +0.000 NA
ATOM     21  C   UNL     1      47.787   6.226  13.464  0.00  0.00    +0.000 A 
BRANCH  16  23
ATOM     22  N   UNL     1      48.557   7.902  16.527  0.00  0.00    +0.000 N 
ATOM     23  C   UNL     1      48.936   7.314  15.352  0.00  0.00    +0.000 C 
ATOM     24  O   UNL     1      50.006   6.736  15.243  0.00  0.00    +0.000 OA
ATOM     25  H   UNL     1      49.176   7.771  17.316  0.00  0.00    +0.000 HD
ATOM     26  H   UNL     1      47.600   8.160  16.722  0.00  0.00    +0.000 HD
ENDBRANCH  16  23
ENDBRANCH  15  19
ENDBRANCH   1  15
TORSDOF 5
ENDMDL
MODEL 6
REMARK VINA RESULT:    -8.022      3.895      7.262
REMARK INTER + INTRA:         -11.016
REMARK INTER:                 -10.239
REMARK INTRA:                  -0.777
REMARK UNBOUND:                -0.649
REMARK  Name = 
REMARK  5 active torsions:
REMARK  status: ('A' for Active; 'I' for Inactive)
REMARK    1  A    between atoms: C_2  and  C_4
REMARK    2  A    between atoms: C_7  and  O_8
REMARK    3  A    between atoms: O_8  and  C_9
REMARK    4  A    between atoms: C_9  and  C_10
REMARK    5  A    between atoms: C_14  and  C_15
REMARK                            x       y       z     vdW  Elec       q    Type
REMARK                         _______ _______ _______ _____ _____    ______ ____
ROOT
ATOM      1  C   UNL     1      44.290   6.482  11.820  0.00  0.00    +0.000 C 
ENDROOT
BRANCH   1   2
ATOM      2  C   UNL     1      44.194   5.070  11.309  0.00  0.00    +0.000 A 
ATOM      3  C   UNL     1      43.274   4.184  11.855  0.00  0.00    +0.000 A 
ATOM      4  N   UNL     1      43.100   2.917  11.427  0.00  0.00    +0.000 NA
ATOM      5  C   UNL     1      43.878   2.515  10.392  0.00  0.00    +0.000 A 
ATOM      6  C   UNL     1      44.816   3.312   9.730  0.00  0.00    +0.000 A 
ATOM      7  C   UNL     1      44.947   4.620  10.219  0.00  0.00    +0.000 A 
BRANCH   6   8
ATOM      8  C   UNL     1      45.617   2.819   8.591  0.00  0.00    +0.000 A 
ATOM      9  C   UNL     1      46.081   3.690   7.585  0.00  0.00    +0.000 A 
ATOM     10  C   UNL     1      46.839   3.222   6.505  0.00  0.00    +0.000 A 
ATOM     11  C   UNL     1      47.157   1.872   6.414  0.00  0.00    +0.000 A 
ATOM     12  C   UNL     1      46.716   1.002   7.400  0.00  0.00    +0.000 A 
ATOM     13  F   UNL     1      47.025  -0.298   7.321  0.00  0.00    +0.000 F 
ATOM     14  C   UNL     1      45.953   1.459   8.471  0.00  0.00    +0.000 A 
ENDBRANCH   6   8
ENDBRANCH   1   2
BRANCH   1  15
ATOM     15  O   UNL     1      45.211   6.564  12.919  0.00  0.00    +0.000 OA
BRANCH  15  19
ATOM     16  C   UNL     1      48.395   9.023  12.039  0.00  0.00    +0.000 A 
ATOM     17  C   UNL     1      48.452   7.671  11.693  0.00  0.00    +0.000 A 
ATOM     18  C   UNL     1      47.370   6.843  11.997  0.00  0.00    +0.000 A 
ATOM     19  C   UNL     1      46.272   7.401  12.636  0.00  0.00    +0.000 A 
ATOM     20  N   UNL     1      46.197   8.699  12.991  0.00  0.00    +0.000 NA
ATOM     21  C   UNL     1      47.262   9.483  12.695  0.00  0.00    +0.000 A 
BRANCH  16  23
ATOM     22  N   UNL     1      49.117  11.278  11.516  0.00  0.00    +0.000 N 
ATOM     23  C   UNL     1      49.481   9.980  11.749  0.00  0.00    +0.000 C 
ATOM     24  O   UNL     1      50.652   9.638  11.760  0.00  0.00    +0.000 OA
ATOM     25  H   UNL     1      49.870  11.947  11.424  0.00  0.00    +0.000 HD
ATOM     26  H   UNL     1      48.200  11.636  11.745  0.00  0.00    +0.000 HD
ENDBRANCH  16  23
ENDBRANCH  15  19
ENDBRANCH   1  15
TORSDOF 5
ENDMDL
MODEL 7
REMARK VINA RESULT:    -7.893      4.369      7.952
REMARK INTER + INTRA:         -10.849
REMARK INTER:                 -10.237
REMARK INTRA:                  -0.612
REMARK UNBOUND:                -0.649
REMARK  Name = 
REMARK  5 active torsions:
REMARK  status: ('A' for Active; 'I' for Inactive)
REMARK    1  A    between atoms: C_2  and  C_4
REMARK    2  A    between atoms: C_7  and  O_8
REMARK    3  A    between atoms: O_8  and  C_9
REMARK    4  A    between atoms: C_9  and  C_10
REMARK    5  A    between atoms: C_14  and  C_15
REMARK                            x       y       z     vdW  Elec       q    Type
REMARK                         _______ _______ _______ _____ _____    ______ ____
ROOT
ATOM      1  C   UNL     1      45.537   5.252  13.366  0.00  0.00    +0.000 C 
ENDROOT
BRANCH   1   2
ATOM      2  C   UNL     1      44.941   4.315  12.350  0.00  0.00    +0.000 A 
ATOM      3  C   UNL     1      43.697   3.738  12.569  0.00  0.00    +0.000 A 
ATOM      4  N   UNL     1      43.078   2.920  11.691  0.00  0.00    +0.000 NA
ATOM      5  C   UNL     1      43.733   2.672  10.530  0.00  0.00    +0.000 A 
ATOM      6  C   UNL     1      44.971   3.212  10.170  0.00  0.00    +0.000 A 
ATOM      7  C   UNL     1      45.559   4.058  11.122  0.00  0.00    +0.000 A 
BRANCH   6   8
ATOM      8  C   UNL     1      45.620   2.920   8.876  0.00  0.00    +0.000 A 
ATOM      9  C   UNL     1      45.913   3.942   7.951  0.00  0.00    +0.000 A 
ATOM     10  C   UNL     1      46.527   3.664   6.724  0.00  0.00    +0.000 A 
ATOM     11  C   UNL     1      46.872   2.357   6.401  0.00  0.00    +0.000 A 
ATOM     12  C   UNL     1      46.599   1.340   7.303  0.00  0.00    +0.000 A 
ATOM     13  F   UNL     1      46.934   0.080   7.000  0.00  0.00    +0.000 F 
ATOM     14  C   UNL     1      45.979   1.607   8.520  0.00  0.00    +0.000 A 
ENDBRANCH   6   8
ENDBRANCH   1   2
BRANCH   1  15
ATOM     15  O   UNL     1      46.969   5.148  13.376  0.00  0.00    +0.000 OA
BRANCH  15  19
ATOM     16  C   UNL     1      48.416   4.384  17.155  0.00  0.00    +0.000 A 
ATOM     17  C   UNL     1      48.584   5.653  16.597  0.00  0.00    +0.000 A 
ATOM     18  C   UNL     1      48.093   5.904  15.314  0.00  0.00    +0.000 A 
ATOM     19  C   UNL     1      47.453   4.874  14.640  0.00  0.00    +0.000 A 
ATOM     20  N   UNL     1      47.289   3.637  15.152  0.00  0.00    +0.000 NA
ATOM     21  C   UNL     1      47.781   3.413  16.393  0.00  0.00    +0.000 A 
BRANCH  16  23
ATOM     22  N   UNL     1      48.210   3.029  19.155  0.00  0.00    +0.000 N 
ATOM     23  C   UNL     1      48.888   4.024  18.507  0.00  0.00    +0.000 C 
ATOM     24  O   UNL     1      49.864   4.561  19.005  0.00  0.00    +0.000 OA
ATOM     25  H   UNL     1      48.603   2.715  20.033  0.00  0.00    +0.000 HD
ATOM     26  H   UNL     1      47.573   2.405  18.680  0.00  0.00    +0.000 HD
ENDBRANCH  16  23
ENDBRANCH  15  19
ENDBRANCH   1  15
TORSDOF 5
ENDMDL
MODEL 8
REMARK VINA RESULT:    -7.879      3.475      7.011
REMARK INTER + INTRA:         -10.832
REMARK INTER:                 -10.116
REMARK INTRA:                  -0.716
REMARK UNBOUND:                -0.649
REMARK  Name = 
REMARK  5 active torsions:
REMARK  status: ('A' for Active; 'I' for Inactive)
REMARK    1  A    between atoms: C_2  and  C_4
REMARK    2  A    between atoms: C_7  and  O_8
REMARK    3  A    between atoms: O_8  and  C_9
REMARK    4  A    between atoms: C_9  and  C_10
REMARK    5  A    between atoms: C_14  and  C_15
REMARK                            x       y       z     vdW  Elec       q    Type
REMARK                         _______ _______ _______ _____ _____    ______ ____
ROOT
ATOM      1  C   UNL     1      44.002   6.263  11.620  0.00  0.00    +0.000 C 
ENDROOT
BRANCH   1   2
ATOM      2  C   UNL     1      44.052   4.842  11.125  0.00  0.00    +0.000 A 
ATOM      3  C   UNL     1      43.246   3.868  11.700  0.00  0.00    +0.000 A 
ATOM      4  N   UNL     1      43.203   2.584  11.288  0.00  0.00    +0.000 NA
ATOM      5  C   UNL     1      44.000   2.256  10.242  0.00  0.00    +0.000 A 
ATOM      6  C   UNL     1      44.833   3.143   9.553  0.00  0.00    +0.000 A 
ATOM      7  C   UNL     1      44.828   4.464  10.025  0.00  0.00    +0.000 A 
BRANCH   6   8
ATOM      8  C   UNL     1      45.660   2.727   8.403  0.00  0.00    +0.000 A 
ATOM      9  C   UNL     1      46.244   1.445   8.341  0.00  0.00    +0.000 A 
ATOM     10  C   UNL     1      47.029   1.051   7.251  0.00  0.00    +0.000 A 
ATOM     11  C   UNL     1      47.239   1.928   6.194  0.00  0.00    +0.000 A 
ATOM     12  C   UNL     1      46.666   3.190   6.234  0.00  0.00    +0.000 A 
ATOM     13  F   UNL     1      46.861   4.037   5.216  0.00  0.00    +0.000 F 
ATOM     14  C   UNL     1      45.893   3.592   7.319  0.00  0.00    +0.000 A 
ENDBRANCH   6   8
ENDBRANCH   1   2
BRANCH   1  15
ATOM     15  O   UNL     1      44.804   6.419  12.801  0.00  0.00    +0.000 OA
BRANCH  15  19
ATOM     16  C   UNL     1      48.093   8.804  12.128  0.00  0.00    +0.000 A 
ATOM     17  C   UNL     1      46.904   9.381  12.578  0.00  0.00    +0.000 A 
ATOM     18  C   UNL     1      45.792   8.567  12.801  0.00  0.00    +0.000 A 
ATOM     19  C   UNL     1      45.914   7.205  12.566  0.00  0.00    +0.000 A 
ATOM     20  N   UNL     1      47.048   6.625  12.121  0.00  0.00    +0.000 NA
ATOM     21  C   UNL     1      48.111   7.435  11.901  0.00  0.00    +0.000 A 
BRANCH  16  23
ATOM     22  N   UNL     1      50.433   9.231  12.598  0.00  0.00    +0.000 N 
ATOM     23  C   UNL     1      49.325   9.578  11.875  0.00  0.00    +0.000 C 
ATOM     24  O   UNL     1      49.363  10.458  11.031  0.00  0.00    +0.000 OA
ATOM     25  H   UNL     1      51.298   9.692  12.344  0.00  0.00    +0.000 HD
ATOM     26  H   UNL     1      50.500   8.362  13.109  0.00  0.00    +0.000 HD
ENDBRANCH  16  23
ENDBRANCH  15  19
ENDBRANCH   1  15
TORSDOF 5
ENDMDL
MODEL 9
REMARK VINA RESULT:    -6.961      5.245      7.965
REMARK INTER + INTRA:          -9.645
REMARK INTER:                  -8.903
REMARK INTRA:                  -0.742
REMARK UNBOUND:                -0.649
REMARK  Name = 
REMARK  5 active torsions:
REMARK  status: ('A' for Active; 'I' for Inactive)
REMARK    1  A    between atoms: C_2  and  C_4
REMARK    2  A    between atoms: C_7  and  O_8
REMARK    3  A    between atoms: O_8  and  C_9
REMARK    4  A    between atoms: C_9  and  C_10
REMARK    5  A    between atoms: C_14  and  C_15
REMARK                            x       y       z     vdW  Elec       q    Type
REMARK                         _______ _______ _______ _____ _____    ______ ____
ROOT
ATOM      1  C   UNL     1      48.658   6.426  15.801  0.00  0.00    +0.000 C 
ENDROOT
BRANCH   1   2
ATOM      2  C   UNL     1      48.165   6.632  14.394  0.00  0.00    +0.000 A 
ATOM      3  C   UNL     1      48.730   7.610  13.586  0.00  0.00    +0.000 A 
ATOM      4  N   UNL     1      48.372   7.830  12.304  0.00  0.00    +0.000 NA
ATOM      5  C   UNL     1      47.404   7.027  11.799  0.00  0.00    +0.000 A 
ATOM      6  C   UNL     1      46.777   5.986  12.490  0.00  0.00    +0.000 A 
ATOM      7  C   UNL     1      47.197   5.804  13.816  0.00  0.00    +0.000 A 
BRANCH   6   8
ATOM      8  C   UNL     1      45.744   5.130  11.872  0.00  0.00    +0.000 A 
ATOM      9  C   UNL     1      45.366   5.288  10.524  0.00  0.00    +0.000 A 
ATOM     10  C   UNL     1      44.386   4.477   9.939  0.00  0.00    +0.000 A 
ATOM     11  C   UNL     1      43.770   3.482  10.689  0.00  0.00    +0.000 A 
ATOM     12  C   UNL     1      44.137   3.306  12.014  0.00  0.00    +0.000 A 
ATOM     13  F   UNL     1      43.552   2.345  12.740  0.00  0.00    +0.000 F 
ATOM     14  C   UNL     1      45.102   4.116  12.606  0.00  0.00    +0.000 A 
ENDBRANCH   6   8
ENDBRANCH   1   2
BRANCH   1  15
ATOM     15  O   UNL     1      48.075   5.247  16.377  0.00  0.00    +0.000 OA
BRANCH  15  19
ATOM     16  C   UNL     1      50.913   2.442  17.398  0.00  0.00    +0.000 A 
ATOM     17  C   UNL     1      49.631   2.024  17.034  0.00  0.00    +0.000 A 
ATOM     18  C   UNL     1      48.673   2.981  16.692  0.00  0.00    +0.000 A 
ATOM     19  C   UNL     1      49.036   4.320  16.728  0.00  0.00    +0.000 A 
ATOM     20  N   UNL     1      50.263   4.749  17.087  0.00  0.00    +0.000 NA
ATOM     21  C   UNL     1      51.173   3.805  17.424  0.00  0.00    +0.000 A 
BRANCH  16  23
ATOM     22  N   UNL     1      51.628   0.239  18.113  0.00  0.00    +0.000 N 
ATOM     23  C   UNL     1      51.996   1.509  17.764  0.00  0.00    +0.000 C 
ATOM     24  O   UNL     1      53.169   1.843  17.715  0.00  0.00    +0.000 OA
ATOM     25  H   UNL     1      52.379  -0.424  18.258  0.00  0.00    +0.000 HD
ATOM     26  H   UNL     1      50.708  -0.133  17.922  0.00  0.00    +0.000 HD
ENDBRANCH  16  23
ENDBRANCH  15  19
ENDBRANCH   1  15
TORSDOF 5
ENDMDL
