MODEL 1
REMARK VINA RESULT:    -8.210      0.000      0.000
REMARK INTER + INTRA:         -10.376
REMARK INTER:                  -9.890
REMARK INTRA:                  -0.486
REMARK UNBOUND:                -0.486
REMARK  Name = 
REMARK  4 active torsions:
REMARK  status: ('A' for Active; 'I' for Inactive)
REMARK    1  A    between atoms: N_1  and  C_2
REMARK    2  A    between atoms: C_2  and  C_3
REMARK    3  A    between atoms: C_6  and  C_7
REMARK    4  A    between atoms: C_7  and  C_8
REMARK                            x       y       z     vdW  Elec       q    Type
REMARK                         _______ _______ _______ _____ _____    ______ ____
ROOT
ATOM      1  C   UNL     1      43.755   4.603   9.715  0.00  0.00    +0.000 C 
ENDROOT
BRANCH   1   2
ATOM      2  C   UNL     1      44.056   4.464  11.173  0.00  0.00    +0.000 A 
ATOM      3  C   UNL     1      43.417   3.597  12.053  0.00  0.00    +0.000 A 
ATOM      4  N   UNL     1      44.118   3.580  13.233  0.00  0.00    +0.000 N 
ATOM      5  C   UNL     1      45.205   4.400  13.135  0.00  0.00    +0.000 A 
ATOM      6  N   UNL     1      46.147   4.530  14.088  0.00  0.00    +0.000 NA
ATOM      7  C   UNL     1      47.127   5.395  13.740  0.00  0.00    +0.000 A 
ATOM      8  C   UNL     1      47.180   6.130  12.562  0.00  0.00    +0.000 A 
ATOM      9  C   UNL     1      46.179   5.951  11.608  0.00  0.00    +0.000 A 
ATOM     10  C   UNL     1      45.159   5.026  11.894  0.00  0.00    +0.000 A 
ATOM     11  H   UNL     1      43.932   2.999  14.035  0.00  0.00    +0.000 HD
ENDBRANCH   1   2
BRANCH   1  15
ATOM     12  C   UNL     1      46.682   2.332   7.590  0.00  0.00    +0.000 A 
ATOM     13  C   UNL     1      45.793   1.666   8.440  0.00  0.00    +0.000 A 
ATOM     14  C   UNL     1      44.785   2.375   9.096  0.00  0.00    +0.000 A 
ATOM     15  C   UNL     1      44.685   3.748   8.895  0.00  0.00    +0.000 A 
ATOM     16  N   UNL     1      45.527   4.412   8.056  0.00  0.00    +0.000 NA
ATOM     17  C   UNL     1      46.487   3.698   7.428  0.00  0.00    +0.000 A 
BRANCH  12  18
ATOM     18  C   UNL     1      47.830   1.635   6.922  0.00  0.00    +0.000 C 
BRANCH  18  19
ATOM     19  N   UNL     1      48.717   2.563   6.232  0.00  0.00    +0.000 NA
ATOM     20  H   UNL     1      48.203   3.409   6.002  0.00  0.00    +0.000 HD
ATOM     21  H   UNL     1      49.002   2.150   5.341  0.00  0.00    +0.000 HD
ENDBRANCH  18  19
ENDBRANCH  12  18
ENDBRANCH   1  15
TORSDOF 4
ENDMDL
MODEL 2
REMARK VINA RESULT:    -7.479      1.196      1.447
REMARK INTER + INTRA:          -9.495
REMARK INTER:                  -9.184
REMARK INTRA:                  -0.311
REMARK UNBOUND:                -0.486
REMARK  Name = 
REMARK  4 active torsions:
REMARK  status: ('A' for Active; 'I' for Inactive)
REMARK    1  A    between atoms: N_1  and  C_2
REMARK    2  A    between atoms: C_2  and  C_3
REMARK    3  A    between atoms: C_6  and  C_7
REMARK    4  A    between atoms: C_7  and  C_8
REMARK                            x       y       z     vdW  Elec       q    Type
REMARK                         _______ _______ _______ _____ _____    ______ ____
ROOT
ATOM      1  C   UNL     1      43.852   4.410  10.144  0.00  0.00    +0.000 C 
ENDROOT
BRANCH   1   2
ATOM      2  C   UNL     1      44.630   4.734  11.379  0.00  0.00    +0.000 A 
ATOM      3  C   UNL     1      45.237   3.808  12.221  0.00  0.00    +0.000 A 
ATOM      4  N   UNL     1      46.047   4.484  13.098  0.00  0.00    +0.000 N 
ATOM      5  C   UNL     1      45.997   5.822  12.835  0.00  0.00    +0.000 A 
ATOM      6  N   UNL     1      46.752   6.748  13.457  0.00  0.00    +0.000 NA
ATOM      7  C   UNL     1      46.521   8.001  13.004  0.00  0.00    +0.000 A 
ATOM      8  C   UNL     1      45.586   8.356  12.039  0.00  0.00    +0.000 A 
ATOM      9  C   UNL     1      44.835   7.354  11.425  0.00  0.00    +0.000 A 
ATOM     10  C   UNL     1      45.067   6.025  11.821  0.00  0.00    +0.000 A 
ATOM     11  H   UNL     1      46.662   4.076  13.785  0.00  0.00    +0.000 HD
ENDBRANCH   1   2
BRANCH   1  15
ATOM     12  C   UNL     1      46.555   2.333   7.571  0.00  0.00    +0.000 A 
ATOM     13  C   UNL     1      45.742   1.595   8.437  0.00  0.00    +0.000 A 
ATOM     14  C   UNL     1      44.803   2.244   9.241  0.00  0.00    +0.000 A 
ATOM     15  C   UNL     1      44.697   3.630   9.170  0.00  0.00    +0.000 A 
ATOM     16  N   UNL     1      45.464   4.365   8.319  0.00  0.00    +0.000 NA
ATOM     17  C   UNL     1      46.358   3.708   7.547  0.00  0.00    +0.000 A 
BRANCH  12  18
ATOM     18  C   UNL     1      47.632   1.696   6.743  0.00  0.00    +0.000 C 
BRANCH  18  19
ATOM     19  N   UNL     1      48.655   2.651   6.336  0.00  0.00    +0.000 NA
ATOM     20  H   UNL     1      48.215   3.427   5.850  0.00  0.00    +0.000 HD
ATOM     21  H   UNL     1      49.276   2.204   5.657  0.00  0.00    +0.000 HD
ENDBRANCH  18  19
ENDBRANCH  12  18
ENDBRANCH   1  15
TORSDOF 4
ENDMDL
MODEL 3
REMARK VINA RESULT:    -6.926      1.407      1.945
REMARK INTER + INTRA:          -8.829
REMARK INTER:                  -8.407
REMARK INTRA:                  -0.421
REMARK UNBOUND:                -0.486
REMARK  Name = 
REMARK  4 active torsions:
REMARK  status: ('A' for Active; 'I' for Inactive)
REMARK    1  A    between atoms: N_1  and  C_2
REMARK    2  A    between atoms: C_2  and  C_3
REMARK    3  A    between atoms: C_6  and  C_7
REMARK    4  A    between atoms: C_7  and  C_8
REMARK                            x       y       z     vdW  Elec       q    Type
REMARK                         _______ _______ _______ _____ _____    ______ ____
ROOT
ATOM      1  C   UNL     1      43.893   4.380  10.209  0.00  0.00    +0.000 C 
ENDROOT
BRANCH   1   2
ATOM      2  C   UNL     1      44.587   5.212  11.238  0.00  0.00    +0.000 A 
ATOM      3  C   UNL     1      44.313   6.546  11.522  0.00  0.00    +0.000 A 
ATOM      4  N   UNL     1      44.978   6.892  12.672  0.00  0.00    +0.000 N 
ATOM      5  C   UNL     1      45.661   5.811  13.152  0.00  0.00    +0.000 A 
ATOM      6  N   UNL     1      46.336   5.796  14.317  0.00  0.00    +0.000 NA
ATOM      7  C   UNL     1      46.916   4.600  14.569  0.00  0.00    +0.000 A 
ATOM      8  C   UNL     1      46.888   3.492  13.731  0.00  0.00    +0.000 A 
ATOM      9  C   UNL     1      46.170   3.564  12.539  0.00  0.00    +0.000 A 
ATOM     10  C   UNL     1      45.504   4.768  12.246  0.00  0.00    +0.000 A 
ATOM     11  H   UNL     1      44.922   7.773  13.157  0.00  0.00    +0.000 HD
ENDBRANCH   1   2
BRANCH   1  15
ATOM     12  C   UNL     1      46.428   2.214   7.540  0.00  0.00    +0.000 A 
ATOM     13  C   UNL     1      46.397   3.611   7.463  0.00  0.00    +0.000 A 
ATOM     14  C   UNL     1      45.628   4.347   8.366  0.00  0.00    +0.000 A 
ATOM     15  C   UNL     1      44.893   3.669   9.334  0.00  0.00    +0.000 A 
ATOM     16  N   UNL     1      44.925   2.313   9.440  0.00  0.00    +0.000 NA
ATOM     17  C   UNL     1      45.686   1.627   8.557  0.00  0.00    +0.000 A 
BRANCH  12  18
ATOM     18  C   UNL     1      47.175   1.371   6.549  0.00  0.00    +0.000 C 
BRANCH  18  19
ATOM     19  N   UNL     1      48.495   1.910   6.246  0.00  0.00    +0.000 NA
ATOM     20  H   UNL     1      48.508   2.248   5.288  0.00  0.00    +0.000 HD
ATOM     21  H   UNL     1      49.182   1.154   6.294  0.00  0.00    +0.000 HD
ENDBRANCH  18  19
ENDBRANCH  12  18
ENDBRANCH   1  15
TORSDOF 4
ENDMDL
MODEL 4
REMARK VINA RESULT:    -6.668      2.065      5.778
REMARK INTER + INTRA:          -8.518
REMARK INTER:                  -8.050
REMARK INTRA:                  -0.468
REMARK UNBOUND:                -0.486
REMARK  Name = 
REMARK  4 active torsions:
REMARK  status: ('A' for Active; 'I' for Inactive)
REMARK    1  A    between atoms: N_1  and  C_2
REMARK    2  A    between atoms: C_2  and  C_3
REMARK    3  A    between atoms: C_6  and  C_7
REMARK    4  A    between atoms: C_7  and  C_8
REMARK                            x       y       z     vdW  Elec       q    Type
REMARK                         _______ _______ _______ _____ _____    ______ ____
ROOT
ATOM      1  C   UNL     1      43.389   5.707  11.030  0.00  0.00    +0.000 C 
ENDROOT
BRANCH   1   2
ATOM      2  C   UNL     1      43.939   4.349  10.734  0.00  0.00    +0.000 A 
ATOM      3  C   UNL     1      43.512   3.158  11.311  0.00  0.00    +0.000 A 
ATOM      4  N   UNL     1      44.078   2.114  10.623  0.00  0.00    +0.000 N 
ATOM      5  C   UNL     1      44.847   2.596   9.603  0.00  0.00    +0.000 A 
ATOM      6  N   UNL     1      45.460   1.827   8.684  0.00  0.00    +0.000 NA
ATOM      7  C   UNL     1      46.150   2.550   7.773  0.00  0.00    +0.000 A 
ATOM      8  C   UNL     1      46.281   3.933   7.766  0.00  0.00    +0.000 A 
ATOM      9  C   UNL     1      45.619   4.680   8.740  0.00  0.00    +0.000 A 
ATOM     10  C   UNL     1      44.846   3.985   9.686  0.00  0.00    +0.000 A 
ATOM     11  H   UNL     1      43.905   1.131  10.770  0.00  0.00    +0.000 HD
ENDBRANCH   1   2
BRANCH   1  15
ATOM     12  C   UNL     1      46.531   7.874  12.947  0.00  0.00    +0.000 A 
ATOM     13  C   UNL     1      45.724   8.533  12.013  0.00  0.00    +0.000 A 
ATOM     14  C   UNL     1      44.649   7.868  11.421  0.00  0.00    +0.000 A 
ATOM     15  C   UNL     1      44.401   6.543  11.769  0.00  0.00    +0.000 A 
ATOM     16  N   UNL     1      45.161   5.890  12.691  0.00  0.00    +0.000 NA
ATOM     17  C   UNL     1      46.189   6.563  13.254  0.00  0.00    +0.000 A 
BRANCH  12  18
ATOM     18  C   UNL     1      47.744   8.515  13.555  0.00  0.00    +0.000 C 
BRANCH  18  19
ATOM     19  N   UNL     1      47.549   8.847  14.960  0.00  0.00    +0.000 NA
ATOM     20  H   UNL     1      47.482   7.990  15.502  0.00  0.00    +0.000 HD
ATOM     21  H   UNL     1      46.651   9.324  15.068  0.00  0.00    +0.000 HD
ENDBRANCH  18  19
ENDBRANCH  12  18
ENDBRANCH   1  15
TORSDOF 4
ENDMDL
MODEL 5
REMARK VINA RESULT:    -5.735      3.664      7.108
REMARK INTER + INTRA:          -7.395
REMARK INTER:                  -7.029
REMARK INTRA:                  -0.366
REMARK UNBOUND:                -0.486
REMARK  Name = 
REMARK  4 active torsions:
REMARK  status: ('A' for Active; 'I' for Inactive)
REMARK    1  A    between atoms: N_1  and  C_2
REMARK    2  A    between atoms: C_2  and  C_3
REMARK    3  A    between atoms: C_6  and  C_7
REMARK    4  A    between atoms: C_7  and  C_8
REMARK                            x       y       z     vdW  Elec       q    Type
REMARK                         _______ _______ _______ _____ _____    ______ ____
ROOT
ATOM      1  C   UNL     1      47.669   5.787  13.242  0.00  0.00    +0.000 C 
ENDROOT
BRANCH   1   2
ATOM      2  C   UNL     1      46.221   6.044  12.974  0.00  0.00    +0.000 A 
ATOM      3  C   UNL     1      45.619   7.295  12.907  0.00  0.00    +0.000 A 
ATOM      4  N   UNL     1      44.348   7.141  12.412  0.00  0.00    +0.000 N 
ATOM      5  C   UNL     1      44.117   5.823  12.138  0.00  0.00    +0.000 A 
ATOM      6  N   UNL     1      42.999   5.354  11.552  0.00  0.00    +0.000 NA
ATOM      7  C   UNL     1      43.023   4.012  11.380  0.00  0.00    +0.000 A 
ATOM      8  C   UNL     1      44.042   3.160  11.787  0.00  0.00    +0.000 A 
ATOM      9  C   UNL     1      45.179   3.703  12.385  0.00  0.00    +0.000 A 
ATOM     10  C   UNL     1      45.232   5.099  12.545  0.00  0.00    +0.000 A 
ATOM     11  H   UNL     1      43.694   7.876  12.193  0.00  0.00    +0.000 HD
ENDBRANCH   1   2
BRANCH   1  15
ATOM     12  C   UNL     1      48.092   4.962  17.411  0.00  0.00    +0.000 A 
ATOM     13  C   UNL     1      47.251   4.151  16.641  0.00  0.00    +0.000 A 
ATOM     14  C   UNL     1      47.145   4.357  15.264  0.00  0.00    +0.000 A 
ATOM     15  C   UNL     1      47.882   5.381  14.677  0.00  0.00    +0.000 A 
ATOM     16  N   UNL     1      48.722   6.168  15.404  0.00  0.00    +0.000 NA
ATOM     17  C   UNL     1      48.811   5.939  16.733  0.00  0.00    +0.000 A 
BRANCH  12  18
ATOM     18  C   UNL     1      48.185   4.835  18.903  0.00  0.00    +0.000 C 
BRANCH  18  19
ATOM     19  N   UNL     1      48.420   3.461  19.328  0.00  0.00    +0.000 NA
ATOM     20  H   UNL     1      49.388   3.213  19.143  0.00  0.00    +0.000 HD
ATOM     21  H   UNL     1      47.849   2.833  18.758  0.00  0.00    +0.000 HD
ENDBRANCH  18  19
ENDBRANCH  12  18
ENDBRANCH   1  15
TORSDOF 4
ENDMDL
MODEL 6
REMARK VINA RESULT:    -5.593      4.510      7.300
REMARK INTER + INTRA:          -7.223
REMARK INTER:                  -6.798
REMARK INTRA:                  -0.425
REMARK UNBOUND:                -0.486
REMARK  Name = 
REMARK  4 active torsions:
REMARK  status: ('A' for Active; 'I' for Inactive)
REMARK    1  A    between atoms: N_1  and  C_2
REMARK    2  A    between atoms: C_2  and  C_3
REMARK    3  A    between atoms: C_6  and  C_7
REMARK    4  A    between atoms: C_7  and  C_8
REMARK                            x       y       z     vdW  Elec       q    Type
REMARK                         _______ _______ _______ _____ _____    ______ ____
ROOT
ATOM      1  C   UNL     1      46.992   4.123  13.854  0.00  0.00    +0.000 C 
ENDROOT
BRANCH   1   2
ATOM      2  C   UNL     1      46.097   5.165  13.265  0.00  0.00    +0.000 A 
ATOM      3  C   UNL     1      44.707   5.145  13.286  0.00  0.00    +0.000 A 
ATOM      4  N   UNL     1      44.247   6.368  12.867  0.00  0.00    +0.000 N 
ATOM      5  C   UNL     1      45.304   7.188  12.593  0.00  0.00    +0.000 A 
ATOM      6  N   UNL     1      45.190   8.486  12.252  0.00  0.00    +0.000 NA
ATOM      7  C   UNL     1      46.388   9.078  12.045  0.00  0.00    +0.000 A 
ATOM      8  C   UNL     1      47.627   8.453  12.117  0.00  0.00    +0.000 A 
ATOM      9  C   UNL     1      47.684   7.108  12.479  0.00  0.00    +0.000 A 
ATOM     10  C   UNL     1      46.472   6.451  12.756  0.00  0.00    +0.000 A 
ATOM     11  H   UNL     1      43.287   6.673  12.838  0.00  0.00    +0.000 HD
ENDBRANCH   1   2
BRANCH   1  15
ATOM     12  C   UNL     1      48.086   4.699  17.942  0.00  0.00    +0.000 A 
ATOM     13  C   UNL     1      48.532   5.616  16.985  0.00  0.00    +0.000 A 
ATOM     14  C   UNL     1      48.135   5.490  15.653  0.00  0.00    +0.000 A 
ATOM     15  C   UNL     1      47.299   4.436  15.296  0.00  0.00    +0.000 A 
ATOM     16  N   UNL     1      46.837   3.544  16.214  0.00  0.00    +0.000 NA
ATOM     17  C   UNL     1      47.231   3.698  17.498  0.00  0.00    +0.000 A 
BRANCH  12  18
ATOM     18  C   UNL     1      48.543   4.742  19.371  0.00  0.00    +0.000 C 
BRANCH  18  19
ATOM     19  N   UNL     1      48.567   3.421  19.985  0.00  0.00    +0.000 NA
ATOM     20  H   UNL     1      47.614   3.106  20.141  0.00  0.00    +0.000 HD
ATOM     21  H   UNL     1      49.000   3.491  20.909  0.00  0.00    +0.000 HD
ENDBRANCH  18  19
ENDBRANCH  12  18
ENDBRANCH   1  15
TORSDOF 4
ENDMDL
MODEL 7
REMARK VINA RESULT:    -5.526      2.438      5.428
REMARK INTER + INTRA:          -7.143
REMARK INTER:                  -6.856
REMARK INTRA:                  -0.287
REMARK UNBOUND:                -0.486
REMARK  Name = 
REMARK  4 active torsions:
REMARK  status: ('A' for Active; 'I' for Inactive)
REMARK    1  A    between atoms: N_1  and  C_2
REMARK    2  A    between atoms: C_2  and  C_3
REMARK    3  A    between atoms: C_6  and  C_7
REMARK    4  A    between atoms: C_7  and  C_8
REMARK                            x       y       z     vdW  Elec       q    Type
REMARK                         _______ _______ _______ _____ _____    ______ ____
ROOT
ATOM      1  C   UNL     1      44.765   6.971  11.968  0.00  0.00    +0.000 C 
ENDROOT
BRANCH   1   2
ATOM      2  C   UNL     1      44.637   5.487  11.838  0.00  0.00    +0.000 A 
ATOM      3  C   UNL     1      44.117   4.631  12.802  0.00  0.00    +0.000 A 
ATOM      4  N   UNL     1      43.943   3.392  12.237  0.00  0.00    +0.000 N 
ATOM      5  C   UNL     1      44.318   3.428  10.924  0.00  0.00    +0.000 A 
ATOM      6  N   UNL     1      44.178   2.401  10.066  0.00  0.00    +0.000 NA
ATOM      7  C   UNL     1      44.615   2.697   8.821  0.00  0.00    +0.000 A 
ATOM      8  C   UNL     1      45.195   3.897   8.428  0.00  0.00    +0.000 A 
ATOM      9  C   UNL     1      45.310   4.928   9.359  0.00  0.00    +0.000 A 
ATOM     10  C   UNL     1      44.826   4.695  10.658  0.00  0.00    +0.000 A 
ATOM     11  H   UNL     1      43.525   2.585  12.672  0.00  0.00    +0.000 HD
ENDBRANCH   1   2
BRANCH   1  15
ATOM     12  C   UNL     1      48.906   7.906  12.435  0.00  0.00    +0.000 A 
ATOM     13  C   UNL     1      47.997   8.946  12.218  0.00  0.00    +0.000 A 
ATOM     14  C   UNL     1      46.630   8.676  12.128  0.00  0.00    +0.000 A 
ATOM     15  C   UNL     1      46.193   7.360  12.250  0.00  0.00    +0.000 A 
ATOM     16  N   UNL     1      47.059   6.336  12.483  0.00  0.00    +0.000 NA
ATOM     17  C   UNL     1      48.375   6.629  12.575  0.00  0.00    +0.000 A 
BRANCH  12  18
ATOM     18  C   UNL     1      50.390   8.128  12.463  0.00  0.00    +0.000 C 
BRANCH  18  19
ATOM     19  N   UNL     1      51.087   7.344  11.452  0.00  0.00    +0.000 NA
ATOM     20  H   UNL     1      51.970   7.016  11.832  0.00  0.00    +0.000 HD
ATOM     21  H   UNL     1      51.322   7.951  10.663  0.00  0.00    +0.000 HD
ENDBRANCH  18  19
ENDBRANCH  12  18
ENDBRANCH   1  15
TORSDOF 4
ENDMDL
MODEL 8
REMARK VINA RESULT:    -5.481      2.915      4.439
REMARK INTER + INTRA:          -7.089
REMARK INTER:                  -6.819
REMARK INTRA:                  -0.270
REMARK UNBOUND:                -0.486
REMARK  Name = 
REMARK  4 active torsions:
REMARK  status: ('A' for Active; 'I' for Inactive)
REMARK    1  A    between atoms: N_1  and  C_2
REMARK    2  A    between atoms: C_2  and  C_3
REMARK    3  A    between atoms: C_6  and  C_7
REMARK    4  A    between atoms: C_7  and  C_8
REMARK                            x       y       z     vdW  Elec       q    Type
REMARK                         _______ _______ _______ _____ _____    ______ ____
ROOT
ATOM      1  C   UNL     1      45.346   6.399  13.087  0.00  0.00    +0.000 C 
ENDROOT
BRANCH   1   2
ATOM      2  C   UNL     1      45.906   7.691  12.584  0.00  0.00    +0.000 A 
ATOM      3  C   UNL     1      45.255   8.919  12.607  0.00  0.00    +0.000 A 
ATOM      4  N   UNL     1      46.162   9.898  12.287  0.00  0.00    +0.000 N 
ATOM      5  C   UNL     1      47.389   9.339  12.077  0.00  0.00    +0.000 A 
ATOM      6  N   UNL     1      48.514  10.040  11.842  0.00  0.00    +0.000 NA
ATOM      7  C   UNL     1      49.599   9.249  11.680  0.00  0.00    +0.000 A 
ATOM      8  C   UNL     1      49.601   7.860  11.701  0.00  0.00    +0.000 A 
ATOM      9  C   UNL     1      48.407   7.186  11.954  0.00  0.00    +0.000 A 
ATOM     10  C   UNL     1      47.254   7.958  12.179  0.00  0.00    +0.000 A 
ATOM     11  H   UNL     1      45.998  10.893  12.284  0.00  0.00    +0.000 HD
ENDBRANCH   1   2
BRANCH   1  15
ATOM     12  C   UNL     1      44.895   3.423  10.056  0.00  0.00    +0.000 A 
ATOM     13  C   UNL     1      45.139   4.747   9.676  0.00  0.00    +0.000 A 
ATOM     14  C   UNL     1      45.356   5.728  10.646  0.00  0.00    +0.000 A 
ATOM     15  C   UNL     1      45.318   5.367  11.989  0.00  0.00    +0.000 A 
ATOM     16  N   UNL     1      45.103   4.081  12.380  0.00  0.00    +0.000 NA
ATOM     17  C   UNL     1      44.906   3.152  11.419  0.00  0.00    +0.000 A 
BRANCH  12  18
ATOM     18  C   UNL     1      44.579   2.346   9.060  0.00  0.00    +0.000 C 
BRANCH  18  19
ATOM     19  N   UNL     1      45.704   1.447   8.841  0.00  0.00    +0.000 NA
ATOM     20  H   UNL     1      46.506   1.983   8.523  0.00  0.00    +0.000 HD
ATOM     21  H   UNL     1      45.472   0.801   8.083  0.00  0.00    +0.000 HD
ENDBRANCH  18  19
ENDBRANCH  12  18
ENDBRANCH   1  15
TORSDOF 4
ENDMDL
MODEL 9
REMARK VINA RESULT:    -5.409      3.347      5.775
REMARK INTER + INTRA:          -7.001
REMARK INTER:                  -6.667
REMARK INTRA:                  -0.334
REMARK UNBOUND:                -0.486
REMARK  Name = 
REMARK  4 active torsions:
REMARK  status: ('A' for Active; 'I' for Inactive)
REMARK    1  A    between atoms: N_1  and  C_2
REMARK    2  A    between atoms: C_2  and  C_3
REMARK    3  A    between atoms: C_6  and  C_7
REMARK    4  A    between atoms: C_7  and  C_8
REMARK                            x       y       z     vdW  Elec       q    Type
REMARK                         _______ _______ _______ _____ _____    ______ ____
ROOT
ATOM      1  C   UNL     1      46.331   7.913  12.571  0.00  0.00    +0.000 C 
ENDROOT
BRANCH   1   2
ATOM      2  C   UNL     1      47.825   7.867  12.552  0.00  0.00    +0.000 A 
ATOM      3  C   UNL     1      48.605   6.759  12.864  0.00  0.00    +0.000 A 
ATOM      4  N   UNL     1      49.903   7.025  12.505  0.00  0.00    +0.000 N 
ATOM      5  C   UNL     1      49.981   8.270  11.950  0.00  0.00    +0.000 A 
ATOM      6  N   UNL     1      51.098   8.791  11.407  0.00  0.00    +0.000 NA
ATOM      7  C   UNL     1      50.907  10.036  10.914  0.00  0.00    +0.000 A 
ATOM      8  C   UNL     1      49.724  10.760  10.974  0.00  0.00    +0.000 A 
ATOM      9  C   UNL     1      48.597  10.168  11.544  0.00  0.00    +0.000 A 
ATOM     10  C   UNL     1      48.722   8.855  12.030  0.00  0.00    +0.000 A 
ATOM     11  H   UNL     1      50.683   6.388  12.552  0.00  0.00    +0.000 HD
ENDBRANCH   1   2
BRANCH   1  15
ATOM     12  C   UNL     1      44.339   4.262  11.600  0.00  0.00    +0.000 A 
ATOM     13  C   UNL     1      45.003   4.962  10.588  0.00  0.00    +0.000 A 
ATOM     14  C   UNL     1      45.718   6.123  10.889  0.00  0.00    +0.000 A 
ATOM     15  C   UNL     1      45.750   6.571  12.206  0.00  0.00    +0.000 A 
ATOM     16  N   UNL     1      45.128   5.894  13.210  0.00  0.00    +0.000 NA
ATOM     17  C   UNL     1      44.451   4.769  12.889  0.00  0.00    +0.000 A 
BRANCH  12  18
ATOM     18  C   UNL     1      43.493   3.055  11.320  0.00  0.00    +0.000 C 
BRANCH  18  19
ATOM     19  N   UNL     1      43.526   2.090  12.412  0.00  0.00    +0.000 NA
ATOM     20  H   UNL     1      42.655   2.143  12.933  0.00  0.00    +0.000 HD
ATOM     21  H   UNL     1      44.267   2.353  13.066  0.00  0.00    +0.000 HD
ENDBRANCH  18  19
ENDBRANCH  12  18
ENDBRANCH   1  15
TORSDOF 4
ENDMDL
