MODEL 1
REMARK VINA RESULT:    -8.378      0.000      0.000
REMARK INTER + INTRA:         -12.132
REMARK INTER:                 -11.317
REMARK INTRA:                  -0.815
REMARK UNBOUND:                -0.815
REMARK  Name = 
REMARK  7 active torsions:
REMARK  status: ('A' for Active; 'I' for Inactive)
REMARK    1  A    between atoms: C_1  and  S_2
REMARK    2  A    between atoms: S_2  and  N_5
REMARK    3  A    between atoms: C_13  and  C_14
REMARK    4  A    between atoms: C_14  and  C_15
REMARK    5  A    between atoms: C_14  and  C_26
REMARK    6  A    between atoms: C_15  and  N_16
REMARK    7  A    between atoms: C_20  and  C_21
REMARK                            x       y       z     vdW  Elec       q    Type
REMARK                         _______ _______ _______ _____ _____    ______ ____
ROOT
ATOM      1  C   UNL     1      45.264   5.404  11.835  0.00  0.00    +0.000 C 
ENDROOT
BRANCH   1  10
ATOM      2  N   UNL     1      51.607   9.314  12.656  0.00  0.00    +0.000 NA
ATOM      3  C   UNL     1      50.943   8.146  13.342  0.00  0.00    +0.000 C 
ATOM      4  C   UNL     1      49.769   7.552  12.531  0.00  0.00    +0.000 C 
ATOM      5  N   UNL     1      48.833   8.641  12.248  0.00  0.00    +0.000 N 
ATOM      6  C   UNL     1      47.483   8.373  12.178  0.00  0.00    +0.000 A 
ATOM      7  C   UNL     1      46.574   9.403  12.413  0.00  0.00    +0.000 A 
ATOM      8  C   UNL     1      45.217   9.132  12.486  0.00  0.00    +0.000 A 
ATOM      9  C   UNL     1      44.782   7.831  12.298  0.00  0.00    +0.000 A 
ATOM     10  C   UNL     1      45.722   6.837  12.029  0.00  0.00    +0.000 A 
ATOM     11  N   UNL     1      47.055   7.101  12.005  0.00  0.00    +0.000 NA
ATOM     12  C   UNL     1      49.414   9.743  11.466  0.00  0.00    +0.000 C 
ATOM     13  C   UNL     1      50.578  10.350  12.277  0.00  0.00    +0.000 C 
BRANCH   2  15
ATOM     14  C   UNL     1      54.048   8.196  12.339  0.00  0.00    +0.000 C 
ATOM     15  S   UNL     1      52.722   8.955  11.429  0.00  0.00    +0.000 S 
ATOM     16  O   UNL     1      53.213  10.212  10.904  0.00  0.00    +0.000 OA
ATOM     17  O   UNL     1      52.136   7.963  10.552  0.00  0.00    +0.000 OA
ENDBRANCH   2  15
ENDBRANCH   1  10
BRANCH   1  18
ATOM     18  C   UNL     1      45.216   4.590  13.129  0.00  0.00    +0.000 C 
ATOM     19  F   UNL     1      45.940   5.126  14.135  0.00  0.00    +0.000 F 
ATOM     20  F   UNL     1      43.975   4.366  13.601  0.00  0.00    +0.000 F 
ATOM     21  F   UNL     1      45.756   3.361  12.892  0.00  0.00    +0.000 F 
ENDBRANCH   1  18
BRANCH   1  22
ATOM     22  C   UNL     1      43.989   5.227  10.998  0.00  0.00    +0.000 C 
BRANCH  22  23
ATOM     23  N   UNL     1      44.251   5.136   9.570  0.00  0.00    +0.000 N 
ATOM     24  C   UNL     1      44.982   4.089   9.046  0.00  0.00    +0.000 A 
ATOM     25  C   UNL     1      45.029   2.795   9.577  0.00  0.00    +0.000 A 
ATOM     26  N   UNL     1      45.730   1.765   9.029  0.00  0.00    +0.000 NA
ATOM     27  C   UNL     1      46.370   2.077   7.871  0.00  0.00    +0.000 A 
ATOM     28  C   UNL     1      46.314   3.343   7.314  0.00  0.00    +0.000 A 
ATOM     29  N   UNL     1      45.633   4.364   7.897  0.00  0.00    +0.000 NA
ATOM     30  H   UNL     1      44.585   6.000   9.132  0.00  0.00    +0.000 HD
BRANCH  27  31
ATOM     31  C   UNL     1      47.158   1.004   7.210  0.00  0.00    +0.000 C 
ATOM     32  N   UNL     1      46.853  -0.277   7.594  0.00  0.00    +0.000 N 
ATOM     33  O   UNL     1      48.032   1.237   6.386  0.00  0.00    +0.000 OA
ATOM     34  H   UNL     1      46.121  -0.437   8.278  0.00  0.00    +0.000 HD
ATOM     35  H   UNL     1      47.348  -1.052   7.182  0.00  0.00    +0.000 HD
ENDBRANCH  27  31
ENDBRANCH  22  23
ENDBRANCH   1  22
TORSDOF 6
ENDMDL
MODEL 2
REMARK VINA RESULT:    -8.284      3.068      3.352
REMARK INTER + INTRA:         -12.005
REMARK INTER:                 -11.856
REMARK INTRA:                  -0.149
REMARK UNBOUND:                -0.815
REMARK  Name = 
REMARK  7 active torsions:
REMARK  status: ('A' for Active; 'I' for Inactive)
REMARK    1  A    between atoms: C_1  and  S_2
REMARK    2  A    between atoms: S_2  and  N_5
REMARK    3  A    between atoms: C_13  and  C_14
REMARK    4  A    between atoms: C_14  and  C_15
REMARK    5  A    between atoms: C_14  and  C_26
REMARK    6  A    between atoms: C_15  and  N_16
REMARK    7  A    between atoms: C_20  and  C_21
REMARK                            x       y       z     vdW  Elec       q    Type
REMARK                         _______ _______ _______ _____ _____    ______ ____
ROOT
ATOM      1  C   UNL     1      45.284   4.943  11.837  0.00  0.00    +0.000 C 
ENDROOT
BRANCH   1  10
ATOM      2  N   UNL     1      50.096   6.608  17.338  0.00  0.00    +0.000 NA
ATOM      3  C   UNL     1      48.712   6.017  17.235  0.00  0.00    +0.000 C 
ATOM      4  C   UNL     1      48.333   5.606  15.794  0.00  0.00    +0.000 C 
ATOM      5  N   UNL     1      48.505   6.782  14.940  0.00  0.00    +0.000 N 
ATOM      6  C   UNL     1      47.671   6.961  13.858  0.00  0.00    +0.000 A 
ATOM      7  C   UNL     1      47.474   8.248  13.359  0.00  0.00    +0.000 A 
ATOM      8  C   UNL     1      46.537   8.475  12.364  0.00  0.00    +0.000 A 
ATOM      9  C   UNL     1      45.819   7.403  11.863  0.00  0.00    +0.000 A 
ATOM     10  C   UNL     1      46.072   6.127  12.365  0.00  0.00    +0.000 A 
ATOM     11  N   UNL     1      46.960   5.918  13.372  0.00  0.00    +0.000 NA
ATOM     12  C   UNL     1      49.878   7.310  14.916  0.00  0.00    +0.000 C 
ATOM     13  C   UNL     1      50.257   7.736  16.349  0.00  0.00    +0.000 C 
BRANCH   2  15
ATOM     14  C   UNL     1      51.892   5.588  19.083  0.00  0.00    +0.000 C 
ATOM     15  S   UNL     1      51.397   5.521  17.377  0.00  0.00    +0.000 S 
ATOM     16  O   UNL     1      52.468   6.094  16.587  0.00  0.00    +0.000 OA
ATOM     17  O   UNL     1      50.895   4.194  17.092  0.00  0.00    +0.000 OA
ENDBRANCH   2  15
ENDBRANCH   1  10
BRANCH   1  18
ATOM     18  C   UNL     1      44.945   3.900  12.903  0.00  0.00    +0.000 C 
ATOM     19  F   UNL     1      44.933   4.394  14.161  0.00  0.00    +0.000 F 
ATOM     20  F   UNL     1      43.775   3.263  12.710  0.00  0.00    +0.000 F 
ATOM     21  F   UNL     1      45.907   2.934  12.891  0.00  0.00    +0.000 F 
ENDBRANCH   1  18
BRANCH   1  22
ATOM     22  C   UNL     1      44.066   5.294  10.971  0.00  0.00    +0.000 C 
BRANCH  22  23
ATOM     23  N   UNL     1      44.327   5.184   9.545  0.00  0.00    +0.000 N 
ATOM     24  C   UNL     1      45.026   4.110   9.030  0.00  0.00    +0.000 A 
ATOM     25  C   UNL     1      45.031   2.819   9.571  0.00  0.00    +0.000 A 
ATOM     26  N   UNL     1      45.699   1.763   9.033  0.00  0.00    +0.000 NA
ATOM     27  C   UNL     1      46.350   2.045   7.874  0.00  0.00    +0.000 A 
ATOM     28  C   UNL     1      46.336   3.308   7.306  0.00  0.00    +0.000 A 
ATOM     29  N   UNL     1      45.687   4.355   7.880  0.00  0.00    +0.000 NA
ATOM     30  H   UNL     1      44.690   6.033   9.101  0.00  0.00    +0.000 HD
BRANCH  27  31
ATOM     31  C   UNL     1      47.105   0.942   7.223  0.00  0.00    +0.000 C 
ATOM     32  N   UNL     1      46.775  -0.324   7.633  0.00  0.00    +0.000 N 
ATOM     33  O   UNL     1      47.974   1.140   6.385  0.00  0.00    +0.000 OA
ATOM     34  H   UNL     1      46.047  -0.454   8.328  0.00  0.00    +0.000 HD
ATOM     35  H   UNL     1      47.246  -1.118   7.229  0.00  0.00    +0.000 HD
ENDBRANCH  27  31
ENDBRANCH  22  23
ENDBRANCH   1  22
TORSDOF 6
ENDMDL
MODEL 3
REMARK VINA RESULT:    -8.199      1.982      2.062
REMARK INTER + INTRA:         -11.891
REMARK INTER:                 -11.590
REMARK INTRA:                  -0.301
REMARK UNBOUND:                -0.815
REMARK  Name = 
REMARK  7 active torsions:
REMARK  status: ('A' for Active; 'I' for Inactive)
REMARK    1  A    between atoms: C_1  and  S_2
REMARK    2  A    between atoms: S_2  and  N_5
REMARK    3  A    between atoms: C_13  and  C_14
REMARK    4  A    between atoms: C_14  and  C_15
REMARK    5  A    between atoms: C_14  and  C_26
REMARK    6  A    between atoms: C_15  and  N_16
REMARK    7  A    between atoms: C_20  and  C_21
REMARK                            x       y       z     vdW  Elec       q    Type
REMARK                         _______ _______ _______ _____ _____    ______ ____
ROOT
ATOM      1  C   UNL     1      45.105   5.250  11.901  0.00  0.00    +0.000 C 
ENDROOT
BRANCH   1  10
ATOM      2  N   UNL     1      50.505   8.548  15.920  0.00  0.00    +0.000 NA
ATOM      3  C   UNL     1      49.405   7.548  16.175  0.00  0.00    +0.000 C 
ATOM      4  C   UNL     1      48.782   6.985  14.877  0.00  0.00    +0.000 C 
ATOM      5  N   UNL     1      48.330   8.123  14.075  0.00  0.00    +0.000 N 
ATOM      6  C   UNL     1      47.212   7.990  13.281  0.00  0.00    +0.000 A 
ATOM      7  C   UNL     1      46.492   9.130  12.928  0.00  0.00    +0.000 A 
ATOM      8  C   UNL     1      45.289   9.014  12.249  0.00  0.00    +0.000 A 
ATOM      9  C   UNL     1      44.831   7.752  11.910  0.00  0.00    +0.000 A 
ATOM     10  C   UNL     1      45.599   6.640  12.251  0.00  0.00    +0.000 A 
ATOM     11  N   UNL     1      46.755   6.759  12.957  0.00  0.00    +0.000 NA
ATOM     12  C   UNL     1      49.404   9.054  13.697  0.00  0.00    +0.000 C 
ATOM     13  C   UNL     1      50.021   9.632  14.988  0.00  0.00    +0.000 C 
BRANCH   2  15
ATOM     14  C   UNL     1      53.116   8.976  16.477  0.00  0.00    +0.000 C 
ATOM     15  S   UNL     1      52.036   7.927  15.533  0.00  0.00    +0.000 S 
ATOM     16  O   UNL     1      52.275   8.198  14.130  0.00  0.00    +0.000 OA
ATOM     17  O   UNL     1      52.128   6.579  16.053  0.00  0.00    +0.000 OA
ENDBRANCH   2  15
ENDBRANCH   1  10
BRANCH   1  18
ATOM     18  C   UNL     1      44.960   4.322  13.108  0.00  0.00    +0.000 C 
ATOM     19  F   UNL     1      45.681   4.712  14.182  0.00  0.00    +0.000 F 
ATOM     20  F   UNL     1      43.692   4.136  13.520  0.00  0.00    +0.000 F 
ATOM     21  F   UNL     1      45.431   3.088  12.769  0.00  0.00    +0.000 F 
ENDBRANCH   1  18
BRANCH   1  22
ATOM     22  C   UNL     1      43.871   5.199  10.988  0.00  0.00    +0.000 C 
BRANCH  22  23
ATOM     23  N   UNL     1      44.208   5.137   9.574  0.00  0.00    +0.000 N 
ATOM     24  C   UNL     1      44.931   4.079   9.061  0.00  0.00    +0.000 A 
ATOM     25  C   UNL     1      44.905   2.771   9.556  0.00  0.00    +0.000 A 
ATOM     26  N   UNL     1      45.599   1.732   9.018  0.00  0.00    +0.000 NA
ATOM     27  C   UNL     1      46.312   2.051   7.906  0.00  0.00    +0.000 A 
ATOM     28  C   UNL     1      46.331   3.333   7.382  0.00  0.00    +0.000 A 
ATOM     29  N   UNL     1      45.654   4.362   7.957  0.00  0.00    +0.000 NA
ATOM     30  H   UNL     1      44.596   6.000   9.180  0.00  0.00    +0.000 HD
BRANCH  27  31
ATOM     31  C   UNL     1      47.099   0.969   7.258  0.00  0.00    +0.000 C 
ATOM     32  N   UNL     1      46.783  -0.307   7.648  0.00  0.00    +0.000 N 
ATOM     33  O   UNL     1      47.980   1.191   6.439  0.00  0.00    +0.000 OA
ATOM     34  H   UNL     1      46.045  -0.458   8.327  0.00  0.00    +0.000 HD
ATOM     35  H   UNL     1      47.276  -1.088   7.245  0.00  0.00    +0.000 HD
ENDBRANCH  27  31
ENDBRANCH  22  23
ENDBRANCH   1  22
TORSDOF 6
ENDMDL
MODEL 4
REMARK VINA RESULT:    -8.153      3.017      3.838
REMARK INTER + INTRA:         -11.829
REMARK INTER:                 -11.535
REMARK INTRA:                  -0.293
REMARK UNBOUND:                -0.815
REMARK  Name = 
REMARK  7 active torsions:
REMARK  status: ('A' for Active; 'I' for Inactive)
REMARK    1  A    between atoms: C_1  and  S_2
REMARK    2  A    between atoms: S_2  and  N_5
REMARK    3  A    between atoms: C_13  and  C_14
REMARK    4  A    between atoms: C_14  and  C_15
REMARK    5  A    between atoms: C_14  and  C_26
REMARK    6  A    between atoms: C_15  and  N_16
REMARK    7  A    between atoms: C_20  and  C_21
REMARK                            x       y       z     vdW  Elec       q    Type
REMARK                         _______ _______ _______ _____ _____    ______ ____
ROOT
ATOM      1  C   UNL     1      44.068   5.703  12.070  0.00  0.00    +0.000 C 
ENDROOT
BRANCH   1  10
ATOM      2  N   UNL     1      50.301   7.919  15.595  0.00  0.00    +0.000 NA
ATOM      3  C   UNL     1      49.684   8.115  14.233  0.00  0.00    +0.000 C 
ATOM      4  C   UNL     1      48.204   7.675  14.166  0.00  0.00    +0.000 C 
ATOM      5  N   UNL     1      48.137   6.284  14.617  0.00  0.00    +0.000 N 
ATOM      6  C   UNL     1      47.196   5.439  14.070  0.00  0.00    +0.000 A 
ATOM      7  C   UNL     1      47.425   4.064  14.090  0.00  0.00    +0.000 A 
ATOM      8  C   UNL     1      46.566   3.204  13.426  0.00  0.00    +0.000 A 
ATOM      9  C   UNL     1      45.469   3.730  12.766  0.00  0.00    +0.000 A 
ATOM     10  C   UNL     1      45.256   5.108  12.800  0.00  0.00    +0.000 A 
ATOM     11  N   UNL     1      46.129   5.950  13.415  0.00  0.00    +0.000 NA
ATOM     12  C   UNL     1      48.612   6.076  15.994  0.00  0.00    +0.000 C 
ATOM     13  C   UNL     1      50.094   6.500  16.063  0.00  0.00    +0.000 C 
BRANCH   2  15
ATOM     14  C   UNL     1      50.529   8.312  18.260  0.00  0.00    +0.000 C 
ATOM     15  S   UNL     1      49.966   9.098  16.768  0.00  0.00    +0.000 S 
ATOM     16  O   UNL     1      48.526   9.229  16.857  0.00  0.00    +0.000 OA
ATOM     17  O   UNL     1      50.801  10.252  16.510  0.00  0.00    +0.000 OA
ENDBRANCH   2  15
ENDBRANCH   1  10
BRANCH   1  18
ATOM     18  C   UNL     1      44.316   7.112  11.530  0.00  0.00    +0.000 C 
ATOM     19  F   UNL     1      44.605   8.018  12.490  0.00  0.00    +0.000 F 
ATOM     20  F   UNL     1      45.283   7.191  10.597  0.00  0.00    +0.000 F 
ATOM     21  F   UNL     1      43.176   7.556  10.929  0.00  0.00    +0.000 F 
ENDBRANCH   1  18
BRANCH   1  22
ATOM     22  C   UNL     1      43.418   4.793  11.018  0.00  0.00    +0.000 C 
BRANCH  22  23
ATOM     23  N   UNL     1      43.935   5.009   9.676  0.00  0.00    +0.000 N 
ATOM     24  C   UNL     1      44.776   4.091   9.081  0.00  0.00    +0.000 A 
ATOM     25  C   UNL     1      44.761   2.712   9.320  0.00  0.00    +0.000 A 
ATOM     26  N   UNL     1      45.576   1.816   8.700  0.00  0.00    +0.000 NA
ATOM     27  C   UNL     1      46.406   2.362   7.773  0.00  0.00    +0.000 A 
ATOM     28  C   UNL     1      46.418   3.719   7.501  0.00  0.00    +0.000 A 
ATOM     29  N   UNL     1      45.617   4.599   8.156  0.00  0.00    +0.000 NA
ATOM     30  H   UNL     1      44.320   5.943   9.503  0.00  0.00    +0.000 HD
BRANCH  27  31
ATOM     31  C   UNL     1      47.329   1.447   7.051  0.00  0.00    +0.000 C 
ATOM     32  N   UNL     1      48.456   2.032   6.534  0.00  0.00    +0.000 N 
ATOM     33  O   UNL     1      47.102   0.253   6.911  0.00  0.00    +0.000 OA
ATOM     34  H   UNL     1      48.616   3.024   6.670  0.00  0.00    +0.000 HD
ATOM     35  H   UNL     1      49.127   1.468   6.036  0.00  0.00    +0.000 HD
ENDBRANCH  27  31
ENDBRANCH  22  23
ENDBRANCH   1  22
TORSDOF 6
ENDMDL
MODEL 5
REMARK VINA RESULT:    -7.207      5.744      8.546
REMARK INTER + INTRA:         -10.550
REMARK INTER:                 -10.157
REMARK INTRA:                  -0.393
REMARK UNBOUND:                -0.815
REMARK  Name = 
REMARK  7 active torsions:
REMARK  status: ('A' for Active; 'I' for Inactive)
REMARK    1  A    between atoms: C_1  and  S_2
REMARK    2  A    between atoms: S_2  and  N_5
REMARK    3  A    between atoms: C_13  and  C_14
REMARK    4  A    between atoms: C_14  and  C_15
REMARK    5  A    between atoms: C_14  and  C_26
REMARK    6  A    between atoms: C_15  and  N_16
REMARK    7  A    between atoms: C_20  and  C_21
REMARK                            x       y       z     vdW  Elec       q    Type
REMARK                         _______ _______ _______ _____ _____    ______ ____
ROOT
ATOM      1  C   UNL     1      49.701   7.013  16.403  0.00  0.00    +0.000 C 
ENDROOT
BRANCH   1  10
ATOM      2  N   UNL     1      45.067   3.624  11.583  0.00  0.00    +0.000 NA
ATOM      3  C   UNL     1      46.150   3.200  12.544  0.00  0.00    +0.000 C 
ATOM      4  C   UNL     1      46.558   4.318  13.530  0.00  0.00    +0.000 C 
ATOM      5  N   UNL     1      46.938   5.488  12.739  0.00  0.00    +0.000 N 
ATOM      6  C   UNL     1      47.927   6.328  13.203  0.00  0.00    +0.000 A 
ATOM      7  C   UNL     1      48.636   7.111  12.293  0.00  0.00    +0.000 A 
ATOM      8  C   UNL     1      49.724   7.858  12.714  0.00  0.00    +0.000 A 
ATOM      9  C   UNL     1      50.077   7.832  14.052  0.00  0.00    +0.000 A 
ATOM     10  C   UNL     1      49.319   7.064  14.936  0.00  0.00    +0.000 A 
ATOM     11  N   UNL     1      48.281   6.298  14.508  0.00  0.00    +0.000 NA
ATOM     12  C   UNL     1      45.861   6.009  11.883  0.00  0.00    +0.000 C 
ATOM     13  C   UNL     1      45.459   4.903  10.885  0.00  0.00    +0.000 C 
BRANCH   2  15
ATOM     14  C   UNL     1      42.755   5.004  11.335  0.00  0.00    +0.000 C 
ATOM     15  S   UNL     1      43.473   3.604  12.163  0.00  0.00    +0.000 S 
ATOM     16  O   UNL     1      43.519   3.908  13.578  0.00  0.00    +0.000 OA
ATOM     17  O   UNL     1      42.825   2.401  11.683  0.00  0.00    +0.000 OA
ENDBRANCH   2  15
ENDBRANCH   1  10
BRANCH   1  18
ATOM     18  C   UNL     1      50.408   8.273  16.903  0.00  0.00    +0.000 C 
ATOM     19  F   UNL     1      50.594   8.297  18.241  0.00  0.00    +0.000 F 
ATOM     20  F   UNL     1      51.601   8.511  16.326  0.00  0.00    +0.000 F 
ATOM     21  F   UNL     1      49.628   9.354  16.615  0.00  0.00    +0.000 F 
ENDBRANCH   1  18
BRANCH   1  22
ATOM     22  C   UNL     1      48.586   6.563  17.359  0.00  0.00    +0.000 C 
BRANCH  22  23
ATOM     23  N   UNL     1      48.307   5.138  17.281  0.00  0.00    +0.000 N 
ATOM     24  C   UNL     1      49.323   4.207  17.373  0.00  0.00    +0.000 A 
ATOM     25  C   UNL     1      50.504   4.376  18.103  0.00  0.00    +0.000 A 
ATOM     26  N   UNL     1      51.482   3.435  18.211  0.00  0.00    +0.000 NA
ATOM     27  C   UNL     1      51.206   2.267  17.575  0.00  0.00    +0.000 A 
ATOM     28  C   UNL     1      50.031   2.068  16.870  0.00  0.00    +0.000 A 
ATOM     29  N   UNL     1      49.084   3.035  16.750  0.00  0.00    +0.000 NA
ATOM     30  H   UNL     1      47.695   4.855  16.509  0.00  0.00    +0.000 HD
BRANCH  27  31
ATOM     31  C   UNL     1      52.226   1.187  17.645  0.00  0.00    +0.000 C 
ATOM     32  N   UNL     1      51.791  -0.005  18.164  0.00  0.00    +0.000 N 
ATOM     33  O   UNL     1      53.382   1.344  17.278  0.00  0.00    +0.000 OA
ATOM     34  H   UNL     1      50.824  -0.104  18.456  0.00  0.00    +0.000 HD
ATOM     35  H   UNL     1      52.430  -0.781  18.237  0.00  0.00    +0.000 HD
ENDBRANCH  27  31
ENDBRANCH  22  23
ENDBRANCH   1  22
TORSDOF 6
ENDMDL
MODEL 6
REMARK VINA RESULT:    -6.934      2.012      2.735
REMARK INTER + INTRA:         -10.181
REMARK INTER:                 -10.821
REMARK INTRA:                   0.640
REMARK UNBOUND:                -0.815
REMARK  Name = 
REMARK  7 active torsions:
REMARK  status: ('A' for Active; 'I' for Inactive)
REMARK    1  A    between atoms: C_1  and  S_2
REMARK    2  A    between atoms: S_2  and  N_5
REMARK    3  A    between atoms: C_13  and  C_14
REMARK    4  A    between atoms: C_14  and  C_15
REMARK    5  A    between atoms: C_14  and  C_26
REMARK    6  A    between atoms: C_15  and  N_16
REMARK    7  A    between atoms: C_20  and  C_21
REMARK                            x       y       z     vdW  Elec       q    Type
REMARK                         _______ _______ _______ _____ _____    ______ ____
ROOT
ATOM      1  C   UNL     1      44.686   4.437  11.765  0.00  0.00    +0.000 C 
ENDROOT
BRANCH   1  10
ATOM      2  N   UNL     1      50.447   9.178  12.492  0.00  0.00    +0.000 NA
ATOM      3  C   UNL     1      50.003   8.138  11.494  0.00  0.00    +0.000 C 
ATOM      4  C   UNL     1      48.540   7.682  11.700  0.00  0.00    +0.000 C 
ATOM      5  N   UNL     1      48.414   7.221  13.083  0.00  0.00    +0.000 N 
ATOM      6  C   UNL     1      47.544   6.193  13.378  0.00  0.00    +0.000 A 
ATOM      7  C   UNL     1      47.764   5.424  14.520  0.00  0.00    +0.000 A 
ATOM      8  C   UNL     1      46.990   4.302  14.765  0.00  0.00    +0.000 A 
ATOM      9  C   UNL     1      45.984   3.973  13.871  0.00  0.00    +0.000 A 
ATOM     10  C   UNL     1      45.774   4.790  12.761  0.00  0.00    +0.000 A 
ATOM     11  N   UNL     1      46.567   5.863  12.502  0.00  0.00    +0.000 NA
ATOM     12  C   UNL     1      48.715   8.251  14.089  0.00  0.00    +0.000 C 
ATOM     13  C   UNL     1      50.179   8.701  13.898  0.00  0.00    +0.000 C 
BRANCH   2  15
ATOM     14  C   UNL     1      48.606  10.569  11.082  0.00  0.00    +0.000 C 
ATOM     15  S   UNL     1      49.974  10.781  12.196  0.00  0.00    +0.000 S 
ATOM     16  O   UNL     1      51.044  11.422  11.460  0.00  0.00    +0.000 OA
ATOM     17  O   UNL     1      49.481  11.349  13.433  0.00  0.00    +0.000 OA
ENDBRANCH   2  15
ENDBRANCH   1  10
BRANCH   1  18
ATOM     18  C   UNL     1      43.546   3.610  12.361  0.00  0.00    +0.000 C 
ATOM     19  F   UNL     1      43.850   2.304  12.524  0.00  0.00    +0.000 F 
ATOM     20  F   UNL     1      43.083   4.066  13.540  0.00  0.00    +0.000 F 
ATOM     21  F   UNL     1      42.487   3.644  11.502  0.00  0.00    +0.000 F 
ENDBRANCH   1  18
BRANCH   1  22
ATOM     22  C   UNL     1      44.164   5.606  10.917  0.00  0.00    +0.000 C 
BRANCH  22  23
ATOM     23  N   UNL     1      44.689   5.607   9.560  0.00  0.00    +0.000 N 
ATOM     24  C   UNL     1      45.304   4.489   9.034  0.00  0.00    +0.000 A 
ATOM     25  C   UNL     1      45.001   3.167   9.377  0.00  0.00    +0.000 A 
ATOM     26  N   UNL     1      45.594   2.074   8.825  0.00  0.00    +0.000 NA
ATOM     27  C   UNL     1      46.502   2.360   7.855  0.00  0.00    +0.000 A 
ATOM     28  C   UNL     1      46.798   3.660   7.480  0.00  0.00    +0.000 A 
ATOM     29  N   UNL     1      46.215   4.737   8.070  0.00  0.00    +0.000 NA
ATOM     30  H   UNL     1      45.261   6.422   9.315  0.00  0.00    +0.000 HD
BRANCH  27  31
ATOM     31  C   UNL     1      47.195   1.219   7.202  0.00  0.00    +0.000 C 
ATOM     32  N   UNL     1      48.265   1.551   6.411  0.00  0.00    +0.000 N 
ATOM     33  O   UNL     1      46.836   0.058   7.344  0.00  0.00    +0.000 OA
ATOM     34  H   UNL     1      48.539   2.523   6.317  0.00  0.00    +0.000 HD
ATOM     35  H   UNL     1      48.782   0.825   5.941  0.00  0.00    +0.000 HD
ENDBRANCH  27  31
ENDBRANCH  22  23
ENDBRANCH   1  22
TORSDOF 6
ENDMDL
MODEL 7
REMARK VINA RESULT:    -6.673      3.287      5.575
REMARK INTER + INTRA:          -9.829
REMARK INTER:                  -8.652
REMARK INTRA:                  -1.177
REMARK UNBOUND:                -0.815
REMARK  Name = 
REMARK  7 active torsions:
REMARK  status: ('A' for Active; 'I' for Inactive)
REMARK    1  A    between atoms: C_1  and  S_2
REMARK    2  A    between atoms: S_2  and  N_5
REMARK    3  A    between atoms: C_13  and  C_14
REMARK    4  A    between atoms: C_14  and  C_15
REMARK    5  A    between atoms: C_14  and  C_26
REMARK    6  A    between atoms: C_15  and  N_16
REMARK    7  A    between atoms: C_20  and  C_21
REMARK                            x       y       z     vdW  Elec       q    Type
REMARK                         _______ _______ _______ _____ _____    ______ ____
ROOT
ATOM      1  C   UNL     1      45.375   5.338  11.985  0.00  0.00    +0.000 C 
ENDROOT
BRANCH   1  10
ATOM      2  N   UNL     1      51.612   9.390  12.917  0.00  0.00    +0.000 NA
ATOM      3  C   UNL     1      50.890   8.302  13.670  0.00  0.00    +0.000 C 
ATOM      4  C   UNL     1      49.795   7.604  12.831  0.00  0.00    +0.000 C 
ATOM      5  N   UNL     1      48.888   8.642  12.340  0.00  0.00    +0.000 N 
ATOM      6  C   UNL     1      47.551   8.352  12.179  0.00  0.00    +0.000 A 
ATOM      7  C   UNL     1      46.622   9.391  12.210  0.00  0.00    +0.000 A 
ATOM      8  C   UNL     1      45.265   9.115  12.190  0.00  0.00    +0.000 A 
ATOM      9  C   UNL     1      44.850   7.796  12.117  0.00  0.00    +0.000 A 
ATOM     10  C   UNL     1      45.812   6.789  12.051  0.00  0.00    +0.000 A 
ATOM     11  N   UNL     1      47.141   7.064  12.117  0.00  0.00    +0.000 NA
ATOM     12  C   UNL     1      49.537   9.653  11.491  0.00  0.00    +0.000 C 
ATOM     13  C   UNL     1      50.621  10.364  12.327  0.00  0.00    +0.000 C 
BRANCH   2  15
ATOM     14  C   UNL     1      54.096   8.323  12.956  0.00  0.00    +0.000 C 
ATOM     15  S   UNL     1      52.835   8.904  11.846  0.00  0.00    +0.000 S 
ATOM     16  O   UNL     1      53.340  10.094  11.192  0.00  0.00    +0.000 OA
ATOM     17  O   UNL     1      52.348   7.783  11.072  0.00  0.00    +0.000 OA
ENDBRANCH   2  15
ENDBRANCH   1  10
BRANCH   1  18
ATOM     18  C   UNL     1      44.991   4.871  10.580  0.00  0.00    +0.000 C 
ATOM     19  F   UNL     1      43.679   5.027  10.296  0.00  0.00    +0.000 F 
ATOM     20  F   UNL     1      45.689   5.454   9.587  0.00  0.00    +0.000 F 
ATOM     21  F   UNL     1      45.239   3.534  10.481  0.00  0.00    +0.000 F 
ENDBRANCH   1  18
BRANCH   1  22
ATOM     22  C   UNL     1      46.305   4.337  12.686  0.00  0.00    +0.000 C 
BRANCH  22  23
ATOM     23  N   UNL     1      45.978   4.140  14.090  0.00  0.00    +0.000 N 
ATOM     24  C   UNL     1      46.907   4.397  15.079  0.00  0.00    +0.000 A 
ATOM     25  C   UNL     1      47.920   5.358  15.003  0.00  0.00    +0.000 A 
ATOM     26  N   UNL     1      48.807   5.621  16.000  0.00  0.00    +0.000 NA
ATOM     27  C   UNL     1      48.612   4.891  17.129  0.00  0.00    +0.000 A 
ATOM     28  C   UNL     1      47.599   3.953  17.237  0.00  0.00    +0.000 A 
ATOM     29  N   UNL     1      46.744   3.686  16.215  0.00  0.00    +0.000 NA
ATOM     30  H   UNL     1      45.525   3.248  14.311  0.00  0.00    +0.000 HD
BRANCH  27  31
ATOM     31  C   UNL     1      49.541   5.119  18.267  0.00  0.00    +0.000 C 
ATOM     32  N   UNL     1      50.014   3.988  18.881  0.00  0.00    +0.000 N 
ATOM     33  O   UNL     1      49.861   6.237  18.646  0.00  0.00    +0.000 OA
ATOM     34  H   UNL     1      49.731   3.075  18.541  0.00  0.00    +0.000 HD
ATOM     35  H   UNL     1      50.651   4.070  19.657  0.00  0.00    +0.000 HD
ENDBRANCH  27  31
ENDBRANCH  22  23
ENDBRANCH   1  22
TORSDOF 6
ENDMDL
MODEL 8
REMARK VINA RESULT:    -6.543      5.126      8.323
REMARK INTER + INTRA:          -9.653
REMARK INTER:                  -8.907
REMARK INTRA:                  -0.746
REMARK UNBOUND:                -0.815
REMARK  Name = 
REMARK  7 active torsions:
REMARK  status: ('A' for Active; 'I' for Inactive)
REMARK    1  A    between atoms: C_1  and  S_2
REMARK    2  A    between atoms: S_2  and  N_5
REMARK    3  A    between atoms: C_13  and  C_14
REMARK    4  A    between atoms: C_14  and  C_15
REMARK    5  A    between atoms: C_14  and  C_26
REMARK    6  A    between atoms: C_15  and  N_16
REMARK    7  A    between atoms: C_20  and  C_21
REMARK                            x       y       z     vdW  Elec       q    Type
REMARK                         _______ _______ _______ _____ _____    ______ ____
ROOT
ATOM      1  C   UNL     1      50.829   8.693  13.614  0.00  0.00    +0.000 C 
ENDROOT
BRANCH   1  10
ATOM      2  N   UNL     1      44.434   5.449  11.430  0.00  0.00    +0.000 NA
ATOM      3  C   UNL     1      45.895   5.342  11.071  0.00  0.00    +0.000 C 
ATOM      4  C   UNL     1      46.824   6.043  12.089  0.00  0.00    +0.000 C 
ATOM      5  N   UNL     1      46.377   7.431  12.211  0.00  0.00    +0.000 N 
ATOM      6  C   UNL     1      47.303   8.422  12.453  0.00  0.00    +0.000 A 
ATOM      7  C   UNL     1      47.007   9.733  12.081  0.00  0.00    +0.000 A 
ATOM      8  C   UNL     1      47.972  10.722  12.185  0.00  0.00    +0.000 A 
ATOM      9  C   UNL     1      49.220  10.391  12.684  0.00  0.00    +0.000 A 
ATOM     10  C   UNL     1      49.463   9.076  13.079  0.00  0.00    +0.000 A 
ATOM     11  N   UNL     1      48.527   8.101  12.931  0.00  0.00    +0.000 NA
ATOM     12  C   UNL     1      44.992   7.576  12.685  0.00  0.00    +0.000 C 
ATOM     13  C   UNL     1      44.058   6.891  11.666  0.00  0.00    +0.000 C 
BRANCH   2  15
ATOM     14  C   UNL     1      43.388   2.963  11.626  0.00  0.00    +0.000 C 
ATOM     15  S   UNL     1      43.850   4.373  12.605  0.00  0.00    +0.000 S 
ATOM     16  O   UNL     1      42.636   4.943  13.154  0.00  0.00    +0.000 OA
ATOM     17  O   UNL     1      44.948   3.997  13.470  0.00  0.00    +0.000 OA
ENDBRANCH   2  15
ENDBRANCH   1  10
BRANCH   1  18
ATOM     18  C   UNL     1      51.971   9.550  13.065  0.00  0.00    +0.000 C 
ATOM     19  F   UNL     1      53.187   8.971  13.177  0.00  0.00    +0.000 F 
ATOM     20  F   UNL     1      51.820   9.926  11.781  0.00  0.00    +0.000 F 
ATOM     21  F   UNL     1      52.039  10.703  13.789  0.00  0.00    +0.000 F 
ENDBRANCH   1  18
BRANCH   1  22
ATOM     22  C   UNL     1      50.917   8.529  15.138  0.00  0.00    +0.000 C 
BRANCH  22  23
ATOM     23  N   UNL     1      51.300   7.186  15.547  0.00  0.00    +0.000 N 
ATOM     24  C   UNL     1      50.385   6.330  16.126  0.00  0.00    +0.000 A 
ATOM     25  C   UNL     1      49.010   6.327  15.866  0.00  0.00    +0.000 A 
ATOM     26  N   UNL     1      48.125   5.455  16.421  0.00  0.00    +0.000 NA
ATOM     27  C   UNL     1      48.690   4.531  17.242  0.00  0.00    +0.000 A 
ATOM     28  C   UNL     1      50.051   4.499  17.492  0.00  0.00    +0.000 A 
ATOM     29  N   UNL     1      50.911   5.401  16.950  0.00  0.00    +0.000 NA
ATOM     30  H   UNL     1      52.169   7.126  16.088  0.00  0.00    +0.000 HD
BRANCH  27  31
ATOM     31  C   UNL     1      47.789   3.541  17.889  0.00  0.00    +0.000 C 
ATOM     32  N   UNL     1      48.219   3.048  19.094  0.00  0.00    +0.000 N 
ATOM     33  O   UNL     1      46.737   3.175  17.383  0.00  0.00    +0.000 OA
ATOM     34  H   UNL     1      49.096   3.375  19.487  0.00  0.00    +0.000 HD
ATOM     35  H   UNL     1      47.655   2.376  19.588  0.00  0.00    +0.000 HD
ENDBRANCH  27  31
ENDBRANCH  22  23
ENDBRANCH   1  22
TORSDOF 6
ENDMDL
MODEL 9
REMARK VINA RESULT:    -6.343      4.739      8.728
REMARK INTER + INTRA:          -9.383
REMARK INTER:                  -8.406
REMARK INTRA:                  -0.978
REMARK UNBOUND:                -0.815
REMARK  Name = 
REMARK  7 active torsions:
REMARK  status: ('A' for Active; 'I' for Inactive)
REMARK    1  A    between atoms: C_1  and  S_2
REMARK    2  A    between atoms: S_2  and  N_5
REMARK    3  A    between atoms: C_13  and  C_14
REMARK    4  A    between atoms: C_14  and  C_15
REMARK    5  A    between atoms: C_14  and  C_26
REMARK    6  A    between atoms: C_15  and  N_16
REMARK    7  A    between atoms: C_20  and  C_21
REMARK                            x       y       z     vdW  Elec       q    Type
REMARK                         _______ _______ _______ _____ _____    ______ ____
ROOT
ATOM      1  C   UNL     1      49.647   8.933  11.897  0.00  0.00    +0.000 C 
ENDROOT
BRANCH   1  10
ATOM      2  N   UNL     1      43.788   4.477  10.484  0.00  0.00    +0.000 NA
ATOM      3  C   UNL     1      44.912   5.092   9.690  0.00  0.00    +0.000 C 
ATOM      4  C   UNL     1      46.034   5.678  10.578  0.00  0.00    +0.000 C 
ATOM      5  N   UNL     1      45.414   6.629  11.501  0.00  0.00    +0.000 N 
ATOM      6  C   UNL     1      46.121   7.742  11.904  0.00  0.00    +0.000 A 
ATOM      7  C   UNL     1      45.424   8.867  12.340  0.00  0.00    +0.000 A 
ATOM      8  C   UNL     1      46.102  10.043  12.618  0.00  0.00    +0.000 A 
ATOM      9  C   UNL     1      47.479  10.073  12.476  0.00  0.00    +0.000 A 
ATOM     10  C   UNL     1      48.141   8.914  12.072  0.00  0.00    +0.000 A 
ATOM     11  N   UNL     1      47.465   7.777  11.757  0.00  0.00    +0.000 NA
ATOM     12  C   UNL     1      44.399   6.034  12.384  0.00  0.00    +0.000 C 
ATOM     13  C   UNL     1      43.269   5.460  11.504  0.00  0.00    +0.000 C 
BRANCH   2  15
ATOM     14  C   UNL     1      44.545   2.025   9.631  0.00  0.00    +0.000 C 
ATOM     15  S   UNL     1      44.037   2.911  11.087  0.00  0.00    +0.000 S 
ATOM     16  O   UNL     1      42.748   2.388  11.491  0.00  0.00    +0.000 OA
ATOM     17  O   UNL     1      45.147   2.949  12.016  0.00  0.00    +0.000 OA
ENDBRANCH   2  15
ENDBRANCH   1  10
BRANCH   1  18
ATOM     18  C   UNL     1      50.184  10.229  11.290  0.00  0.00    +0.000 C 
ATOM     19  F   UNL     1      49.324  10.825  10.434  0.00  0.00    +0.000 F 
ATOM     20  F   UNL     1      50.561  11.155  12.192  0.00  0.00    +0.000 F 
ATOM     21  F   UNL     1      51.298   9.940  10.559  0.00  0.00    +0.000 F 
ENDBRANCH   1  18
BRANCH   1  22
ATOM     22  C   UNL     1      50.458   8.497  13.126  0.00  0.00    +0.000 C 
BRANCH  22  23
ATOM     23  N   UNL     1      49.934   7.299  13.762  0.00  0.00    +0.000 N 
ATOM     24  C   UNL     1      49.503   7.319  15.074  0.00  0.00    +0.000 A 
ATOM     25  C   UNL     1      48.949   8.429  15.722  0.00  0.00    +0.000 A 
ATOM     26  N   UNL     1      48.499   8.424  17.006  0.00  0.00    +0.000 NA
ATOM     27  C   UNL     1      48.589   7.218  17.625  0.00  0.00    +0.000 A 
ATOM     28  C   UNL     1      49.108   6.100  16.994  0.00  0.00    +0.000 A 
ATOM     29  N   UNL     1      49.581   6.138  15.721  0.00  0.00    +0.000 NA
ATOM     30  H   UNL     1      50.499   6.454  13.633  0.00  0.00    +0.000 HD
BRANCH  27  31
ATOM     31  C   UNL     1      48.118   7.129  19.032  0.00  0.00    +0.000 C 
ATOM     32  N   UNL     1      47.483   8.245  19.515  0.00  0.00    +0.000 N 
ATOM     33  O   UNL     1      48.290   6.137  19.727  0.00  0.00    +0.000 OA
ATOM     34  H   UNL     1      47.354   9.051  18.912  0.00  0.00    +0.000 HD
ATOM     35  H   UNL     1      47.135   8.251  20.460  0.00  0.00    +0.000 HD
ENDBRANCH  27  31
ENDBRANCH  22  23
ENDBRANCH   1  22
TORSDOF 6
ENDMDL
