MODEL 1
REMARK VINA RESULT:    -7.650      0.000      0.000
REMARK INTER + INTRA:         -10.513
REMARK INTER:                 -10.110
REMARK INTRA:                  -0.403
REMARK UNBOUND:                -0.403
REMARK  Name = 
REMARK  6 active torsions:
REMARK  status: ('A' for Active; 'I' for Inactive)
REMARK    1  A    between atoms: N_1  and  C_2
REMARK    2  A    between atoms: C_2  and  C_3
REMARK    3  A    between atoms: C_3  and  C_4
REMARK    4  A    between atoms: C_4  and  C_5
REMARK    5  A    between atoms: N_11  and  C_12
REMARK    6  A    between atoms: C_12  and  C_13
REMARK                            x       y       z     vdW  Elec       q    Type
REMARK                         _______ _______ _______ _____ _____    ______ ____
ROOT
ATOM      1  C   UNL     1      45.573   3.760   8.438  0.00  0.00    +0.000 A 
ATOM      2  C   UNL     1      45.039   2.485   8.656  0.00  0.00    +0.000 A 
ATOM      3  N   UNL     1      44.194   2.132   9.649  0.00  0.00    +0.000 NA
ATOM      4  C   UNL     1      43.887   3.133  10.498  0.00  0.00    +0.000 A 
ATOM      5  N   UNL     1      43.069   3.022  11.591  0.00  0.00    +0.000 NA
ATOM      6  C   UNL     1      43.068   4.216  12.138  0.00  0.00    +0.000 A 
ATOM      7  N   UNL     1      43.858   5.091  11.447  0.00  0.00    +0.000 N 
ATOM      8  C   UNL     1      44.383   4.428  10.370  0.00  0.00    +0.000 A 
ATOM      9  C   UNL     1      45.235   4.785   9.326  0.00  0.00    +0.000 A 
ENDROOT
BRANCH   1  10
ATOM     10  C   UNL     1      46.524   4.024   7.298  0.00  0.00    +0.000 C 
BRANCH  10  11
ATOM     11  C   UNL     1      46.582   2.867   6.301  0.00  0.00    +0.000 C 
BRANCH  11  12
ATOM     12  C   UNL     1      47.724   1.910   6.632  0.00  0.00    +0.000 C 
BRANCH  12  13
ATOM     13  N   UNL     1      48.574   1.733   5.463  0.00  0.00    +0.000 NA
ATOM     14  H   UNL     1      49.544   1.911   5.712  0.00  0.00    +0.000 HD
ATOM     15  H   UNL     1      48.330   2.417   4.747  0.00  0.00    +0.000 HD
ENDBRANCH  12  13
ENDBRANCH  11  12
ENDBRANCH  10  11
ENDBRANCH   1  10
BRANCH   7  16
ATOM     16  C   UNL     1      44.130   6.467  11.831  0.00  0.00    +0.000 C 
BRANCH  16  17
ATOM     17  C   UNL     1      45.538   6.607  12.340  0.00  0.00    +0.000 A 
ATOM     18  C   UNL     1      46.392   7.614  11.875  0.00  0.00    +0.000 A 
ATOM     19  C   UNL     1      47.658   7.764  12.434  0.00  0.00    +0.000 A 
ATOM     20  C   UNL     1      48.033   6.885  13.432  0.00  0.00    +0.000 A 
ATOM     21 CL   UNL     1      49.559   7.020  14.200  0.00  0.00    +0.000 Cl
ATOM     22  N   UNL     1      47.259   5.877  13.887  0.00  0.00    +0.000 NA
ATOM     23  C   UNL     1      46.031   5.764  13.335  0.00  0.00    +0.000 A 
ENDBRANCH  16  17
ENDBRANCH   7  16
TORSDOF 6
ENDMDL
MODEL 2
REMARK VINA RESULT:    -7.429      2.568      6.078
REMARK INTER + INTRA:         -10.220
REMARK INTER:                  -9.591
REMARK INTRA:                  -0.630
REMARK UNBOUND:                -0.403
REMARK  Name = 
REMARK  6 active torsions:
REMARK  status: ('A' for Active; 'I' for Inactive)
REMARK    1  A    between atoms: N_1  and  C_2
REMARK    2  A    between atoms: C_2  and  C_3
REMARK    3  A    between atoms: C_3  and  C_4
REMARK    4  A    between atoms: C_4  and  C_5
REMARK    5  A    between atoms: N_11  and  C_12
REMARK    6  A    between atoms: C_12  and  C_13
REMARK                            x       y       z     vdW  Elec       q    Type
REMARK                         _______ _______ _______ _____ _____    ______ ____
ROOT
ATOM      1  C   UNL     1      46.959   5.863  12.754  0.00  0.00    +0.000 A 
ATOM      2  C   UNL     1      46.651   5.310  14.002  0.00  0.00    +0.000 A 
ATOM      3  N   UNL     1      45.657   4.433  14.264  0.00  0.00    +0.000 NA
ATOM      4  C   UNL     1      44.903   4.113  13.193  0.00  0.00    +0.000 A 
ATOM      5  N   UNL     1      43.829   3.263  13.206  0.00  0.00    +0.000 NA
ATOM      6  C   UNL     1      43.383   3.260  11.970  0.00  0.00    +0.000 A 
ATOM      7  N   UNL     1      44.121   4.079  11.163  0.00  0.00    +0.000 N 
ATOM      8  C   UNL     1      45.124   4.627  11.918  0.00  0.00    +0.000 A 
ATOM      9  C   UNL     1      46.169   5.511  11.656  0.00  0.00    +0.000 A 
ENDROOT
BRANCH   1  10
ATOM     10  C   UNL     1      48.089   6.848  12.594  0.00  0.00    +0.000 C 
BRANCH  10  11
ATOM     11  C   UNL     1      47.607   8.226  12.138  0.00  0.00    +0.000 C 
BRANCH  11  12
ATOM     12  C   UNL     1      46.541   8.778  13.081  0.00  0.00    +0.000 C 
BRANCH  12  13
ATOM     13  N   UNL     1      47.116   8.995  14.402  0.00  0.00    +0.000 NA
ATOM     14  H   UNL     1      48.044   8.581  14.446  0.00  0.00    +0.000 HD
ATOM     15  H   UNL     1      46.554   8.521  15.109  0.00  0.00    +0.000 HD
ENDBRANCH  12  13
ENDBRANCH  11  12
ENDBRANCH  10  11
ENDBRANCH   1  10
BRANCH   7  16
ATOM     16  C   UNL     1      43.846   4.356   9.762  0.00  0.00    +0.000 C 
BRANCH  16  17
ATOM     17  C   UNL     1      44.864   3.689   8.879  0.00  0.00    +0.000 A 
ATOM     18  C   UNL     1      45.702   4.426   8.035  0.00  0.00    +0.000 A 
ATOM     19  C   UNL     1      46.689   3.779   7.298  0.00  0.00    +0.000 A 
ATOM     20  C   UNL     1      46.793   2.407   7.420  0.00  0.00    +0.000 A 
ATOM     21 CL   UNL     1      48.002   1.534   6.577  0.00  0.00    +0.000 Cl
ATOM     22  N   UNL     1      45.984   1.650   8.191  0.00  0.00    +0.000 NA
ATOM     23  C   UNL     1      45.043   2.307   8.904  0.00  0.00    +0.000 A 
ENDBRANCH  16  17
ENDBRANCH   7  16
TORSDOF 6
ENDMDL
MODEL 3
REMARK VINA RESULT:    -7.218      3.096      6.496
REMARK INTER + INTRA:          -9.942
REMARK INTER:                  -9.442
REMARK INTRA:                  -0.499
REMARK UNBOUND:                -0.403
REMARK  Name = 
REMARK  6 active torsions:
REMARK  status: ('A' for Active; 'I' for Inactive)
REMARK    1  A    between atoms: N_1  and  C_2
REMARK    2  A    between atoms: C_2  and  C_3
REMARK    3  A    between atoms: C_3  and  C_4
REMARK    4  A    between atoms: C_4  and  C_5
REMARK    5  A    between atoms: N_11  and  C_12
REMARK    6  A    between atoms: C_12  and  C_13
REMARK                            x       y       z     vdW  Elec       q    Type
REMARK                         _______ _______ _______ _____ _____    ______ ____
ROOT
ATOM      1  C   UNL     1      46.899   4.361  13.999  0.00  0.00    +0.000 A 
ATOM      2  C   UNL     1      47.363   5.674  14.138  0.00  0.00    +0.000 A 
ATOM      3  N   UNL     1      46.933   6.751  13.445  0.00  0.00    +0.000 NA
ATOM      4  C   UNL     1      45.984   6.478  12.527  0.00  0.00    +0.000 A 
ATOM      5  N   UNL     1      45.404   7.393  11.690  0.00  0.00    +0.000 NA
ATOM      6  C   UNL     1      44.564   6.699  10.957  0.00  0.00    +0.000 A 
ATOM      7  N   UNL     1      44.584   5.372  11.281  0.00  0.00    +0.000 N 
ATOM      8  C   UNL     1      45.474   5.200  12.308  0.00  0.00    +0.000 A 
ATOM      9  C   UNL     1      45.909   4.102  13.047  0.00  0.00    +0.000 A 
ENDROOT
BRANCH   1  10
ATOM     10  C   UNL     1      47.475   3.238  14.824  0.00  0.00    +0.000 C 
BRANCH  10  11
ATOM     11  C   UNL     1      47.575   3.591  16.308  0.00  0.00    +0.000 C 
BRANCH  11  12
ATOM     12  C   UNL     1      48.709   2.823  16.981  0.00  0.00    +0.000 C 
BRANCH  12  13
ATOM     13  N   UNL     1      49.291   1.875  16.040  0.00  0.00    +0.000 NA
ATOM     14  H   UNL     1      48.802   0.985  16.102  0.00  0.00    +0.000 HD
ATOM     15  H   UNL     1      50.262   1.689  16.288  0.00  0.00    +0.000 HD
ENDBRANCH  12  13
ENDBRANCH  11  12
ENDBRANCH  10  11
ENDBRANCH   1  10
BRANCH   7  16
ATOM     16  C   UNL     1      43.829   4.326  10.609  0.00  0.00    +0.000 C 
BRANCH  16  17
ATOM     17  C   UNL     1      44.677   3.643   9.572  0.00  0.00    +0.000 A 
ATOM     18  C   UNL     1      45.332   4.363   8.566  0.00  0.00    +0.000 A 
ATOM     19  C   UNL     1      46.176   3.703   7.677  0.00  0.00    +0.000 A 
ATOM     20  C   UNL     1      46.322   2.336   7.816  0.00  0.00    +0.000 A 
ATOM     21 CL   UNL     1      47.368   1.451   6.789  0.00  0.00    +0.000 Cl
ATOM     22  N   UNL     1      45.682   1.595   8.746  0.00  0.00    +0.000 NA
ATOM     23  C   UNL     1      44.880   2.264   9.602  0.00  0.00    +0.000 A 
ENDBRANCH  16  17
ENDBRANCH   7  16
TORSDOF 6
ENDMDL
MODEL 4
REMARK VINA RESULT:    -6.975      2.878      6.633
REMARK INTER + INTRA:          -9.620
REMARK INTER:                  -8.972
REMARK INTRA:                  -0.649
REMARK UNBOUND:                -0.403
REMARK  Name = 
REMARK  6 active torsions:
REMARK  status: ('A' for Active; 'I' for Inactive)
REMARK    1  A    between atoms: N_1  and  C_2
REMARK    2  A    between atoms: C_2  and  C_3
REMARK    3  A    between atoms: C_3  and  C_4
REMARK    4  A    between atoms: C_4  and  C_5
REMARK    5  A    between atoms: N_11  and  C_12
REMARK    6  A    between atoms: C_12  and  C_13
REMARK                            x       y       z     vdW  Elec       q    Type
REMARK                         _______ _______ _______ _____ _____    ______ ____
ROOT
ATOM      1  C   UNL     1      47.272   7.687  13.362  0.00  0.00    +0.000 A 
ATOM      2  C   UNL     1      48.048   7.061  14.344  0.00  0.00    +0.000 A 
ATOM      3  N   UNL     1      48.055   5.742  14.636  0.00  0.00    +0.000 NA
ATOM      4  C   UNL     1      47.196   5.007  13.901  0.00  0.00    +0.000 A 
ATOM      5  N   UNL     1      47.006   3.656  14.022  0.00  0.00    +0.000 NA
ATOM      6  C   UNL     1      46.076   3.364  13.142  0.00  0.00    +0.000 A 
ATOM      7  N   UNL     1      45.653   4.473  12.464  0.00  0.00    +0.000 N 
ATOM      8  C   UNL     1      46.374   5.546  12.915  0.00  0.00    +0.000 A 
ATOM      9  C   UNL     1      46.395   6.905  12.607  0.00  0.00    +0.000 A 
ENDROOT
BRANCH   1  10
ATOM     10  C   UNL     1      47.344   9.177  13.143  0.00  0.00    +0.000 C 
BRANCH  10  11
ATOM     11  C   UNL     1      46.802   9.597  11.776  0.00  0.00    +0.000 C 
BRANCH  11  12
ATOM     12  C   UNL     1      45.668  10.609  11.920  0.00  0.00    +0.000 C 
BRANCH  12  13
ATOM     13  N   UNL     1      44.523   9.980  12.563  0.00  0.00    +0.000 NA
ATOM     14  H   UNL     1      44.774   9.044  12.874  0.00  0.00    +0.000 HD
ATOM     15  H   UNL     1      43.764   9.866  11.891  0.00  0.00    +0.000 HD
ENDBRANCH  12  13
ENDBRANCH  11  12
ENDBRANCH  10  11
ENDBRANCH   1  10
BRANCH   7  16
ATOM     16  C   UNL     1      44.584   4.503  11.478  0.00  0.00    +0.000 C 
BRANCH  16  17
ATOM     17  C   UNL     1      45.093   4.068  10.131  0.00  0.00    +0.000 A 
ATOM     18  C   UNL     1      44.996   2.740   9.701  0.00  0.00    +0.000 A 
ATOM     19  C   UNL     1      45.399   2.395   8.415  0.00  0.00    +0.000 A 
ATOM     20  C   UNL     1      45.904   3.394   7.605  0.00  0.00    +0.000 A 
ATOM     21 CL   UNL     1      46.391   3.064   5.996  0.00  0.00    +0.000 Cl
ATOM     22  N   UNL     1      46.052   4.680   7.988  0.00  0.00    +0.000 NA
ATOM     23  C   UNL     1      45.640   4.987   9.237  0.00  0.00    +0.000 A 
ENDBRANCH  16  17
ENDBRANCH   7  16
TORSDOF 6
ENDMDL
MODEL 5
REMARK VINA RESULT:    -6.840      3.061      6.665
REMARK INTER + INTRA:          -9.442
REMARK INTER:                  -8.904
REMARK INTRA:                  -0.539
REMARK UNBOUND:                -0.403
REMARK  Name = 
REMARK  6 active torsions:
REMARK  status: ('A' for Active; 'I' for Inactive)
REMARK    1  A    between atoms: N_1  and  C_2
REMARK    2  A    between atoms: C_2  and  C_3
REMARK    3  A    between atoms: C_3  and  C_4
REMARK    4  A    between atoms: C_4  and  C_5
REMARK    5  A    between atoms: N_11  and  C_12
REMARK    6  A    between atoms: C_12  and  C_13
REMARK                            x       y       z     vdW  Elec       q    Type
REMARK                         _______ _______ _______ _____ _____    ______ ____
ROOT
ATOM      1  C   UNL     1      45.329   8.674  11.926  0.00  0.00    +0.000 A 
ATOM      2  C   UNL     1      46.163   8.523  13.039  0.00  0.00    +0.000 A 
ATOM      3  N   UNL     1      46.576   7.355  13.576  0.00  0.00    +0.000 NA
ATOM      4  C   UNL     1      46.091   6.259  12.958  0.00  0.00    +0.000 A 
ATOM      5  N   UNL     1      46.348   4.964  13.324  0.00  0.00    +0.000 NA
ATOM      6  C   UNL     1      45.664   4.229  12.477  0.00  0.00    +0.000 A 
ATOM      7  N   UNL     1      44.969   4.997  11.585  0.00  0.00    +0.000 N 
ATOM      8  C   UNL     1      45.243   6.312  11.855  0.00  0.00    +0.000 A 
ATOM      9  C   UNL     1      44.844   7.525  11.296  0.00  0.00    +0.000 A 
ENDROOT
BRANCH   1  10
ATOM     10  C   UNL     1      44.925  10.040  11.432  0.00  0.00    +0.000 C 
BRANCH  10  11
ATOM     11  C   UNL     1      43.850   9.979  10.346  0.00  0.00    +0.000 C 
BRANCH  11  12
ATOM     12  C   UNL     1      42.457  10.183  10.937  0.00  0.00    +0.000 C 
BRANCH  12  13
ATOM     13  N   UNL     1      42.552  10.952  12.171  0.00  0.00    +0.000 NA
ATOM     14  H   UNL     1      41.633  11.030  12.599  0.00  0.00    +0.000 HD
ATOM     15  H   UNL     1      42.858  11.904  11.966  0.00  0.00    +0.000 HD
ENDBRANCH  12  13
ENDBRANCH  11  12
ENDBRANCH  10  11
ENDBRANCH   1  10
BRANCH   7  16
ATOM     16  C   UNL     1      44.060   4.496  10.567  0.00  0.00    +0.000 C 
BRANCH  16  17
ATOM     17  C   UNL     1      44.810   3.718   9.521  0.00  0.00    +0.000 A 
ATOM     18  C   UNL     1      45.507   4.356   8.488  0.00  0.00    +0.000 A 
ATOM     19  C   UNL     1      46.259   3.605   7.591  0.00  0.00    +0.000 A 
ATOM     20  C   UNL     1      46.275   2.232   7.749  0.00  0.00    +0.000 A 
ATOM     21 CL   UNL     1      47.204   1.234   6.712  0.00  0.00    +0.000 Cl
ATOM     22  N   UNL     1      45.591   1.570   8.706  0.00  0.00    +0.000 NA
ATOM     23  C   UNL     1      44.879   2.327   9.570  0.00  0.00    +0.000 A 
ENDBRANCH  16  17
ENDBRANCH   7  16
TORSDOF 6
ENDMDL
MODEL 6
REMARK VINA RESULT:    -6.004      2.437      4.078
REMARK INTER + INTRA:          -8.338
REMARK INTER:                  -7.788
REMARK INTRA:                  -0.550
REMARK UNBOUND:                -0.403
REMARK  Name = 
REMARK  6 active torsions:
REMARK  status: ('A' for Active; 'I' for Inactive)
REMARK    1  A    between atoms: N_1  and  C_2
REMARK    2  A    between atoms: C_2  and  C_3
REMARK    3  A    between atoms: C_3  and  C_4
REMARK    4  A    between atoms: C_4  and  C_5
REMARK    5  A    between atoms: N_11  and  C_12
REMARK    6  A    between atoms: C_12  and  C_13
REMARK                            x       y       z     vdW  Elec       q    Type
REMARK                         _______ _______ _______ _____ _____    ______ ____
ROOT
ATOM      1  C   UNL     1      45.011   4.348  11.296  0.00  0.00    +0.000 A 
ATOM      2  C   UNL     1      45.288   3.251  12.119  0.00  0.00    +0.000 A 
ATOM      3  N   UNL     1      46.059   3.259  13.229  0.00  0.00    +0.000 NA
ATOM      4  C   UNL     1      46.611   4.456  13.512  0.00  0.00    +0.000 A 
ATOM      5  N   UNL     1      47.443   4.714  14.569  0.00  0.00    +0.000 NA
ATOM      6  C   UNL     1      47.759   5.983  14.450  0.00  0.00    +0.000 A 
ATOM      7  N   UNL     1      47.171   6.553  13.355  0.00  0.00    +0.000 N 
ATOM      8  C   UNL     1      46.405   5.597  12.742  0.00  0.00    +0.000 A 
ATOM      9  C   UNL     1      45.587   5.582  11.613  0.00  0.00    +0.000 A 
ENDROOT
BRANCH   1  10
ATOM     10  C   UNL     1      44.144   4.206  10.071  0.00  0.00    +0.000 C 
BRANCH  10  11
ATOM     11  C   UNL     1      44.511   2.982   9.230  0.00  0.00    +0.000 C 
BRANCH  11  12
ATOM     12  C   UNL     1      45.133   3.395   7.899  0.00  0.00    +0.000 C 
BRANCH  12  13
ATOM     13  N   UNL     1      45.875   4.637   8.065  0.00  0.00    +0.000 NA
ATOM     14  H   UNL     1      45.632   5.285   7.319  0.00  0.00    +0.000 HD
ATOM     15  H   UNL     1      46.876   4.459   7.978  0.00  0.00    +0.000 HD
ENDBRANCH  12  13
ENDBRANCH  11  12
ENDBRANCH  10  11
ENDBRANCH   1  10
BRANCH   7  16
ATOM     16  C   UNL     1      47.375   7.919  12.901  0.00  0.00    +0.000 C 
BRANCH  16  17
ATOM     17  C   UNL     1      48.827   8.165  12.595  0.00  0.00    +0.000 A 
ATOM     18  C   UNL     1      49.455   7.582  11.488  0.00  0.00    +0.000 A 
ATOM     19  C   UNL     1      50.776   7.902  11.191  0.00  0.00    +0.000 A 
ATOM     20  C   UNL     1      51.431   8.787  12.025  0.00  0.00    +0.000 A 
ATOM     21 CL   UNL     1      53.046   9.264  11.713  0.00  0.00    +0.000 Cl
ATOM     22  N   UNL     1      50.880   9.345  13.124  0.00  0.00    +0.000 NA
ATOM     23  C   UNL     1      49.593   9.025  13.381  0.00  0.00    +0.000 A 
ENDBRANCH  16  17
ENDBRANCH   7  16
TORSDOF 6
ENDMDL
MODEL 7
REMARK VINA RESULT:    -5.989      4.015      6.835
REMARK INTER + INTRA:          -8.318
REMARK INTER:                  -7.821
REMARK INTRA:                  -0.497
REMARK UNBOUND:                -0.403
REMARK  Name = 
REMARK  6 active torsions:
REMARK  status: ('A' for Active; 'I' for Inactive)
REMARK    1  A    between atoms: N_1  and  C_2
REMARK    2  A    between atoms: C_2  and  C_3
REMARK    3  A    between atoms: C_3  and  C_4
REMARK    4  A    between atoms: C_4  and  C_5
REMARK    5  A    between atoms: N_11  and  C_12
REMARK    6  A    between atoms: C_12  and  C_13
REMARK                            x       y       z     vdW  Elec       q    Type
REMARK                         _______ _______ _______ _____ _____    ______ ____
ROOT
ATOM      1  C   UNL     1      46.097   4.825  13.012  0.00  0.00    +0.000 A 
ATOM      2  C   UNL     1      46.537   5.976  12.350  0.00  0.00    +0.000 A 
ATOM      3  N   UNL     1      47.454   6.858  12.804  0.00  0.00    +0.000 NA
ATOM      4  C   UNL     1      47.941   6.571  14.028  0.00  0.00    +0.000 A 
ATOM      5  N   UNL     1      48.864   7.320  14.710  0.00  0.00    +0.000 NA
ATOM      6  C   UNL     1      49.031   6.695  15.853  0.00  0.00    +0.000 A 
ATOM      7  N   UNL     1      48.248   5.578  15.940  0.00  0.00    +0.000 N 
ATOM      8  C   UNL     1      47.550   5.458  14.768  0.00  0.00    +0.000 A 
ATOM      9  C   UNL     1      46.621   4.542  14.277  0.00  0.00    +0.000 A 
ENDROOT
BRANCH   1  10
ATOM     10  C   UNL     1      45.052   3.925  12.403  0.00  0.00    +0.000 C 
BRANCH  10  11
ATOM     11  C   UNL     1      44.163   4.654  11.395  0.00  0.00    +0.000 C 
BRANCH  11  12
ATOM     12  C   UNL     1      42.751   4.847  11.943  0.00  0.00    +0.000 C 
BRANCH  12  13
ATOM     13  N   UNL     1      42.809   5.548  13.219  0.00  0.00    +0.000 NA
ATOM     14  H   UNL     1      42.040   6.211  13.282  0.00  0.00    +0.000 HD
ATOM     15  H   UNL     1      43.668   6.095  13.278  0.00  0.00    +0.000 HD
ENDBRANCH  12  13
ENDBRANCH  11  12
ENDBRANCH  10  11
ENDBRANCH   1  10
BRANCH   7  16
ATOM     16  C   UNL     1      48.142   4.709  17.101  0.00  0.00    +0.000 C 
BRANCH  16  17
ATOM     17  C   UNL     1      49.305   3.758  17.159  0.00  0.00    +0.000 A 
ATOM     18  C   UNL     1      50.491   4.085  17.827  0.00  0.00    +0.000 A 
ATOM     19  C   UNL     1      51.512   3.144  17.932  0.00  0.00    +0.000 A 
ATOM     20  C   UNL     1      51.315   1.908  17.347  0.00  0.00    +0.000 A 
ATOM     21 CL   UNL     1      52.504   0.680  17.458  0.00  0.00    +0.000 Cl
ATOM     22  N   UNL     1      50.206   1.560  16.661  0.00  0.00    +0.000 NA
ATOM     23  C   UNL     1      49.228   2.489  16.587  0.00  0.00    +0.000 A 
ENDBRANCH  16  17
ENDBRANCH   7  16
TORSDOF 6
ENDMDL
MODEL 8
REMARK VINA RESULT:    -5.951      2.296      3.787
REMARK INTER + INTRA:          -8.268
REMARK INTER:                  -7.741
REMARK INTRA:                  -0.527
REMARK UNBOUND:                -0.403
REMARK  Name = 
REMARK  6 active torsions:
REMARK  status: ('A' for Active; 'I' for Inactive)
REMARK    1  A    between atoms: N_1  and  C_2
REMARK    2  A    between atoms: C_2  and  C_3
REMARK    3  A    between atoms: C_3  and  C_4
REMARK    4  A    between atoms: C_4  and  C_5
REMARK    5  A    between atoms: N_11  and  C_12
REMARK    6  A    between atoms: C_12  and  C_13
REMARK                            x       y       z     vdW  Elec       q    Type
REMARK                         _______ _______ _______ _____ _____    ______ ____
ROOT
ATOM      1  C   UNL     1      44.298   4.255  10.772  0.00  0.00    +0.000 A 
ATOM      2  C   UNL     1      43.215   5.142  10.800  0.00  0.00    +0.000 A 
ATOM      3  N   UNL     1      43.232   6.410  11.266  0.00  0.00    +0.000 NA
ATOM      4  C   UNL     1      44.423   6.801  11.764  0.00  0.00    +0.000 A 
ATOM      5  N   UNL     1      44.688   8.029  12.310  0.00  0.00    +0.000 NA
ATOM      6  C   UNL     1      45.946   7.971  12.682  0.00  0.00    +0.000 A 
ATOM      7  N   UNL     1      46.501   6.753  12.407  0.00  0.00    +0.000 N 
ATOM      8  C   UNL     1      45.549   5.983  11.792  0.00  0.00    +0.000 A 
ATOM      9  C   UNL     1      45.524   4.685  11.285  0.00  0.00    +0.000 A 
ENDROOT
BRANCH   1  10
ATOM     10  C   UNL     1      44.145   2.853  10.238  0.00  0.00    +0.000 C 
BRANCH  10  11
ATOM     11  C   UNL     1      45.117   2.550   9.097  0.00  0.00    +0.000 C 
BRANCH  11  12
ATOM     12  C   UNL     1      44.892   3.492   7.917  0.00  0.00    +0.000 C 
BRANCH  12  13
ATOM     13  N   UNL     1      46.132   4.186   7.597  0.00  0.00    +0.000 NA
ATOM     14  H   UNL     1      46.555   3.770   6.771  0.00  0.00    +0.000 HD
ATOM     15  H   UNL     1      46.803   4.069   8.356  0.00  0.00    +0.000 HD
ENDBRANCH  12  13
ENDBRANCH  11  12
ENDBRANCH  10  11
ENDBRANCH   1  10
BRANCH   7  16
ATOM     16  C   UNL     1      47.850   6.340  12.760  0.00  0.00    +0.000 C 
BRANCH  16  17
ATOM     17  C   UNL     1      47.890   5.802  14.163  0.00  0.00    +0.000 A 
ATOM     18  C   UNL     1      48.630   6.431  15.171  0.00  0.00    +0.000 A 
ATOM     19  C   UNL     1      48.573   5.951  16.476  0.00  0.00    +0.000 A 
ATOM     20  C   UNL     1      47.786   4.843  16.725  0.00  0.00    +0.000 A 
ATOM     21 CL   UNL     1      47.630   4.208  18.308  0.00  0.00    +0.000 Cl
ATOM     22  N   UNL     1      47.085   4.182  15.780  0.00  0.00    +0.000 NA
ATOM     23  C   UNL     1      47.150   4.678  14.525  0.00  0.00    +0.000 A 
ENDBRANCH  16  17
ENDBRANCH   7  16
TORSDOF 6
ENDMDL
MODEL 9
REMARK VINA RESULT:    -5.524      3.807      6.549
REMARK INTER + INTRA:          -7.703
REMARK INTER:                  -7.088
REMARK INTRA:                  -0.615
REMARK UNBOUND:                -0.403
REMARK  Name = 
REMARK  6 active torsions:
REMARK  status: ('A' for Active; 'I' for Inactive)
REMARK    1  A    between atoms: N_1  and  C_2
REMARK    2  A    between atoms: C_2  and  C_3
REMARK    3  A    between atoms: C_3  and  C_4
REMARK    4  A    between atoms: C_4  and  C_5
REMARK    5  A    between atoms: N_11  and  C_12
REMARK    6  A    between atoms: C_12  and  C_13
REMARK                            x       y       z     vdW  Elec       q    Type
REMARK                         _______ _______ _______ _____ _____    ______ ____
ROOT
ATOM      1  C   UNL     1      46.841   5.837  12.759  0.00  0.00    +0.000 A 
ATOM      2  C   UNL     1      47.550   6.719  11.936  0.00  0.00    +0.000 A 
ATOM      3  N   UNL     1      48.611   7.472  12.299  0.00  0.00    +0.000 NA
ATOM      4  C   UNL     1      48.965   7.344  13.593  0.00  0.00    +0.000 A 
ATOM      5  N   UNL     1      49.992   8.014  14.204  0.00  0.00    +0.000 NA
ATOM      6  C   UNL     1      49.965   7.612  15.454  0.00  0.00    +0.000 A 
ATOM      7  N   UNL     1      48.957   6.716  15.677  0.00  0.00    +0.000 N 
ATOM      8  C   UNL     1      48.308   6.505  14.489  0.00  0.00    +0.000 A 
ATOM      9  C   UNL     1      47.230   5.714  14.096  0.00  0.00    +0.000 A 
ENDROOT
BRANCH   1  10
ATOM     10  C   UNL     1      45.658   5.061  12.236  0.00  0.00    +0.000 C 
BRANCH  10  11
ATOM     11  C   UNL     1      45.010   5.726  11.021  0.00  0.00    +0.000 C 
BRANCH  11  12
ATOM     12  C   UNL     1      44.898   4.748   9.854  0.00  0.00    +0.000 C 
BRANCH  12  13
ATOM     13  N   UNL     1      45.722   5.208   8.744  0.00  0.00    +0.000 NA
ATOM     14  H   UNL     1      46.401   4.491   8.500  0.00  0.00    +0.000 HD
ATOM     15  H   UNL     1      46.257   6.030   9.024  0.00  0.00    +0.000 HD
ENDBRANCH  12  13
ENDBRANCH  11  12
ENDBRANCH  10  11
ENDBRANCH   1  10
BRANCH   7  16
ATOM     16  C   UNL     1      48.611   6.137  16.965  0.00  0.00    +0.000 C 
BRANCH  16  17
ATOM     17  C   UNL     1      49.303   4.816  17.156  0.00  0.00    +0.000 A 
ATOM     18  C   UNL     1      48.627   3.601  16.991  0.00  0.00    +0.000 A 
ATOM     19  C   UNL     1      49.324   2.400  17.092  0.00  0.00    +0.000 A 
ATOM     20  C   UNL     1      50.675   2.457  17.374  0.00  0.00    +0.000 A 
ATOM     21 CL   UNL     1      51.615   1.029  17.481  0.00  0.00    +0.000 Cl
ATOM     22  N   UNL     1      51.361   3.602  17.578  0.00  0.00    +0.000 NA
ATOM     23  C   UNL     1      50.661   4.752  17.461  0.00  0.00    +0.000 A 
ENDBRANCH  16  17
ENDBRANCH   7  16
TORSDOF 6
ENDMDL
