MODEL 1
REMARK VINA RESULT:    -6.860      0.000      0.000
REMARK INTER + INTRA:          -8.607
REMARK INTER:                  -8.465
REMARK INTRA:                  -0.142
REMARK UNBOUND:                -0.142
REMARK  Name = 
REMARK  6 active torsions:
REMARK  status: ('A' for Active; 'I' for Inactive)
REMARK    1  A    between atoms: C_1  and  C_2
REMARK    2  A    between atoms: C_2  and  C_3
REMARK    3  A    between atoms: C_5  and  N_6
REMARK    4  A    between atoms: N_6  and  C_7
REMARK    5  A    between atoms: C_7  and  C_8
REMARK    6  A    between atoms: C_11  and  C_12
REMARK                            x       y       z     vdW  Elec       q    Type
REMARK                         _______ _______ _______ _____ _____    ______ ____
ROOT
ATOM      1  C   UNL     1      44.396   4.419  11.074  0.00  0.00    +0.000 C 
ATOM      2  C   UNL     1      43.132   5.258  10.976  0.00  0.00    +0.000 C 
ATOM      3  C   UNL     1      43.024   3.822  11.366  0.00  0.00    +0.000 C 
ENDROOT
BRANCH   1   4
ATOM      4  C   UNL     1      45.083   3.831   9.850  0.00  0.00    +0.000 A 
ATOM      5  C   UNL     1      45.639   4.650   8.855  0.00  0.00    +0.000 A 
ATOM      6  C   UNL     1      46.338   4.107   7.778  0.00  0.00    +0.000 A 
ATOM      7  C   UNL     1      46.468   2.725   7.714  0.00  0.00    +0.000 A 
ATOM      8  N   UNL     1      45.920   1.886   8.619  0.00  0.00    +0.000 NA
ATOM      9  C   UNL     1      45.246   2.457   9.648  0.00  0.00    +0.000 A 
BRANCH   7  10
ATOM     10  C   UNL     1      47.225   2.111   6.664  0.00  0.00    +0.000 C 
ATOM     11  N   UNL     1      47.869   1.598   5.841  0.00  0.00    +0.000 NA
ENDBRANCH   7  10
ENDBRANCH   1   4
BRANCH   1  12
ATOM     12  N   UNL     1      45.295   4.704  12.218  0.00  0.00    +0.000 NA
ATOM     13  H   UNL     1      44.787   4.639  13.101  0.00  0.00    +0.000 HD
BRANCH  12  18
ATOM     14  C   UNL     1      48.572   7.719  11.562  0.00  0.00    +0.000 C 
ATOM     15  C   UNL     1      48.048   7.269  12.934  0.00  0.00    +0.000 C 
ATOM     16  C   UNL     1      49.242   7.152  13.892  0.00  0.00    +0.000 C 
ATOM     17  C   UNL     1      47.324   5.910  12.874  0.00  0.00    +0.000 C 
ATOM     18  C   UNL     1      45.980   6.010  12.143  0.00  0.00    +0.000 C 
ATOM     19  C   UNL     1      45.152   7.140  12.762  0.00  0.00    +0.000 C 
ATOM     20  C   UNL     1      45.939   8.436  12.832  0.00  0.00    +0.000 C 
ATOM     21  O   UNL     1      47.183   8.261  13.502  0.00  0.00    +0.000 OA
ENDBRANCH  12  18
ENDBRANCH   1  12
TORSDOF 4
ENDMDL
MODEL 2
REMARK VINA RESULT:    -6.746      1.453      2.032
REMARK INTER + INTRA:          -8.466
REMARK INTER:                  -8.390
REMARK INTRA:                  -0.076
REMARK UNBOUND:                -0.142
REMARK  Name = 
REMARK  6 active torsions:
REMARK  status: ('A' for Active; 'I' for Inactive)
REMARK    1  A    between atoms: C_1  and  C_2
REMARK    2  A    between atoms: C_2  and  C_3
REMARK    3  A    between atoms: C_5  and  N_6
REMARK    4  A    between atoms: N_6  and  C_7
REMARK    5  A    between atoms: C_7  and  C_8
REMARK    6  A    between atoms: C_11  and  C_12
REMARK                            x       y       z     vdW  Elec       q    Type
REMARK                         _______ _______ _______ _____ _____    ______ ____
ROOT
ATOM      1  C   UNL     1      44.519   4.648  11.589  0.00  0.00    +0.000 C 
ATOM      2  C   UNL     1      43.771   5.962  11.747  0.00  0.00    +0.000 C 
ATOM      3  C   UNL     1      42.996   4.693  11.629  0.00  0.00    +0.000 C 
ENDROOT
BRANCH   1   4
ATOM      4  C   UNL     1      45.093   4.189  10.256  0.00  0.00    +0.000 A 
ATOM      5  C   UNL     1      45.060   2.841   9.868  0.00  0.00    +0.000 A 
ATOM      6  C   UNL     1      45.513   2.439   8.611  0.00  0.00    +0.000 A 
ATOM      7  C   UNL     1      46.003   3.415   7.751  0.00  0.00    +0.000 A 
ATOM      8  N   UNL     1      46.097   4.719   8.086  0.00  0.00    +0.000 NA
ATOM      9  C   UNL     1      45.648   5.065   9.317  0.00  0.00    +0.000 A 
BRANCH   7  10
ATOM     10  C   UNL     1      46.428   3.072   6.426  0.00  0.00    +0.000 C 
ATOM     11  N   UNL     1      46.811   2.778   5.367  0.00  0.00    +0.000 NA
ENDBRANCH   7  10
ENDBRANCH   1   4
BRANCH   1  12
ATOM     12  N   UNL     1      45.238   4.145  12.784  0.00  0.00    +0.000 NA
ATOM     13  H   UNL     1      44.585   3.722  13.446  0.00  0.00    +0.000 HD
BRANCH  12  18
ATOM     14  C   UNL     1      47.243   8.083  13.632  0.00  0.00    +0.000 C 
ATOM     15  C   UNL     1      47.960   6.814  13.148  0.00  0.00    +0.000 C 
ATOM     16  C   UNL     1      49.041   7.225  12.139  0.00  0.00    +0.000 C 
ATOM     17  C   UNL     1      47.002   5.815  12.471  0.00  0.00    +0.000 C 
ATOM     18  C   UNL     1      46.049   5.164  13.480  0.00  0.00    +0.000 C 
ATOM     19  C   UNL     1      46.863   4.574  14.635  0.00  0.00    +0.000 C 
ATOM     20  C   UNL     1      47.817   5.596  15.226  0.00  0.00    +0.000 C 
ATOM     21  O   UNL     1      48.653   6.175  14.229  0.00  0.00    +0.000 OA
ENDBRANCH  12  18
ENDBRANCH   1  12
TORSDOF 4
ENDMDL
MODEL 3
REMARK VINA RESULT:    -5.732      3.664      5.776
REMARK INTER + INTRA:          -7.215
REMARK INTER:                  -7.053
REMARK INTRA:                  -0.162
REMARK UNBOUND:                -0.142
REMARK  Name = 
REMARK  6 active torsions:
REMARK  status: ('A' for Active; 'I' for Inactive)
REMARK    1  A    between atoms: C_1  and  C_2
REMARK    2  A    between atoms: C_2  and  C_3
REMARK    3  A    between atoms: C_5  and  N_6
REMARK    4  A    between atoms: N_6  and  C_7
REMARK    5  A    between atoms: C_7  and  C_8
REMARK    6  A    between atoms: C_11  and  C_12
REMARK                            x       y       z     vdW  Elec       q    Type
REMARK                         _______ _______ _______ _____ _____    ______ ____
ROOT
ATOM      1  C   UNL     1      47.801   6.694  13.765  0.00  0.00    +0.000 C 
ATOM      2  C   UNL     1      49.035   6.869  12.895  0.00  0.00    +0.000 C 
ATOM      3  C   UNL     1      47.939   7.878  12.816  0.00  0.00    +0.000 C 
ENDROOT
BRANCH   1   4
ATOM      4  C   UNL     1      46.676   5.735  13.403  0.00  0.00    +0.000 A 
ATOM      5  C   UNL     1      45.436   6.200  12.939  0.00  0.00    +0.000 A 
ATOM      6  C   UNL     1      44.437   5.315  12.532  0.00  0.00    +0.000 A 
ATOM      7  C   UNL     1      44.705   3.953  12.600  0.00  0.00    +0.000 A 
ATOM      8  N   UNL     1      45.863   3.448  13.076  0.00  0.00    +0.000 NA
ATOM      9  C   UNL     1      46.804   4.344  13.463  0.00  0.00    +0.000 A 
BRANCH   7  10
ATOM     10  C   UNL     1      43.742   2.997  12.140  0.00  0.00    +0.000 C 
ATOM     11  N   UNL     1      42.986   2.212  11.732  0.00  0.00    +0.000 NA
ENDBRANCH   7  10
ENDBRANCH   1   4
BRANCH   1  12
ATOM     12  N   UNL     1      47.972   6.934  15.218  0.00  0.00    +0.000 NA
ATOM     13  H   UNL     1      48.255   7.900  15.393  0.00  0.00    +0.000 HD
BRANCH  12  18
ATOM     14  C   UNL     1      49.550   3.266  17.295  0.00  0.00    +0.000 C 
ATOM     15  C   UNL     1      49.273   4.616  17.975  0.00  0.00    +0.000 C 
ATOM     16  C   UNL     1      48.674   4.345  19.362  0.00  0.00    +0.000 C 
ATOM     17  C   UNL     1      48.293   5.493  17.172  0.00  0.00    +0.000 C 
ATOM     18  C   UNL     1      48.925   6.019  15.878  0.00  0.00    +0.000 C 
ATOM     19  C   UNL     1      50.257   6.700  16.207  0.00  0.00    +0.000 C 
ATOM     20  C   UNL     1      51.155   5.799  17.036  0.00  0.00    +0.000 C 
ATOM     21  O   UNL     1      50.495   5.331  18.207  0.00  0.00    +0.000 OA
ENDBRANCH  12  18
ENDBRANCH   1  12
TORSDOF 4
ENDMDL
MODEL 4
REMARK VINA RESULT:    -5.717      3.129      6.402
REMARK INTER + INTRA:          -7.196
REMARK INTER:                  -7.650
REMARK INTRA:                   0.454
REMARK UNBOUND:                -0.142
REMARK  Name = 
REMARK  6 active torsions:
REMARK  status: ('A' for Active; 'I' for Inactive)
REMARK    1  A    between atoms: C_1  and  C_2
REMARK    2  A    between atoms: C_2  and  C_3
REMARK    3  A    between atoms: C_5  and  N_6
REMARK    4  A    between atoms: N_6  and  C_7
REMARK    5  A    between atoms: C_7  and  C_8
REMARK    6  A    between atoms: C_11  and  C_12
REMARK                            x       y       z     vdW  Elec       q    Type
REMARK                         _______ _______ _______ _____ _____    ______ ____
ROOT
ATOM      1  C   UNL     1      47.486   7.170  12.366  0.00  0.00    +0.000 C 
ATOM      2  C   UNL     1      48.520   8.277  12.238  0.00  0.00    +0.000 C 
ATOM      3  C   UNL     1      48.686   7.030  11.437  0.00  0.00    +0.000 C 
ENDROOT
BRANCH   1   4
ATOM      4  C   UNL     1      47.483   6.187  13.529  0.00  0.00    +0.000 A 
ATOM      5  C   UNL     1      48.145   6.471  14.733  0.00  0.00    +0.000 A 
ATOM      6  C   UNL     1      48.070   5.604  15.822  0.00  0.00    +0.000 A 
ATOM      7  C   UNL     1      47.320   4.443  15.682  0.00  0.00    +0.000 A 
ATOM      8  N   UNL     1      46.696   4.097  14.536  0.00  0.00    +0.000 NA
ATOM      9  C   UNL     1      46.798   4.968  13.501  0.00  0.00    +0.000 A 
BRANCH   7  10
ATOM     10  C   UNL     1      47.157   3.542  16.784  0.00  0.00    +0.000 C 
ATOM     11  N   UNL     1      47.005   2.780  17.651  0.00  0.00    +0.000 NA
ENDBRANCH   7  10
ENDBRANCH   1   4
BRANCH   1  12
ATOM     12  N   UNL     1      46.157   7.427  11.763  0.00  0.00    +0.000 NA
ATOM     13  H   UNL     1      45.630   8.099  12.324  0.00  0.00    +0.000 HD
BRANCH  12  18
ATOM     14  C   UNL     1      45.094   3.182  10.713  0.00  0.00    +0.000 C 
ATOM     15  C   UNL     1      44.776   4.411   9.849  0.00  0.00    +0.000 C 
ATOM     16  C   UNL     1      44.984   4.033   8.376  0.00  0.00    +0.000 C 
ATOM     17  C   UNL     1      45.673   5.618  10.184  0.00  0.00    +0.000 C 
ATOM     18  C   UNL     1      45.338   6.216  11.555  0.00  0.00    +0.000 C 
ATOM     19  C   UNL     1      43.836   6.506  11.626  0.00  0.00    +0.000 C 
ATOM     20  C   UNL     1      43.013   5.290  11.242  0.00  0.00    +0.000 C 
ATOM     21  O   UNL     1      43.395   4.777   9.969  0.00  0.00    +0.000 OA
ENDBRANCH  12  18
ENDBRANCH   1  12
TORSDOF 4
ENDMDL
MODEL 5
REMARK VINA RESULT:    -5.283      3.990      7.946
REMARK INTER + INTRA:          -6.660
REMARK INTER:                  -6.543
REMARK INTRA:                  -0.117
REMARK UNBOUND:                -0.142
REMARK  Name = 
REMARK  6 active torsions:
REMARK  status: ('A' for Active; 'I' for Inactive)
REMARK    1  A    between atoms: C_1  and  C_2
REMARK    2  A    between atoms: C_2  and  C_3
REMARK    3  A    between atoms: C_5  and  N_6
REMARK    4  A    between atoms: N_6  and  C_7
REMARK    5  A    between atoms: C_7  and  C_8
REMARK    6  A    between atoms: C_11  and  C_12
REMARK                            x       y       z     vdW  Elec       q    Type
REMARK                         _______ _______ _______ _____ _____    ______ ____
ROOT
ATOM      1  C   UNL     1      48.251   6.404  14.504  0.00  0.00    +0.000 C 
ATOM      2  C   UNL     1      48.053   7.860  14.114  0.00  0.00    +0.000 C 
ATOM      3  C   UNL     1      49.433   7.292  14.133  0.00  0.00    +0.000 C 
ENDROOT
BRANCH   1   4
ATOM      4  C   UNL     1      48.253   5.940  15.954  0.00  0.00    +0.000 A 
ATOM      5  C   UNL     1      47.810   4.658  16.315  0.00  0.00    +0.000 A 
ATOM      6  C   UNL     1      47.891   4.209  17.634  0.00  0.00    +0.000 A 
ATOM      7  C   UNL     1      48.422   5.072  18.585  0.00  0.00    +0.000 A 
ATOM      8  N   UNL     1      48.825   6.329  18.304  0.00  0.00    +0.000 NA
ATOM      9  C   UNL     1      48.726   6.724  17.010  0.00  0.00    +0.000 A 
BRANCH   7  10
ATOM     10  C   UNL     1      48.585   4.647  19.944  0.00  0.00    +0.000 C 
ATOM     11  N   UNL     1      48.673   4.300  21.051  0.00  0.00    +0.000 NA
ENDBRANCH   7  10
ENDBRANCH   1   4
BRANCH   1  12
ATOM     12  N   UNL     1      47.803   5.385  13.524  0.00  0.00    +0.000 NA
ATOM     13  H   UNL     1      48.479   5.295  12.764  0.00  0.00    +0.000 HD
BRANCH  12  18
ATOM     14  C   UNL     1      43.324   5.304  13.096  0.00  0.00    +0.000 C 
ATOM     15  C   UNL     1      44.306   4.474  12.257  0.00  0.00    +0.000 C 
ATOM     16  C   UNL     1      43.698   3.081  12.038  0.00  0.00    +0.000 C 
ATOM     17  C   UNL     1      45.679   4.316  12.937  0.00  0.00    +0.000 C 
ATOM     18  C   UNL     1      46.462   5.634  12.959  0.00  0.00    +0.000 C 
ATOM     19  C   UNL     1      46.523   6.208  11.541  0.00  0.00    +0.000 C 
ATOM     20  C   UNL     1      45.143   6.295  10.913  0.00  0.00    +0.000 C 
ATOM     21  O   UNL     1      44.468   5.042  10.949  0.00  0.00    +0.000 OA
ENDBRANCH  12  18
ENDBRANCH   1  12
TORSDOF 4
ENDMDL
MODEL 6
REMARK VINA RESULT:    -5.238      3.309      5.200
REMARK INTER + INTRA:          -6.604
REMARK INTER:                  -6.455
REMARK INTRA:                  -0.149
REMARK UNBOUND:                -0.142
REMARK  Name = 
REMARK  6 active torsions:
REMARK  status: ('A' for Active; 'I' for Inactive)
REMARK    1  A    between atoms: C_1  and  C_2
REMARK    2  A    between atoms: C_2  and  C_3
REMARK    3  A    between atoms: C_5  and  N_6
REMARK    4  A    between atoms: N_6  and  C_7
REMARK    5  A    between atoms: C_7  and  C_8
REMARK    6  A    between atoms: C_11  and  C_12
REMARK                            x       y       z     vdW  Elec       q    Type
REMARK                         _______ _______ _______ _____ _____    ______ ____
ROOT
ATOM      1  C   UNL     1      47.809   7.112  12.985  0.00  0.00    +0.000 C 
ATOM      2  C   UNL     1      49.255   7.097  12.515  0.00  0.00    +0.000 C 
ATOM      3  C   UNL     1      48.263   7.948  11.794  0.00  0.00    +0.000 C 
ENDROOT
BRANCH   1   4
ATOM      4  C   UNL     1      46.823   6.007  12.629  0.00  0.00    +0.000 A 
ATOM      5  C   UNL     1      46.829   4.774  13.300  0.00  0.00    +0.000 A 
ATOM      6  C   UNL     1      45.873   3.797  13.026  0.00  0.00    +0.000 A 
ATOM      7  C   UNL     1      44.910   4.078  12.063  0.00  0.00    +0.000 A 
ATOM      8  N   UNL     1      44.880   5.229  11.358  0.00  0.00    +0.000 NA
ATOM      9  C   UNL     1      45.830   6.149  11.655  0.00  0.00    +0.000 A 
BRANCH   7  10
ATOM     10  C   UNL     1      43.866   3.138  11.780  0.00  0.00    +0.000 C 
ATOM     11  N   UNL     1      43.049   2.343  11.545  0.00  0.00    +0.000 NA
ENDBRANCH   7  10
ENDBRANCH   1   4
BRANCH   1  12
ATOM     12  N   UNL     1      47.532   7.806  14.265  0.00  0.00    +0.000 NA
ATOM     13  H   UNL     1      47.209   8.760  14.096  0.00  0.00    +0.000 HD
BRANCH  12  18
ATOM     14  C   UNL     1      51.254   6.485  16.423  0.00  0.00    +0.000 C 
ATOM     15  C   UNL     1      49.842   6.499  17.026  0.00  0.00    +0.000 C 
ATOM     16  C   UNL     1      49.678   5.248  17.902  0.00  0.00    +0.000 C 
ATOM     17  C   UNL     1      48.739   6.501  15.951  0.00  0.00    +0.000 C 
ATOM     18  C   UNL     1      48.675   7.836  15.200  0.00  0.00    +0.000 C 
ATOM     19  C   UNL     1      48.571   8.980  16.213  0.00  0.00    +0.000 C 
ATOM     20  C   UNL     1      49.659   8.893  17.268  0.00  0.00    +0.000 C 
ATOM     21  O   UNL     1      49.673   7.619  17.906  0.00  0.00    +0.000 OA
ENDBRANCH  12  18
ENDBRANCH   1  12
TORSDOF 4
ENDMDL
MODEL 7
REMARK VINA RESULT:    -5.132      3.140      5.088
REMARK INTER + INTRA:          -6.474
REMARK INTER:                  -6.724
REMARK INTRA:                   0.250
REMARK UNBOUND:                -0.142
REMARK  Name = 
REMARK  6 active torsions:
REMARK  status: ('A' for Active; 'I' for Inactive)
REMARK    1  A    between atoms: C_1  and  C_2
REMARK    2  A    between atoms: C_2  and  C_3
REMARK    3  A    between atoms: C_5  and  N_6
REMARK    4  A    between atoms: N_6  and  C_7
REMARK    5  A    between atoms: C_7  and  C_8
REMARK    6  A    between atoms: C_11  and  C_12
REMARK                            x       y       z     vdW  Elec       q    Type
REMARK                         _______ _______ _______ _____ _____    ______ ____
ROOT
ATOM      1  C   UNL     1      47.944   6.882  12.801  0.00  0.00    +0.000 C 
ATOM      2  C   UNL     1      48.475   7.835  11.742  0.00  0.00    +0.000 C 
ATOM      3  C   UNL     1      47.562   8.357  12.800  0.00  0.00    +0.000 C 
ENDROOT
BRANCH   1   4
ATOM      4  C   UNL     1      46.779   5.937  12.539  0.00  0.00    +0.000 A 
ATOM      5  C   UNL     1      46.100   5.933  11.311  0.00  0.00    +0.000 A 
ATOM      6  C   UNL     1      45.088   5.010  11.048  0.00  0.00    +0.000 A 
ATOM      7  C   UNL     1      44.767   4.092  12.041  0.00  0.00    +0.000 A 
ATOM      8  N   UNL     1      45.358   4.076  13.254  0.00  0.00    +0.000 NA
ATOM      9  C   UNL     1      46.334   4.992  13.468  0.00  0.00    +0.000 A 
BRANCH   7  10
ATOM     10  C   UNL     1      43.777   3.082  11.808  0.00  0.00    +0.000 C 
ATOM     11  N   UNL     1      43.004   2.238  11.595  0.00  0.00    +0.000 NA
ENDBRANCH   7  10
ENDBRANCH   1   4
BRANCH   1  12
ATOM     12  N   UNL     1      48.914   6.409  13.817  0.00  0.00    +0.000 NA
ATOM     13  H   UNL     1      48.937   5.388  13.846  0.00  0.00    +0.000 HD
BRANCH  12  18
ATOM     14  C   UNL     1      48.484   9.359  17.189  0.00  0.00    +0.000 C 
ATOM     15  C   UNL     1      49.676   8.410  16.993  0.00  0.00    +0.000 C 
ATOM     16  C   UNL     1      50.960   9.163  17.366  0.00  0.00    +0.000 C 
ATOM     17  C   UNL     1      49.799   7.907  15.542  0.00  0.00    +0.000 C 
ATOM     18  C   UNL     1      48.674   6.931  15.178  0.00  0.00    +0.000 C 
ATOM     19  C   UNL     1      48.611   5.819  16.228  0.00  0.00    +0.000 C 
ATOM     20  C   UNL     1      48.536   6.383  17.636  0.00  0.00    +0.000 C 
ATOM     21  O   UNL     1      49.597   7.297  17.894  0.00  0.00    +0.000 OA
ENDBRANCH  12  18
ENDBRANCH   1  12
TORSDOF 4
ENDMDL
MODEL 8
REMARK VINA RESULT:    -4.726      3.563      5.598
REMARK INTER + INTRA:          -5.974
REMARK INTER:                  -5.939
REMARK INTRA:                  -0.035
REMARK UNBOUND:                -0.142
REMARK  Name = 
REMARK  6 active torsions:
REMARK  status: ('A' for Active; 'I' for Inactive)
REMARK    1  A    between atoms: C_1  and  C_2
REMARK    2  A    between atoms: C_2  and  C_3
REMARK    3  A    between atoms: C_5  and  N_6
REMARK    4  A    between atoms: N_6  and  C_7
REMARK    5  A    between atoms: C_7  and  C_8
REMARK    6  A    between atoms: C_11  and  C_12
REMARK                            x       y       z     vdW  Elec       q    Type
REMARK                         _______ _______ _______ _____ _____    ______ ____
ROOT
ATOM      1  C   UNL     1      48.515   6.833  14.085  0.00  0.00    +0.000 C 
ATOM      2  C   UNL     1      48.447   7.937  15.128  0.00  0.00    +0.000 C 
ATOM      3  C   UNL     1      48.952   6.591  15.525  0.00  0.00    +0.000 C 
ENDROOT
BRANCH   1   4
ATOM      4  C   UNL     1      47.291   6.032  13.663  0.00  0.00    +0.000 A 
ATOM      5  C   UNL     1      46.360   6.542  12.745  0.00  0.00    +0.000 A 
ATOM      6  C   UNL     1      45.286   5.772  12.300  0.00  0.00    +0.000 A 
ATOM      7  C   UNL     1      45.160   4.480  12.796  0.00  0.00    +0.000 A 
ATOM      8  N   UNL     1      46.000   3.951  13.711  0.00  0.00    +0.000 NA
ATOM      9  C   UNL     1      47.028   4.736  14.117  0.00  0.00    +0.000 A 
BRANCH   7  10
ATOM     10  C   UNL     1      44.111   3.620  12.333  0.00  0.00    +0.000 C 
ATOM     11  N   UNL     1      43.283   2.914  11.919  0.00  0.00    +0.000 NA
ENDBRANCH   7  10
ENDBRANCH   1   4
BRANCH   1  12
ATOM     12  N   UNL     1      49.564   6.963  13.045  0.00  0.00    +0.000 NA
ATOM     13  H   UNL     1      50.356   6.353  13.253  0.00  0.00    +0.000 HD
BRANCH  12  18
ATOM     14  C   UNL     1      49.549  11.461  12.878  0.00  0.00    +0.000 C 
ATOM     15  C   UNL     1      49.514  10.532  11.656  0.00  0.00    +0.000 C 
ATOM     16  C   UNL     1      48.568  11.141  10.612  0.00  0.00    +0.000 C 
ATOM     17  C   UNL     1      49.023   9.114  12.004  0.00  0.00    +0.000 C 
ATOM     18  C   UNL     1      50.050   8.343  12.841  0.00  0.00    +0.000 C 
ATOM     19  C   UNL     1      51.410   8.385  12.138  0.00  0.00    +0.000 C 
ATOM     20  C   UNL     1      51.812   9.805  11.783  0.00  0.00    +0.000 C 
ATOM     21  O   UNL     1      50.802  10.465  11.027  0.00  0.00    +0.000 OA
ENDBRANCH  12  18
ENDBRANCH   1  12
TORSDOF 4
ENDMDL
MODEL 9
REMARK VINA RESULT:    -4.644      3.823      6.221
REMARK INTER + INTRA:          -5.872
REMARK INTER:                  -5.241
REMARK INTRA:                  -0.632
REMARK UNBOUND:                -0.142
REMARK  Name = 
REMARK  6 active torsions:
REMARK  status: ('A' for Active; 'I' for Inactive)
REMARK    1  A    between atoms: C_1  and  C_2
REMARK    2  A    between atoms: C_2  and  C_3
REMARK    3  A    between atoms: C_5  and  N_6
REMARK    4  A    between atoms: N_6  and  C_7
REMARK    5  A    between atoms: C_7  and  C_8
REMARK    6  A    between atoms: C_11  and  C_12
REMARK                            x       y       z     vdW  Elec       q    Type
REMARK                         _______ _______ _______ _____ _____    ______ ____
ROOT
ATOM      1  C   UNL     1      49.156   8.402  12.774  0.00  0.00    +0.000 C 
ATOM      2  C   UNL     1      50.318   8.058  11.856  0.00  0.00    +0.000 C 
ATOM      3  C   UNL     1      49.625   9.369  11.693  0.00  0.00    +0.000 C 
ENDROOT
BRANCH   1   4
ATOM      4  C   UNL     1      47.752   7.856  12.554  0.00  0.00    +0.000 A 
ATOM      5  C   UNL     1      46.616   8.555  12.991  0.00  0.00    +0.000 A 
ATOM      6  C   UNL     1      45.330   8.091  12.714  0.00  0.00    +0.000 A 
ATOM      7  C   UNL     1      45.204   6.910  11.993  0.00  0.00    +0.000 A 
ATOM      8  N   UNL     1      46.259   6.175  11.584  0.00  0.00    +0.000 NA
ATOM      9  C   UNL     1      47.490   6.662  11.876  0.00  0.00    +0.000 A 
BRANCH   7  10
ATOM     10  C   UNL     1      43.911   6.413  11.627  0.00  0.00    +0.000 C 
ATOM     11  N   UNL     1      42.872   6.012  11.287  0.00  0.00    +0.000 NA
ENDBRANCH   7  10
ENDBRANCH   1   4
BRANCH   1  12
ATOM     12  N   UNL     1      49.491   8.710  14.184  0.00  0.00    +0.000 NA
ATOM     13  H   UNL     1      50.351   9.260  14.239  0.00  0.00    +0.000 HD
BRANCH  12  18
ATOM     14  C   UNL     1      48.282   5.196  16.723  0.00  0.00    +0.000 C 
ATOM     15  C   UNL     1      48.821   6.529  17.261  0.00  0.00    +0.000 C 
ATOM     16  C   UNL     1      48.045   6.885  18.537  0.00  0.00    +0.000 C 
ATOM     17  C   UNL     1      48.667   7.681  16.249  0.00  0.00    +0.000 C 
ATOM     18  C   UNL     1      49.614   7.523  15.054  0.00  0.00    +0.000 C 
ATOM     19  C   UNL     1      51.043   7.319  15.566  0.00  0.00    +0.000 C 
ATOM     20  C   UNL     1      51.115   6.201  16.591  0.00  0.00    +0.000 C 
ATOM     21  O   UNL     1      50.193   6.404  17.657  0.00  0.00    +0.000 OA
ENDBRANCH  12  18
ENDBRANCH   1  12
TORSDOF 4
ENDMDL
