MODEL 1
REMARK VINA RESULT:    -7.461      0.000      0.000
REMARK INTER + INTRA:         -10.779
REMARK INTER:                 -10.078
REMARK INTRA:                  -0.701
REMARK UNBOUND:                -0.701
REMARK  Name = 
REMARK  10 active torsions:
REMARK  status: ('A' for Active; 'I' for Inactive)
REMARK    1  A    between atoms: C_1  and  C_2
REMARK    2  A    between atoms: C_4  and  S_5
REMARK    3  A    between atoms: S_5  and  C_6
REMARK    4  A    between atoms: C_11  and  O_12
REMARK    5  A    between atoms: O_12  and  C_13
REMARK    6  A    between atoms: C_13  and  C_14
REMARK    7  A    between atoms: C_14  and  C_15
REMARK    8  A    between atoms: C_14  and  C_16
REMARK    9  A    between atoms: C_14  and  C_17
REMARK   10  A    between atoms: C_21  and  C_22
REMARK                            x       y       z     vdW  Elec       q    Type
REMARK                         _______ _______ _______ _____ _____    ______ ____
ROOT
ATOM      1  O   UNL     1      45.979   5.033  12.367  0.00  0.00    +0.000 OA
ENDROOT
BRANCH   1   8
ATOM      2  C   UNL     1      48.148   7.299  12.666  0.00  0.00    +0.000 C 
ATOM      3  C   UNL     1      47.811   6.202  13.628  0.00  0.00    +0.000 A 
ATOM      4  N   UNL     1      48.546   6.280  14.771  0.00  0.00    +0.000 NA
ATOM      5  C   UNL     1      48.280   5.385  15.750  0.00  0.00    +0.000 A 
ATOM      6  C   UNL     1      47.325   4.394  15.672  0.00  0.00    +0.000 A 
ATOM      7  C   UNL     1      46.589   4.319  14.490  0.00  0.00    +0.000 A 
ATOM      8  C   UNL     1      46.823   5.218  13.437  0.00  0.00    +0.000 A 
BRANCH   5   9
ATOM      9  S   UNL     1      49.259   5.595  17.219  0.00  0.00    +0.000 S 
ATOM     10  C   UNL     1      48.345   4.784  18.507  0.00  0.00    +0.000 C 
ATOM     11  O   UNL     1      50.494   4.857  17.019  0.00  0.00    +0.000 OA
ATOM     12  O   UNL     1      49.280   7.016  17.518  0.00  0.00    +0.000 OA
ENDBRANCH   5   9
ENDBRANCH   1   8
BRANCH   1  13
ATOM     13  C   UNL     1      45.036   3.971  12.489  0.00  0.00    +0.000 C 
BRANCH  13  14
ATOM     14  C   UNL     1      44.097   3.789  11.262  0.00  0.00    +0.000 C 
ATOM     15  C   UNL     1      43.214   2.546  11.484  0.00  0.00    +0.000 C 
ATOM     16  C   UNL     1      43.197   5.045  11.160  0.00  0.00    +0.000 C 
BRANCH  14  17
ATOM     17  C   UNL     1      44.914   3.629   9.954  0.00  0.00    +0.000 A 
ATOM     18  C   UNL     1      45.291   4.725   9.148  0.00  0.00    +0.000 A 
ATOM     19  C   UNL     1      46.014   4.556   7.966  0.00  0.00    +0.000 A 
ATOM     20  C   UNL     1      46.391   3.284   7.556  0.00  0.00    +0.000 A 
ATOM     21  C   UNL     1      46.045   2.179   8.336  0.00  0.00    +0.000 A 
ATOM     22  C   UNL     1      45.311   2.352   9.519  0.00  0.00    +0.000 A 
BRANCH  21  23
ATOM     23  C   UNL     1      46.445   0.868   7.930  0.00  0.00    +0.000 C 
ATOM     24  N   UNL     1      46.769  -0.201   7.603  0.00  0.00    +0.000 NA
ENDBRANCH  21  23
ENDBRANCH  14  17
ENDBRANCH  13  14
ENDBRANCH   1  13
TORSDOF 6
ENDMDL
MODEL 2
REMARK VINA RESULT:    -6.578      3.572      7.622
REMARK INTER + INTRA:          -9.586
REMARK INTER:                  -8.491
REMARK INTRA:                  -1.095
REMARK UNBOUND:                -0.701
REMARK  Name = 
REMARK  10 active torsions:
REMARK  status: ('A' for Active; 'I' for Inactive)
REMARK    1  A    between atoms: C_1  and  C_2
REMARK    2  A    between atoms: C_4  and  S_5
REMARK    3  A    between atoms: S_5  and  C_6
REMARK    4  A    between atoms: C_11  and  O_12
REMARK    5  A    between atoms: O_12  and  C_13
REMARK    6  A    between atoms: C_13  and  C_14
REMARK    7  A    between atoms: C_14  and  C_15
REMARK    8  A    between atoms: C_14  and  C_16
REMARK    9  A    between atoms: C_14  and  C_17
REMARK   10  A    between atoms: C_21  and  C_22
REMARK                            x       y       z     vdW  Elec       q    Type
REMARK                         _______ _______ _______ _____ _____    ______ ____
ROOT
ATOM      1  O   UNL     1      48.636   6.009  14.178  0.00  0.00    +0.000 OA
ENDROOT
BRANCH   1   8
ATOM      2  C   UNL     1      47.637   7.755  11.753  0.00  0.00    +0.000 C 
ATOM      3  C   UNL     1      47.006   6.530  12.339  0.00  0.00    +0.000 A 
ATOM      4  N   UNL     1      45.885   6.159  11.662  0.00  0.00    +0.000 NA
ATOM      5  C   UNL     1      45.265   5.021  12.051  0.00  0.00    +0.000 A 
ATOM      6  C   UNL     1      45.680   4.214  13.089  0.00  0.00    +0.000 A 
ATOM      7  C   UNL     1      46.823   4.614  13.780  0.00  0.00    +0.000 A 
ATOM      8  C   UNL     1      47.506   5.788  13.425  0.00  0.00    +0.000 A 
BRANCH   5   9
ATOM      9  S   UNL     1      43.838   4.596  11.080  0.00  0.00    +0.000 S 
ATOM     10  C   UNL     1      43.353   2.984  11.645  0.00  0.00    +0.000 C 
ATOM     11  O   UNL     1      42.784   5.528  11.438  0.00  0.00    +0.000 OA
ATOM     12  O   UNL     1      44.282   4.467   9.703  0.00  0.00    +0.000 OA
ENDBRANCH   5   9
ENDBRANCH   1   8
BRANCH   1  13
ATOM     13  C   UNL     1      48.521   6.986  15.209  0.00  0.00    +0.000 C 
BRANCH  13  14
ATOM     14  C   UNL     1      49.166   6.582  16.565  0.00  0.00    +0.000 C 
ATOM     15  C   UNL     1      50.693   6.751  16.467  0.00  0.00    +0.000 C 
ATOM     16  C   UNL     1      48.614   7.532  17.657  0.00  0.00    +0.000 C 
BRANCH  14  17
ATOM     17  C   UNL     1      48.819   5.116  16.932  0.00  0.00    +0.000 A 
ATOM     18  C   UNL     1      47.507   4.691  17.232  0.00  0.00    +0.000 A 
ATOM     19  C   UNL     1      47.221   3.369  17.575  0.00  0.00    +0.000 A 
ATOM     20  C   UNL     1      48.239   2.425  17.620  0.00  0.00    +0.000 A 
ATOM     21  C   UNL     1      49.546   2.809  17.317  0.00  0.00    +0.000 A 
ATOM     22  C   UNL     1      49.831   4.141  16.982  0.00  0.00    +0.000 A 
BRANCH  21  23
ATOM     23  C   UNL     1      50.597   1.840  17.344  0.00  0.00    +0.000 C 
ATOM     24  N   UNL     1      51.454   1.053  17.367  0.00  0.00    +0.000 NA
ENDBRANCH  21  23
ENDBRANCH  14  17
ENDBRANCH  13  14
ENDBRANCH   1  13
TORSDOF 6
ENDMDL
MODEL 3
REMARK VINA RESULT:    -6.510      3.441      7.737
REMARK INTER + INTRA:          -9.494
REMARK INTER:                  -8.155
REMARK INTRA:                  -1.339
REMARK UNBOUND:                -0.701
REMARK  Name = 
REMARK  10 active torsions:
REMARK  status: ('A' for Active; 'I' for Inactive)
REMARK    1  A    between atoms: C_1  and  C_2
REMARK    2  A    between atoms: C_4  and  S_5
REMARK    3  A    between atoms: S_5  and  C_6
REMARK    4  A    between atoms: C_11  and  O_12
REMARK    5  A    between atoms: O_12  and  C_13
REMARK    6  A    between atoms: C_13  and  C_14
REMARK    7  A    between atoms: C_14  and  C_15
REMARK    8  A    between atoms: C_14  and  C_16
REMARK    9  A    between atoms: C_14  and  C_17
REMARK   10  A    between atoms: C_21  and  C_22
REMARK                            x       y       z     vdW  Elec       q    Type
REMARK                         _______ _______ _______ _____ _____    ______ ____
ROOT
ATOM      1  O   UNL     1      48.658   6.288  14.200  0.00  0.00    +0.000 OA
ENDROOT
BRANCH   1   8
ATOM      2  C   UNL     1      47.231   3.481  14.092  0.00  0.00    +0.000 C 
ATOM      3  C   UNL     1      46.750   4.790  13.547  0.00  0.00    +0.000 A 
ATOM      4  N   UNL     1      45.515   4.686  12.984  0.00  0.00    +0.000 NA
ATOM      5  C   UNL     1      44.940   5.820  12.520  0.00  0.00    +0.000 A 
ATOM      6  C   UNL     1      45.517   7.072  12.568  0.00  0.00    +0.000 A 
ATOM      7  C   UNL     1      46.787   7.159  13.137  0.00  0.00    +0.000 A 
ATOM      8  C   UNL     1      47.435   6.016  13.631  0.00  0.00    +0.000 A 
BRANCH   5   9
ATOM      9  S   UNL     1      43.312   5.592  11.844  0.00  0.00    +0.000 S 
ATOM     10  C   UNL     1      43.500   4.356  10.583  0.00  0.00    +0.000 C 
ATOM     11  O   UNL     1      42.487   5.029  12.897  0.00  0.00    +0.000 OA
ATOM     12  O   UNL     1      42.943   6.836  11.192  0.00  0.00    +0.000 OA
ENDBRANCH   5   9
ENDBRANCH   1   8
BRANCH   1  13
ATOM     13  C   UNL     1      48.664   7.267  15.236  0.00  0.00    +0.000 C 
BRANCH  13  14
ATOM     14  C   UNL     1      49.382   6.827  16.544  0.00  0.00    +0.000 C 
ATOM     15  C   UNL     1      50.905   6.870  16.321  0.00  0.00    +0.000 C 
ATOM     16  C   UNL     1      48.998   7.832  17.659  0.00  0.00    +0.000 C 
BRANCH  14  17
ATOM     17  C   UNL     1      48.949   5.399  16.963  0.00  0.00    +0.000 A 
ATOM     18  C   UNL     1      47.634   5.085  17.368  0.00  0.00    +0.000 A 
ATOM     19  C   UNL     1      47.271   3.793  17.757  0.00  0.00    +0.000 A 
ATOM     20  C   UNL     1      48.212   2.772  17.744  0.00  0.00    +0.000 A 
ATOM     21  C   UNL     1      49.519   3.046  17.338  0.00  0.00    +0.000 A 
ATOM     22  C   UNL     1      49.882   4.346  16.956  0.00  0.00    +0.000 A 
BRANCH  21  23
ATOM     23  C   UNL     1      50.489   1.996  17.305  0.00  0.00    +0.000 C 
ATOM     24  N   UNL     1      51.279   1.142  17.282  0.00  0.00    +0.000 NA
ENDBRANCH  21  23
ENDBRANCH  14  17
ENDBRANCH  13  14
ENDBRANCH   1  13
TORSDOF 6
ENDMDL
MODEL 4
REMARK VINA RESULT:    -6.455      3.563      7.720
REMARK INTER + INTRA:          -9.420
REMARK INTER:                  -8.459
REMARK INTRA:                  -0.961
REMARK UNBOUND:                -0.701
REMARK  Name = 
REMARK  10 active torsions:
REMARK  status: ('A' for Active; 'I' for Inactive)
REMARK    1  A    between atoms: C_1  and  C_2
REMARK    2  A    between atoms: C_4  and  S_5
REMARK    3  A    between atoms: S_5  and  C_6
REMARK    4  A    between atoms: C_11  and  O_12
REMARK    5  A    between atoms: O_12  and  C_13
REMARK    6  A    between atoms: C_13  and  C_14
REMARK    7  A    between atoms: C_14  and  C_15
REMARK    8  A    between atoms: C_14  and  C_16
REMARK    9  A    between atoms: C_14  and  C_17
REMARK   10  A    between atoms: C_21  and  C_22
REMARK                            x       y       z     vdW  Elec       q    Type
REMARK                         _______ _______ _______ _____ _____    ______ ____
ROOT
ATOM      1  O   UNL     1      48.426   7.382  13.782  0.00  0.00    +0.000 OA
ENDROOT
BRANCH   1   8
ATOM      2  C   UNL     1      45.800   8.795  12.764  0.00  0.00    +0.000 C 
ATOM      3  C   UNL     1      46.028   7.340  13.035  0.00  0.00    +0.000 A 
ATOM      4  N   UNL     1      44.932   6.588  12.744  0.00  0.00    +0.000 NA
ATOM      5  C   UNL     1      45.039   5.246  12.878  0.00  0.00    +0.000 A 
ATOM      6  C   UNL     1      46.174   4.584  13.297  0.00  0.00    +0.000 A 
ATOM      7  C   UNL     1      47.284   5.369  13.602  0.00  0.00    +0.000 A 
ATOM      8  C   UNL     1      47.232   6.768  13.487  0.00  0.00    +0.000 A 
BRANCH   5   9
ATOM      9  S   UNL     1      43.571   4.347  12.432  0.00  0.00    +0.000 S 
ATOM     10  C   UNL     1      43.591   4.271  10.659  0.00  0.00    +0.000 C 
ATOM     11  O   UNL     1      43.729   2.994  12.936  0.00  0.00    +0.000 OA
ATOM     12  O   UNL     1      42.435   5.161  12.828  0.00  0.00    +0.000 OA
ENDBRANCH   5   9
ENDBRANCH   1   8
BRANCH   1  13
ATOM     13  C   UNL     1      48.534   7.950  15.085  0.00  0.00    +0.000 C 
BRANCH  13  14
ATOM     14  C   UNL     1      49.906   7.727  15.783  0.00  0.00    +0.000 C 
ATOM     15  C   UNL     1      51.028   7.837  14.734  0.00  0.00    +0.000 C 
ATOM     16  C   UNL     1      50.087   8.838  16.846  0.00  0.00    +0.000 C 
BRANCH  14  17
ATOM     17  C   UNL     1      49.961   6.339  16.472  0.00  0.00    +0.000 A 
ATOM     18  C   UNL     1      51.158   5.776  16.965  0.00  0.00    +0.000 A 
ATOM     19  C   UNL     1      51.187   4.517  17.568  0.00  0.00    +0.000 A 
ATOM     20  C   UNL     1      50.015   3.783  17.705  0.00  0.00    +0.000 A 
ATOM     21  C   UNL     1      48.812   4.316  17.239  0.00  0.00    +0.000 A 
ATOM     22  C   UNL     1      48.789   5.578  16.626  0.00  0.00    +0.000 A 
BRANCH  21  23
ATOM     23  C   UNL     1      47.598   3.575  17.393  0.00  0.00    +0.000 C 
ATOM     24  N   UNL     1      46.609   2.975  17.518  0.00  0.00    +0.000 NA
ENDBRANCH  21  23
ENDBRANCH  14  17
ENDBRANCH  13  14
ENDBRANCH   1  13
TORSDOF 6
ENDMDL
MODEL 5
REMARK VINA RESULT:    -6.430      3.415      8.025
REMARK INTER + INTRA:          -9.387
REMARK INTER:                  -8.654
REMARK INTRA:                  -0.733
REMARK UNBOUND:                -0.701
REMARK  Name = 
REMARK  10 active torsions:
REMARK  status: ('A' for Active; 'I' for Inactive)
REMARK    1  A    between atoms: C_1  and  C_2
REMARK    2  A    between atoms: C_4  and  S_5
REMARK    3  A    between atoms: S_5  and  C_6
REMARK    4  A    between atoms: C_11  and  O_12
REMARK    5  A    between atoms: O_12  and  C_13
REMARK    6  A    between atoms: C_13  and  C_14
REMARK    7  A    between atoms: C_14  and  C_15
REMARK    8  A    between atoms: C_14  and  C_16
REMARK    9  A    between atoms: C_14  and  C_17
REMARK   10  A    between atoms: C_21  and  C_22
REMARK                            x       y       z     vdW  Elec       q    Type
REMARK                         _______ _______ _______ _____ _____    ______ ____
ROOT
ATOM      1  O   UNL     1      48.057   4.980  14.758  0.00  0.00    +0.000 OA
ENDROOT
BRANCH   1   8
ATOM      2  C   UNL     1      46.915   7.384  13.072  0.00  0.00    +0.000 C 
ATOM      3  C   UNL     1      46.505   5.945  13.034  0.00  0.00    +0.000 A 
ATOM      4  N   UNL     1      45.542   5.712  12.101  0.00  0.00    +0.000 NA
ATOM      5  C   UNL     1      45.141   4.433  11.920  0.00  0.00    +0.000 A 
ATOM      6  C   UNL     1      45.630   3.348  12.617  0.00  0.00    +0.000 A 
ATOM      7  C   UNL     1      46.607   3.604  13.577  0.00  0.00    +0.000 A 
ATOM      8  C   UNL     1      47.060   4.912  13.813  0.00  0.00    +0.000 A 
BRANCH   5   9
ATOM      9  S   UNL     1      43.914   4.223  10.651  0.00  0.00    +0.000 S 
ATOM     10  C   UNL     1      44.813   4.271   9.120  0.00  0.00    +0.000 C 
ATOM     11  O   UNL     1      43.366   2.887  10.802  0.00  0.00    +0.000 OA
ATOM     12  O   UNL     1      43.051   5.391  10.694  0.00  0.00    +0.000 OA
ENDBRANCH   5   9
ENDBRANCH   1   8
BRANCH   1  13
ATOM     13  C   UNL     1      47.694   5.553  16.012  0.00  0.00    +0.000 C 
BRANCH  13  14
ATOM     14  C   UNL     1      48.041   4.680  17.253  0.00  0.00    +0.000 C 
ATOM     15  C   UNL     1      47.477   5.355  18.517  0.00  0.00    +0.000 C 
ATOM     16  C   UNL     1      47.369   3.297  17.066  0.00  0.00    +0.000 C 
BRANCH  14  17
ATOM     17  C   UNL     1      49.574   4.496  17.392  0.00  0.00    +0.000 A 
ATOM     18  C   UNL     1      50.481   5.577  17.359  0.00  0.00    +0.000 A 
ATOM     19  C   UNL     1      51.860   5.385  17.472  0.00  0.00    +0.000 A 
ATOM     20  C   UNL     1      52.375   4.105  17.631  0.00  0.00    +0.000 A 
ATOM     21  C   UNL     1      51.504   3.015  17.680  0.00  0.00    +0.000 A 
ATOM     22  C   UNL     1      50.120   3.210  17.557  0.00  0.00    +0.000 A 
BRANCH  21  23
ATOM     23  C   UNL     1      52.025   1.696  17.861  0.00  0.00    +0.000 C 
ATOM     24  N   UNL     1      52.452   0.623  18.008  0.00  0.00    +0.000 NA
ENDBRANCH  21  23
ENDBRANCH  14  17
ENDBRANCH  13  14
ENDBRANCH   1  13
TORSDOF 6
ENDMDL
MODEL 6
REMARK VINA RESULT:    -6.386      3.682      7.426
REMARK INTER + INTRA:          -9.327
REMARK INTER:                  -8.212
REMARK INTRA:                  -1.115
REMARK UNBOUND:                -0.701
REMARK  Name = 
REMARK  10 active torsions:
REMARK  status: ('A' for Active; 'I' for Inactive)
REMARK    1  A    between atoms: C_1  and  C_2
REMARK    2  A    between atoms: C_4  and  S_5
REMARK    3  A    between atoms: S_5  and  C_6
REMARK    4  A    between atoms: C_11  and  O_12
REMARK    5  A    between atoms: O_12  and  C_13
REMARK    6  A    between atoms: C_13  and  C_14
REMARK    7  A    between atoms: C_14  and  C_15
REMARK    8  A    between atoms: C_14  and  C_16
REMARK    9  A    between atoms: C_14  and  C_17
REMARK   10  A    between atoms: C_21  and  C_22
REMARK                            x       y       z     vdW  Elec       q    Type
REMARK                         _______ _______ _______ _____ _____    ______ ____
ROOT
ATOM      1  O   UNL     1      48.660   6.466  13.965  0.00  0.00    +0.000 OA
ENDROOT
BRANCH   1   8
ATOM      2  C   UNL     1      47.251   4.114  15.517  0.00  0.00    +0.000 C 
ATOM      3  C   UNL     1      46.893   4.693  14.184  0.00  0.00    +0.000 A 
ATOM      4  N   UNL     1      45.785   4.108  13.653  0.00  0.00    +0.000 NA
ATOM      5  C   UNL     1      45.318   4.598  12.481  0.00  0.00    +0.000 A 
ATOM      6  C   UNL     1      45.888   5.640  11.781  0.00  0.00    +0.000 A 
ATOM      7  C   UNL     1      47.029   6.221  12.331  0.00  0.00    +0.000 A 
ATOM      8  C   UNL     1      47.563   5.752  13.543  0.00  0.00    +0.000 A 
BRANCH   5   9
ATOM      9  S   UNL     1      43.844   3.800  11.890  0.00  0.00    +0.000 S 
ATOM     10  C   UNL     1      42.601   5.068  11.877  0.00  0.00    +0.000 C 
ATOM     11  O   UNL     1      44.092   3.408  10.514  0.00  0.00    +0.000 OA
ATOM     12  O   UNL     1      43.462   2.815  12.888  0.00  0.00    +0.000 OA
ENDBRANCH   5   9
ENDBRANCH   1   8
BRANCH   1  13
ATOM     13  C   UNL     1      49.282   7.296  12.988  0.00  0.00    +0.000 C 
BRANCH  13  14
ATOM     14  C   UNL     1      49.474   8.778  13.416  0.00  0.00    +0.000 C 
ATOM     15  C   UNL     1      48.927   8.965  14.844  0.00  0.00    +0.000 C 
ATOM     16  C   UNL     1      50.992   9.086  13.405  0.00  0.00    +0.000 C 
BRANCH  14  17
ATOM     17  C   UNL     1      48.744   9.739  12.442  0.00  0.00    +0.000 A 
ATOM     18  C   UNL     1      49.419  10.480  11.448  0.00  0.00    +0.000 A 
ATOM     19  C   UNL     1      48.743  11.351  10.592  0.00  0.00    +0.000 A 
ATOM     20  C   UNL     1      47.366  11.501  10.696  0.00  0.00    +0.000 A 
ATOM     21  C   UNL     1      46.667  10.774  11.660  0.00  0.00    +0.000 A 
ATOM     22  C   UNL     1      47.350   9.906  12.525  0.00  0.00    +0.000 A 
BRANCH  21  23
ATOM     23  C   UNL     1      45.246  10.910  11.762  0.00  0.00    +0.000 C 
ATOM     24  N   UNL     1      44.091  11.024  11.845  0.00  0.00    +0.000 NA
ENDBRANCH  21  23
ENDBRANCH  14  17
ENDBRANCH  13  14
ENDBRANCH   1  13
TORSDOF 6
ENDMDL
MODEL 7
REMARK VINA RESULT:    -6.219      3.403      8.404
REMARK INTER + INTRA:          -9.101
REMARK INTER:                  -8.044
REMARK INTRA:                  -1.057
REMARK UNBOUND:                -0.701
REMARK  Name = 
REMARK  10 active torsions:
REMARK  status: ('A' for Active; 'I' for Inactive)
REMARK    1  A    between atoms: C_1  and  C_2
REMARK    2  A    between atoms: C_4  and  S_5
REMARK    3  A    between atoms: S_5  and  C_6
REMARK    4  A    between atoms: C_11  and  O_12
REMARK    5  A    between atoms: O_12  and  C_13
REMARK    6  A    between atoms: C_13  and  C_14
REMARK    7  A    between atoms: C_14  and  C_15
REMARK    8  A    between atoms: C_14  and  C_16
REMARK    9  A    between atoms: C_14  and  C_17
REMARK   10  A    between atoms: C_21  and  C_22
REMARK                            x       y       z     vdW  Elec       q    Type
REMARK                         _______ _______ _______ _____ _____    ______ ____
ROOT
ATOM      1  O   UNL     1      48.799   6.391  14.055  0.00  0.00    +0.000 OA
ENDROOT
BRANCH   1   8
ATOM      2  C   UNL     1      47.337   4.192  15.774  0.00  0.00    +0.000 C 
ATOM      3  C   UNL     1      46.917   4.777  14.461  0.00  0.00    +0.000 A 
ATOM      4  N   UNL     1      45.724   4.278  14.037  0.00  0.00    +0.000 NA
ATOM      5  C   UNL     1      45.202   4.784  12.897  0.00  0.00    +0.000 A 
ATOM      6  C   UNL     1      45.794   5.763  12.127  0.00  0.00    +0.000 A 
ATOM      7  C   UNL     1      47.022   6.255  12.567  0.00  0.00    +0.000 A 
ATOM      8  C   UNL     1      47.615   5.765  13.742  0.00  0.00    +0.000 A 
BRANCH   5   9
ATOM      9  S   UNL     1      43.622   4.103  12.449  0.00  0.00    +0.000 S 
ATOM     10  C   UNL     1      43.509   4.306  10.688  0.00  0.00    +0.000 C 
ATOM     11  O   UNL     1      43.676   2.679  12.728  0.00  0.00    +0.000 OA
ATOM     12  O   UNL     1      42.606   4.944  13.058  0.00  0.00    +0.000 OA
ENDBRANCH   5   9
ENDBRANCH   1   8
BRANCH   1  13
ATOM     13  C   UNL     1      48.715   7.787  14.332  0.00  0.00    +0.000 C 
BRANCH  13  14
ATOM     14  C   UNL     1      49.591   8.269  15.524  0.00  0.00    +0.000 C 
ATOM     15  C   UNL     1      50.933   7.513  15.500  0.00  0.00    +0.000 C 
ATOM     16  C   UNL     1      49.853   9.784  15.341  0.00  0.00    +0.000 C 
BRANCH  14  17
ATOM     17  C   UNL     1      48.873   8.027  16.877  0.00  0.00    +0.000 A 
ATOM     18  C   UNL     1      48.043   8.992  17.486  0.00  0.00    +0.000 A 
ATOM     19  C   UNL     1      47.418   8.758  18.713  0.00  0.00    +0.000 A 
ATOM     20  C   UNL     1      47.598   7.545  19.366  0.00  0.00    +0.000 A 
ATOM     21  C   UNL     1      48.403   6.565  18.784  0.00  0.00    +0.000 A 
ATOM     22  C   UNL     1      49.036   6.806  17.556  0.00  0.00    +0.000 A 
BRANCH  21  23
ATOM     23  C   UNL     1      48.578   5.307  19.442  0.00  0.00    +0.000 C 
ATOM     24  N   UNL     1      48.718   4.281  19.974  0.00  0.00    +0.000 NA
ENDBRANCH  21  23
ENDBRANCH  14  17
ENDBRANCH  13  14
ENDBRANCH   1  13
TORSDOF 6
ENDMDL
MODEL 8
REMARK VINA RESULT:    -6.087      3.211      9.028
REMARK INTER + INTRA:          -8.923
REMARK INTER:                  -8.195
REMARK INTRA:                  -0.728
REMARK UNBOUND:                -0.701
REMARK  Name = 
REMARK  10 active torsions:
REMARK  status: ('A' for Active; 'I' for Inactive)
REMARK    1  A    between atoms: C_1  and  C_2
REMARK    2  A    between atoms: C_4  and  S_5
REMARK    3  A    between atoms: S_5  and  C_6
REMARK    4  A    between atoms: C_11  and  O_12
REMARK    5  A    between atoms: O_12  and  C_13
REMARK    6  A    between atoms: C_13  and  C_14
REMARK    7  A    between atoms: C_14  and  C_15
REMARK    8  A    between atoms: C_14  and  C_16
REMARK    9  A    between atoms: C_14  and  C_17
REMARK   10  A    between atoms: C_21  and  C_22
REMARK                            x       y       z     vdW  Elec       q    Type
REMARK                         _______ _______ _______ _____ _____    ______ ____
ROOT
ATOM      1  O   UNL     1      48.080   5.245  14.683  0.00  0.00    +0.000 OA
ENDROOT
BRANCH   1   8
ATOM      2  C   UNL     1      46.676   7.572  13.087  0.00  0.00    +0.000 C 
ATOM      3  C   UNL     1      46.362   6.108  13.065  0.00  0.00    +0.000 A 
ATOM      4  N   UNL     1      45.361   5.813  12.192  0.00  0.00    +0.000 NA
ATOM      5  C   UNL     1      45.036   4.510  12.027  0.00  0.00    +0.000 A 
ATOM      6  C   UNL     1      45.638   3.459  12.685  0.00  0.00    +0.000 A 
ATOM      7  C   UNL     1      46.654   3.778  13.584  0.00  0.00    +0.000 A 
ATOM      8  C   UNL     1      47.033   5.113  13.801  0.00  0.00    +0.000 A 
BRANCH   5   9
ATOM      9  S   UNL     1      43.748   4.222  10.835  0.00  0.00    +0.000 S 
ATOM     10  C   UNL     1      44.580   4.096   9.271  0.00  0.00    +0.000 C 
ATOM     11  O   UNL     1      43.170   2.925  11.136  0.00  0.00    +0.000 OA
ATOM     12  O   UNL     1      42.922   5.417  10.802  0.00  0.00    +0.000 OA
ENDBRANCH   5   9
ENDBRANCH   1   8
BRANCH   1  13
ATOM     13  C   UNL     1      47.768   5.048  16.060  0.00  0.00    +0.000 C 
BRANCH  13  14
ATOM     14  C   UNL     1      48.940   5.334  17.041  0.00  0.00    +0.000 C 
ATOM     15  C   UNL     1      49.666   4.013  17.357  0.00  0.00    +0.000 C 
ATOM     16  C   UNL     1      49.923   6.305  16.341  0.00  0.00    +0.000 C 
BRANCH  14  17
ATOM     17  C   UNL     1      48.423   5.979  18.353  0.00  0.00    +0.000 A 
ATOM     18  C   UNL     1      48.279   5.256  19.557  0.00  0.00    +0.000 A 
ATOM     19  C   UNL     1      47.797   5.854  20.723  0.00  0.00    +0.000 A 
ATOM     20  C   UNL     1      47.451   7.200  20.723  0.00  0.00    +0.000 A 
ATOM     21  C   UNL     1      47.592   7.946  19.552  0.00  0.00    +0.000 A 
ATOM     22  C   UNL     1      48.069   7.340  18.381  0.00  0.00    +0.000 A 
BRANCH  21  23
ATOM     23  C   UNL     1      47.255   9.336  19.550  0.00  0.00    +0.000 C 
ATOM     24  N   UNL     1      46.978  10.466  19.550  0.00  0.00    +0.000 NA
ENDBRANCH  21  23
ENDBRANCH  14  17
ENDBRANCH  13  14
ENDBRANCH   1  13
TORSDOF 6
ENDMDL
MODEL 9
REMARK VINA RESULT:    -5.876      2.778      3.975
REMARK INTER + INTRA:          -8.638
REMARK INTER:                  -7.815
REMARK INTRA:                  -0.823
REMARK UNBOUND:                -0.701
REMARK  Name = 
REMARK  10 active torsions:
REMARK  status: ('A' for Active; 'I' for Inactive)
REMARK    1  A    between atoms: C_1  and  C_2
REMARK    2  A    between atoms: C_4  and  S_5
REMARK    3  A    between atoms: S_5  and  C_6
REMARK    4  A    between atoms: C_11  and  O_12
REMARK    5  A    between atoms: O_12  and  C_13
REMARK    6  A    between atoms: C_13  and  C_14
REMARK    7  A    between atoms: C_14  and  C_15
REMARK    8  A    between atoms: C_14  and  C_16
REMARK    9  A    between atoms: C_14  and  C_17
REMARK   10  A    between atoms: C_21  and  C_22
REMARK                            x       y       z     vdW  Elec       q    Type
REMARK                         _______ _______ _______ _____ _____    ______ ____
ROOT
ATOM      1  O   UNL     1      46.254   6.368  12.970  0.00  0.00    +0.000 OA
ENDROOT
BRANCH   1   8
ATOM      2  C   UNL     1      48.388   6.338  15.288  0.00  0.00    +0.000 C 
ATOM      3  C   UNL     1      48.515   6.922  13.915  0.00  0.00    +0.000 A 
ATOM      4  N   UNL     1      49.748   7.454  13.697  0.00  0.00    +0.000 NA
ATOM      5  C   UNL     1      50.010   7.948  12.465  0.00  0.00    +0.000 A 
ATOM      6  C   UNL     1      49.116   7.960  11.416  0.00  0.00    +0.000 A 
ATOM      7  C   UNL     1      47.853   7.422  11.657  0.00  0.00    +0.000 A 
ATOM      8  C   UNL     1      47.522   6.899  12.918  0.00  0.00    +0.000 A 
BRANCH   5   9
ATOM      9  S   UNL     1      51.660   8.580  12.265  0.00  0.00    +0.000 S 
ATOM     10  C   UNL     1      51.456  10.202  11.571  0.00  0.00    +0.000 C 
ATOM     11  O   UNL     1      52.223   8.734  13.594  0.00  0.00    +0.000 OA
ATOM     12  O   UNL     1      52.316   7.751  11.268  0.00  0.00    +0.000 OA
ENDBRANCH   5   9
ENDBRANCH   1   8
BRANCH   1  13
ATOM     13  C   UNL     1      45.523   6.371  11.746  0.00  0.00    +0.000 C 
BRANCH  13  14
ATOM     14  C   UNL     1      44.297   5.414  11.717  0.00  0.00    +0.000 C 
ATOM     15  C   UNL     1      44.101   4.802  13.117  0.00  0.00    +0.000 C 
ATOM     16  C   UNL     1      43.048   6.250  11.343  0.00  0.00    +0.000 C 
BRANCH  14  17
ATOM     17  C   UNL     1      44.496   4.286  10.672  0.00  0.00    +0.000 A 
ATOM     18  C   UNL     1      43.960   2.989  10.833  0.00  0.00    +0.000 A 
ATOM     19  C   UNL     1      44.166   1.985   9.886  0.00  0.00    +0.000 A 
ATOM     20  C   UNL     1      44.906   2.248   8.740  0.00  0.00    +0.000 A 
ATOM     21  C   UNL     1      45.439   3.523   8.544  0.00  0.00    +0.000 A 
ATOM     22  C   UNL     1      45.239   4.527   9.503  0.00  0.00    +0.000 A 
BRANCH  21  23
ATOM     23  C   UNL     1      46.188   3.806   7.359  0.00  0.00    +0.000 C 
ATOM     24  N   UNL     1      46.798   4.034   6.395  0.00  0.00    +0.000 NA
ENDBRANCH  21  23
ENDBRANCH  14  17
ENDBRANCH  13  14
ENDBRANCH   1  13
TORSDOF 6
ENDMDL
