MODEL 1
REMARK VINA RESULT:    -7.905      0.000      0.000
REMARK INTER + INTRA:         -11.938
REMARK INTER:                 -11.140
REMARK INTRA:                  -0.798
REMARK UNBOUND:                -0.798
REMARK  Name = 
REMARK  7 active torsions:
REMARK  status: ('A' for Active; 'I' for Inactive)
REMARK    1  A    between atoms: C_2  and  C_4
REMARK    2  A    between atoms: C_8  and  N_9
REMARK    3  A    between atoms: N_9  and  C_10
REMARK    4  A    between atoms: C_10  and  C_11
REMARK    5  A    between atoms: C_11  and  C_12
REMARK    6  A    between atoms: C_16  and  C_17
REMARK    7  A    between atoms: C_17  and  C_18
REMARK                            x       y       z     vdW  Elec       q    Type
REMARK                         _______ _______ _______ _____ _____    ______ ____
ROOT
ATOM      1  N   UNL     1      44.812   5.338   9.568  0.00  0.00    +0.000 N 
ATOM      2  H   UNL     1      45.623   5.931   9.740  0.00  0.00    +0.000 HD
ENDROOT
BRANCH   1   7
ATOM      3  C   UNL     1      46.416   2.784   7.389  0.00  0.00    +0.000 A 
ATOM      4  C   UNL     1      45.979   1.593   7.976  0.00  0.00    +0.000 A 
ATOM      5  C   UNL     1      45.130   1.640   9.077  0.00  0.00    +0.000 A 
ATOM      6  C   UNL     1      44.740   2.872   9.608  0.00  0.00    +0.000 A 
ATOM      7  C   UNL     1      45.217   4.081   9.082  0.00  0.00    +0.000 A 
ATOM      8  C   UNL     1      46.027   4.019   7.938  0.00  0.00    +0.000 A 
BRANCH   3  10
ATOM      9  N   UNL     1      48.654   2.545   6.452  0.00  0.00    +0.000 N 
ATOM     10  C   UNL     1      47.327   2.780   6.215  0.00  0.00    +0.000 C 
ATOM     11  O   UNL     1      46.914   2.952   5.075  0.00  0.00    +0.000 OA
ATOM     12  H   UNL     1      49.249   2.458   5.637  0.00  0.00    +0.000 HD
ATOM     13  H   UNL     1      48.994   2.161   7.323  0.00  0.00    +0.000 HD
ENDBRANCH   3  10
ENDBRANCH   1   7
BRANCH   1  14
ATOM     14  C   UNL     1      43.870   5.352  10.694  0.00  0.00    +0.000 C 
BRANCH  14  15
ATOM     15  C   UNL     1      44.228   6.463  11.684  0.00  0.00    +0.000 C 
BRANCH  15  16
ATOM     16  C   UNL     1      45.546   6.209  12.374  0.00  0.00    +0.000 A 
ATOM     17  C   UNL     1      46.615   7.094  12.245  0.00  0.00    +0.000 A 
ATOM     18  C   UNL     1      47.806   6.787  12.885  0.00  0.00    +0.000 A 
ATOM     19  N   UNL     1      48.002   5.671  13.623  0.00  0.00    +0.000 NA
ATOM     20  C   UNL     1      46.957   4.817  13.759  0.00  0.00    +0.000 A 
ATOM     21  C   UNL     1      45.717   5.075  13.175  0.00  0.00    +0.000 A 
BRANCH  20  22
ATOM     22  C   UNL     1      47.171   3.619  14.650  0.00  0.00    +0.000 C 
BRANCH  22  23
ATOM     23  C   UNL     1      47.490   3.949  16.106  0.00  0.00    +0.000 C 
ATOM     24  C   UNL     1      48.656   3.279  16.845  0.00  0.00    +0.000 C 
ATOM     25  C   UNL     1      47.620   2.996  17.930  0.00  0.00    +0.000 C 
ATOM     26  O   UNL     1      46.534   3.411  17.063  0.00  0.00    +0.000 OA
ENDBRANCH  22  23
ENDBRANCH  20  22
ENDBRANCH  15  16
ENDBRANCH  14  15
ENDBRANCH   1  14
TORSDOF 7
ENDMDL
MODEL 2
REMARK VINA RESULT:    -7.893      2.736      4.543
REMARK INTER + INTRA:         -11.921
REMARK INTER:                 -10.910
REMARK INTRA:                  -1.011
REMARK UNBOUND:                -0.798
REMARK  Name = 
REMARK  7 active torsions:
REMARK  status: ('A' for Active; 'I' for Inactive)
REMARK    1  A    between atoms: C_2  and  C_4
REMARK    2  A    between atoms: C_8  and  N_9
REMARK    3  A    between atoms: N_9  and  C_10
REMARK    4  A    between atoms: C_10  and  C_11
REMARK    5  A    between atoms: C_11  and  C_12
REMARK    6  A    between atoms: C_16  and  C_17
REMARK    7  A    between atoms: C_17  and  C_18
REMARK                            x       y       z     vdW  Elec       q    Type
REMARK                         _______ _______ _______ _____ _____    ______ ____
ROOT
ATOM      1  N   UNL     1      44.005   2.662  10.788  0.00  0.00    +0.000 N 
ATOM      2  H   UNL     1      43.441   1.830  10.616  0.00  0.00    +0.000 HD
ENDROOT
BRANCH   1   7
ATOM      3  C   UNL     1      46.370   2.202   7.954  0.00  0.00    +0.000 A 
ATOM      4  C   UNL     1      46.488   3.506   7.466  0.00  0.00    +0.000 A 
ATOM      5  C   UNL     1      45.805   4.541   8.097  0.00  0.00    +0.000 A 
ATOM      6  C   UNL     1      44.984   4.270   9.194  0.00  0.00    +0.000 A 
ATOM      7  C   UNL     1      44.793   2.963   9.662  0.00  0.00    +0.000 A 
ATOM      8  C   UNL     1      45.531   1.938   9.052  0.00  0.00    +0.000 A 
BRANCH   3  10
ATOM      9  N   UNL     1      46.718  -0.197   7.689  0.00  0.00    +0.000 N 
ATOM     10  C   UNL     1      47.079   1.066   7.307  0.00  0.00    +0.000 C 
ATOM     11  O   UNL     1      47.934   1.242   6.449  0.00  0.00    +0.000 OA
ATOM     12  H   UNL     1      47.144  -0.961   7.179  0.00  0.00    +0.000 HD
ATOM     13  H   UNL     1      45.866  -0.392   8.197  0.00  0.00    +0.000 HD
ENDBRANCH   3  10
ENDBRANCH   1   7
BRANCH   1  14
ATOM     14  C   UNL     1      43.213   3.755  11.366  0.00  0.00    +0.000 C 
BRANCH  14  15
ATOM     15  C   UNL     1      43.605   3.991  12.827  0.00  0.00    +0.000 C 
BRANCH  15  16
ATOM     16  C   UNL     1      44.817   4.881  12.955  0.00  0.00    +0.000 A 
ATOM     17  C   UNL     1      45.958   4.460  13.637  0.00  0.00    +0.000 A 
ATOM     18  C   UNL     1      47.026   5.338  13.738  0.00  0.00    +0.000 A 
ATOM     19  N   UNL     1      47.030   6.588  13.224  0.00  0.00    +0.000 NA
ATOM     20  C   UNL     1      45.926   6.991  12.548  0.00  0.00    +0.000 A 
ATOM     21  C   UNL     1      44.824   6.153  12.373  0.00  0.00    +0.000 A 
BRANCH  20  22
ATOM     22  C   UNL     1      45.979   8.359  11.915  0.00  0.00    +0.000 C 
BRANCH  22  23
ATOM     23  C   UNL     1      44.685   9.162  12.009  0.00  0.00    +0.000 C 
ATOM     24  C   UNL     1      43.844   9.480  10.765  0.00  0.00    +0.000 C 
ATOM     25  C   UNL     1      43.879  10.916  11.283  0.00  0.00    +0.000 C 
ATOM     26  O   UNL     1      44.878  10.579  12.278  0.00  0.00    +0.000 OA
ENDBRANCH  22  23
ENDBRANCH  20  22
ENDBRANCH  15  16
ENDBRANCH  14  15
ENDBRANCH   1  14
TORSDOF 7
ENDMDL
MODEL 3
REMARK VINA RESULT:    -7.835      2.144      2.754
REMARK INTER + INTRA:         -11.839
REMARK INTER:                 -10.985
REMARK INTRA:                  -0.854
REMARK UNBOUND:                -0.798
REMARK  Name = 
REMARK  7 active torsions:
REMARK  status: ('A' for Active; 'I' for Inactive)
REMARK    1  A    between atoms: C_2  and  C_4
REMARK    2  A    between atoms: C_8  and  N_9
REMARK    3  A    between atoms: N_9  and  C_10
REMARK    4  A    between atoms: C_10  and  C_11
REMARK    5  A    between atoms: C_11  and  C_12
REMARK    6  A    between atoms: C_16  and  C_17
REMARK    7  A    between atoms: C_17  and  C_18
REMARK                            x       y       z     vdW  Elec       q    Type
REMARK                         _______ _______ _______ _____ _____    ______ ____
ROOT
ATOM      1  N   UNL     1      44.066   2.164  10.571  0.00  0.00    +0.000 N 
ATOM      2  H   UNL     1      43.473   1.401  10.247  0.00  0.00    +0.000 HD
ENDROOT
BRANCH   1   7
ATOM      3  C   UNL     1      46.486   2.331   7.750  0.00  0.00    +0.000 A 
ATOM      4  C   UNL     1      46.448   3.689   7.421  0.00  0.00    +0.000 A 
ATOM      5  C   UNL     1      45.640   4.551   8.155  0.00  0.00    +0.000 A 
ATOM      6  C   UNL     1      44.851   4.056   9.196  0.00  0.00    +0.000 A 
ATOM      7  C   UNL     1      44.818   2.689   9.504  0.00  0.00    +0.000 A 
ATOM      8  C   UNL     1      45.679   1.840   8.793  0.00  0.00    +0.000 A 
BRANCH   3  10
ATOM      9  N   UNL     1      48.418   1.882   6.332  0.00  0.00    +0.000 N 
ATOM     10  C   UNL     1      47.332   1.373   6.990  0.00  0.00    +0.000 C 
ATOM     11  O   UNL     1      47.090   0.173   6.968  0.00  0.00    +0.000 OA
ATOM     12  H   UNL     1      49.034   1.210   5.891  0.00  0.00    +0.000 HD
ATOM     13  H   UNL     1      48.790   2.803   6.521  0.00  0.00    +0.000 HD
ENDBRANCH   3  10
ENDBRANCH   1   7
BRANCH   1  14
ATOM     14  C   UNL     1      43.328   3.119  11.407  0.00  0.00    +0.000 C 
BRANCH  14  15
ATOM     15  C   UNL     1      44.121   3.453  12.673  0.00  0.00    +0.000 C 
BRANCH  15  16
ATOM     16  C   UNL     1      44.799   4.798  12.584  0.00  0.00    +0.000 A 
ATOM     17  C   UNL     1      44.101   5.937  12.182  0.00  0.00    +0.000 A 
ATOM     18  C   UNL     1      44.791   7.136  12.098  0.00  0.00    +0.000 A 
ATOM     19  N   UNL     1      46.108   7.273  12.373  0.00  0.00    +0.000 NA
ATOM     20  C   UNL     1      46.782   6.168  12.778  0.00  0.00    +0.000 A 
ATOM     21  C   UNL     1      46.149   4.933  12.921  0.00  0.00    +0.000 A 
BRANCH  20  22
ATOM     22  C   UNL     1      48.230   6.356  13.155  0.00  0.00    +0.000 C 
BRANCH  22  23
ATOM     23  C   UNL     1      48.464   6.833  14.586  0.00  0.00    +0.000 C 
ATOM     24  C   UNL     1      49.780   7.503  15.004  0.00  0.00    +0.000 C 
ATOM     25  C   UNL     1      49.763   6.496  16.152  0.00  0.00    +0.000 C 
ATOM     26  O   UNL     1      48.668   5.761  15.549  0.00  0.00    +0.000 OA
ENDBRANCH  22  23
ENDBRANCH  20  22
ENDBRANCH  15  16
ENDBRANCH  14  15
ENDBRANCH   1  14
TORSDOF 7
ENDMDL
MODEL 4
REMARK VINA RESULT:    -7.465      2.485      3.758
REMARK INTER + INTRA:         -11.318
REMARK INTER:                 -10.307
REMARK INTRA:                  -1.011
REMARK UNBOUND:                -0.798
REMARK  Name = 
REMARK  7 active torsions:
REMARK  status: ('A' for Active; 'I' for Inactive)
REMARK    1  A    between atoms: C_2  and  C_4
REMARK    2  A    between atoms: C_8  and  N_9
REMARK    3  A    between atoms: N_9  and  C_10
REMARK    4  A    between atoms: C_10  and  C_11
REMARK    5  A    between atoms: C_11  and  C_12
REMARK    6  A    between atoms: C_16  and  C_17
REMARK    7  A    between atoms: C_17  and  C_18
REMARK                            x       y       z     vdW  Elec       q    Type
REMARK                         _______ _______ _______ _____ _____    ______ ____
ROOT
ATOM      1  N   UNL     1      44.062   2.852  10.656  0.00  0.00    +0.000 N 
ATOM      2  H   UNL     1      43.511   2.006  10.519  0.00  0.00    +0.000 HD
ENDROOT
BRANCH   1   7
ATOM      3  C   UNL     1      46.439   2.221   7.865  0.00  0.00    +0.000 A 
ATOM      4  C   UNL     1      46.636   3.509   7.361  0.00  0.00    +0.000 A 
ATOM      5  C   UNL     1      46.002   4.589   7.967  0.00  0.00    +0.000 A 
ATOM      6  C   UNL     1      45.151   4.380   9.055  0.00  0.00    +0.000 A 
ATOM      7  C   UNL     1      44.882   3.093   9.538  0.00  0.00    +0.000 A 
ATOM      8  C   UNL     1      45.572   2.020   8.954  0.00  0.00    +0.000 A 
BRANCH   3  10
ATOM      9  N   UNL     1      46.721  -0.196   7.704  0.00  0.00    +0.000 N 
ATOM     10  C   UNL     1      47.094   1.039   7.246  0.00  0.00    +0.000 C 
ATOM     11  O   UNL     1      47.915   1.152   6.345  0.00  0.00    +0.000 OA
ATOM     12  H   UNL     1      47.108  -0.994   7.215  0.00  0.00    +0.000 HD
ATOM     13  H   UNL     1      45.889  -0.346   8.257  0.00  0.00    +0.000 HD
ENDBRANCH   3  10
ENDBRANCH   1   7
BRANCH   1  14
ATOM     14  C   UNL     1      43.243   3.970  11.142  0.00  0.00    +0.000 C 
BRANCH  14  15
ATOM     15  C   UNL     1      43.533   4.250  12.618  0.00  0.00    +0.000 C 
BRANCH  15  16
ATOM     16  C   UNL     1      44.991   4.556  12.865  0.00  0.00    +0.000 A 
ATOM     17  C   UNL     1      45.796   3.698  13.613  0.00  0.00    +0.000 A 
ATOM     18  C   UNL     1      47.119   4.052  13.822  0.00  0.00    +0.000 A 
ATOM     19  N   UNL     1      47.682   5.187  13.352  0.00  0.00    +0.000 NA
ATOM     20  C   UNL     1      46.903   6.014  12.612  0.00  0.00    +0.000 A 
ATOM     21  C   UNL     1      45.571   5.709  12.329  0.00  0.00    +0.000 A 
BRANCH  20  22
ATOM     22  C   UNL     1      47.569   7.236  12.031  0.00  0.00    +0.000 C 
BRANCH  22  23
ATOM     23  C   UNL     1      49.065   7.348  12.312  0.00  0.00    +0.000 C 
ATOM     24  C   UNL     1      49.630   8.432  13.240  0.00  0.00    +0.000 C 
ATOM     25  C   UNL     1      50.598   8.709  12.092  0.00  0.00    +0.000 C 
ATOM     26  O   UNL     1      49.847   7.853  11.194  0.00  0.00    +0.000 OA
ENDBRANCH  22  23
ENDBRANCH  20  22
ENDBRANCH  15  16
ENDBRANCH  14  15
ENDBRANCH   1  14
TORSDOF 7
ENDMDL
MODEL 5
REMARK VINA RESULT:    -7.272      2.031      7.902
REMARK INTER + INTRA:         -11.047
REMARK INTER:                 -10.343
REMARK INTRA:                  -0.704
REMARK UNBOUND:                -0.798
REMARK  Name = 
REMARK  7 active torsions:
REMARK  status: ('A' for Active; 'I' for Inactive)
REMARK    1  A    between atoms: C_2  and  C_4
REMARK    2  A    between atoms: C_8  and  N_9
REMARK    3  A    between atoms: N_9  and  C_10
REMARK    4  A    between atoms: C_10  and  C_11
REMARK    5  A    between atoms: C_11  and  C_12
REMARK    6  A    between atoms: C_16  and  C_17
REMARK    7  A    between atoms: C_17  and  C_18
REMARK                            x       y       z     vdW  Elec       q    Type
REMARK                         _______ _______ _______ _____ _____    ______ ____
ROOT
ATOM      1  N   UNL     1      46.890   5.312  13.040  0.00  0.00    +0.000 N 
ATOM      2  H   UNL     1      47.504   4.836  12.380  0.00  0.00    +0.000 HD
ENDROOT
BRANCH   1   7
ATOM      3  C   UNL     1      47.733   4.594  16.591  0.00  0.00    +0.000 A 
ATOM      4  C   UNL     1      48.621   5.632  16.889  0.00  0.00    +0.000 A 
ATOM      5  C   UNL     1      48.915   6.585  15.919  0.00  0.00    +0.000 A 
ATOM      6  C   UNL     1      48.348   6.486  14.647  0.00  0.00    +0.000 A 
ATOM      7  C   UNL     1      47.509   5.419  14.299  0.00  0.00    +0.000 A 
ATOM      8  C   UNL     1      47.176   4.497  15.303  0.00  0.00    +0.000 A 
BRANCH   3  10
ATOM      9  N   UNL     1      48.209   3.450  18.691  0.00  0.00    +0.000 N 
ATOM     10  C   UNL     1      47.395   3.553  17.596  0.00  0.00    +0.000 C 
ATOM     11  O   UNL     1      46.415   2.829  17.472  0.00  0.00    +0.000 OA
ATOM     12  H   UNL     1      47.919   2.797  19.409  0.00  0.00    +0.000 HD
ATOM     13  H   UNL     1      48.867   4.171  18.953  0.00  0.00    +0.000 HD
ENDBRANCH   3  10
ENDBRANCH   1   7
BRANCH   1  14
ATOM     14  C   UNL     1      46.311   6.535  12.470  0.00  0.00    +0.000 C 
BRANCH  14  15
ATOM     15  C   UNL     1      44.793   6.398  12.326  0.00  0.00    +0.000 C 
BRANCH  15  16
ATOM     16  C   UNL     1      44.397   5.090  11.685  0.00  0.00    +0.000 A 
ATOM     17  C   UNL     1      43.699   4.115  12.397  0.00  0.00    +0.000 A 
ATOM     18  C   UNL     1      43.389   2.927  11.754  0.00  0.00    +0.000 A 
ATOM     19  N   UNL     1      43.730   2.646  10.477  0.00  0.00    +0.000 NA
ATOM     20  C   UNL     1      44.395   3.601   9.780  0.00  0.00    +0.000 A 
ATOM     21  C   UNL     1      44.713   4.836  10.347  0.00  0.00    +0.000 A 
BRANCH  20  22
ATOM     22  C   UNL     1      44.697   3.300   8.334  0.00  0.00    +0.000 C 
BRANCH  22  23
ATOM     23  C   UNL     1      46.133   2.863   8.054  0.00  0.00    +0.000 C 
ATOM     24  C   UNL     1      46.708   2.856   6.631  0.00  0.00    +0.000 C 
ATOM     25  C   UNL     1      47.146   1.432   6.968  0.00  0.00    +0.000 C 
ATOM     26  O   UNL     1      46.358   1.431   8.186  0.00  0.00    +0.000 OA
ENDBRANCH  22  23
ENDBRANCH  20  22
ENDBRANCH  15  16
ENDBRANCH  14  15
ENDBRANCH   1  14
TORSDOF 7
ENDMDL
MODEL 6
REMARK VINA RESULT:    -6.887      2.451      8.234
REMARK INTER + INTRA:         -10.503
REMARK INTER:                  -9.972
REMARK INTRA:                  -0.532
REMARK UNBOUND:                -0.798
REMARK  Name = 
REMARK  7 active torsions:
REMARK  status: ('A' for Active; 'I' for Inactive)
REMARK    1  A    between atoms: C_2  and  C_4
REMARK    2  A    between atoms: C_8  and  N_9
REMARK    3  A    between atoms: N_9  and  C_10
REMARK    4  A    between atoms: C_10  and  C_11
REMARK    5  A    between atoms: C_11  and  C_12
REMARK    6  A    between atoms: C_16  and  C_17
REMARK    7  A    between atoms: C_17  and  C_18
REMARK                            x       y       z     vdW  Elec       q    Type
REMARK                         _______ _______ _______ _____ _____    ______ ____
ROOT
ATOM      1  N   UNL     1      46.458   4.382  15.762  0.00  0.00    +0.000 N 
ATOM      2  H   UNL     1      45.640   3.827  16.010  0.00  0.00    +0.000 HD
ENDROOT
BRANCH   1   7
ATOM      3  C   UNL     1      49.481   3.201  17.581  0.00  0.00    +0.000 A 
ATOM      4  C   UNL     1      49.402   3.932  18.770  0.00  0.00    +0.000 A 
ATOM      5  C   UNL     1      48.330   4.793  18.978  0.00  0.00    +0.000 A 
ATOM      6  C   UNL     1      47.354   4.947  17.990  0.00  0.00    +0.000 A 
ATOM      7  C   UNL     1      47.444   4.280  16.761  0.00  0.00    +0.000 A 
ATOM      8  C   UNL     1      48.499   3.372  16.588  0.00  0.00    +0.000 A 
BRANCH   3  10
ATOM      9  N   UNL     1      51.695   2.353  18.147  0.00  0.00    +0.000 N 
ATOM     10  C   UNL     1      50.611   2.274  17.316  0.00  0.00    +0.000 C 
ATOM     11  O   UNL     1      50.574   1.451  16.410  0.00  0.00    +0.000 OA
ATOM     12  H   UNL     1      52.420   1.658  18.010  0.00  0.00    +0.000 HD
ATOM     13  H   UNL     1      51.669   2.832  19.036  0.00  0.00    +0.000 HD
ENDBRANCH   3  10
ENDBRANCH   1   7
BRANCH   1  14
ATOM     14  C   UNL     1      46.881   4.151  14.375  0.00  0.00    +0.000 C 
BRANCH  14  15
ATOM     15  C   UNL     1      46.401   5.287  13.468  0.00  0.00    +0.000 C 
BRANCH  15  16
ATOM     16  C   UNL     1      45.224   4.878  12.616  0.00  0.00    +0.000 A 
ATOM     17  C   UNL     1      43.973   5.475  12.770  0.00  0.00    +0.000 A 
ATOM     18  C   UNL     1      42.930   5.033  11.972  0.00  0.00    +0.000 A 
ATOM     19  N   UNL     1      43.044   4.048  11.054  0.00  0.00    +0.000 NA
ATOM     20  C   UNL     1      44.264   3.478  10.893  0.00  0.00    +0.000 A 
ATOM     21  C   UNL     1      45.371   3.892  11.635  0.00  0.00    +0.000 A 
BRANCH  20  22
ATOM     22  C   UNL     1      44.390   2.437   9.810  0.00  0.00    +0.000 C 
BRANCH  22  23
ATOM     23  C   UNL     1      44.826   2.974   8.449  0.00  0.00    +0.000 C 
ATOM     24  C   UNL     1      46.185   2.605   7.838  0.00  0.00    +0.000 C 
ATOM     25  C   UNL     1      46.340   4.110   7.631  0.00  0.00    +0.000 C 
ATOM     26  O   UNL     1      45.173   4.387   8.447  0.00  0.00    +0.000 OA
ENDBRANCH  22  23
ENDBRANCH  20  22
ENDBRANCH  15  16
ENDBRANCH  14  15
ENDBRANCH   1  14
TORSDOF 7
ENDMDL
MODEL 7
REMARK VINA RESULT:    -6.872      1.795      2.131
REMARK INTER + INTRA:         -10.483
REMARK INTER:                  -9.988
REMARK INTRA:                  -0.495
REMARK UNBOUND:                -0.798
REMARK  Name = 
REMARK  7 active torsions:
REMARK  status: ('A' for Active; 'I' for Inactive)
REMARK    1  A    between atoms: C_2  and  C_4
REMARK    2  A    between atoms: C_8  and  N_9
REMARK    3  A    between atoms: N_9  and  C_10
REMARK    4  A    between atoms: C_10  and  C_11
REMARK    5  A    between atoms: C_11  and  C_12
REMARK    6  A    between atoms: C_16  and  C_17
REMARK    7  A    between atoms: C_17  and  C_18
REMARK                            x       y       z     vdW  Elec       q    Type
REMARK                         _______ _______ _______ _____ _____    ______ ____
ROOT
ATOM      1  N   UNL     1      44.916   5.321   9.472  0.00  0.00    +0.000 N 
ATOM      2  H   UNL     1      45.659   5.963   9.199  0.00  0.00    +0.000 HD
ENDROOT
BRANCH   1   7
ATOM      3  C   UNL     1      46.443   2.529   7.545  0.00  0.00    +0.000 A 
ATOM      4  C   UNL     1      45.808   1.416   8.104  0.00  0.00    +0.000 A 
ATOM      5  C   UNL     1      44.852   1.597   9.099  0.00  0.00    +0.000 A 
ATOM      6  C   UNL     1      44.552   2.882   9.556  0.00  0.00    +0.000 A 
ATOM      7  C   UNL     1      45.222   4.010   9.063  0.00  0.00    +0.000 A 
ATOM      8  C   UNL     1      46.142   3.818   8.020  0.00  0.00    +0.000 A 
BRANCH   3  10
ATOM      9  N   UNL     1      47.442   3.278   5.452  0.00  0.00    +0.000 N 
ATOM     10  C   UNL     1      47.472   2.381   6.484  0.00  0.00    +0.000 C 
ATOM     11  O   UNL     1      48.333   1.511   6.534  0.00  0.00    +0.000 OA
ATOM     12  H   UNL     1      48.199   3.221   4.782  0.00  0.00    +0.000 HD
ATOM     13  H   UNL     1      46.919   4.142   5.493  0.00  0.00    +0.000 HD
ENDBRANCH   3  10
ENDBRANCH   1   7
BRANCH   1  14
ATOM     14  C   UNL     1      44.510   5.511  10.870  0.00  0.00    +0.000 C 
BRANCH  14  15
ATOM     15  C   UNL     1      45.643   5.111  11.820  0.00  0.00    +0.000 C 
BRANCH  15  16
ATOM     16  C   UNL     1      46.222   6.300  12.549  0.00  0.00    +0.000 A 
ATOM     17  C   UNL     1      45.592   7.544  12.524  0.00  0.00    +0.000 A 
ATOM     18  C   UNL     1      46.191   8.598  13.194  0.00  0.00    +0.000 A 
ATOM     19  N   UNL     1      47.360   8.501  13.867  0.00  0.00    +0.000 NA
ATOM     20  C   UNL     1      47.964   7.288  13.903  0.00  0.00    +0.000 A 
ATOM     21  C   UNL     1      47.405   6.170  13.283  0.00  0.00    +0.000 A 
BRANCH  20  22
ATOM     22  C   UNL     1      49.225   7.181  14.724  0.00  0.00    +0.000 C 
BRANCH  22  23
ATOM     23  C   UNL     1      49.028   6.634  16.136  0.00  0.00    +0.000 C 
ATOM     24  C   UNL     1      50.093   6.822  17.225  0.00  0.00    +0.000 C 
ATOM     25  C   UNL     1      49.933   5.319  17.441  0.00  0.00    +0.000 C 
ATOM     26  O   UNL     1      49.135   5.187  16.237  0.00  0.00    +0.000 OA
ENDBRANCH  22  23
ENDBRANCH  20  22
ENDBRANCH  15  16
ENDBRANCH  14  15
ENDBRANCH   1  14
TORSDOF 7
ENDMDL
MODEL 8
REMARK VINA RESULT:    -6.862      1.938      2.684
REMARK INTER + INTRA:         -10.468
REMARK INTER:                  -9.507
REMARK INTRA:                  -0.961
REMARK UNBOUND:                -0.798
REMARK  Name = 
REMARK  7 active torsions:
REMARK  status: ('A' for Active; 'I' for Inactive)
REMARK    1  A    between atoms: C_2  and  C_4
REMARK    2  A    between atoms: C_8  and  N_9
REMARK    3  A    between atoms: N_9  and  C_10
REMARK    4  A    between atoms: C_10  and  C_11
REMARK    5  A    between atoms: C_11  and  C_12
REMARK    6  A    between atoms: C_16  and  C_17
REMARK    7  A    between atoms: C_17  and  C_18
REMARK                            x       y       z     vdW  Elec       q    Type
REMARK                         _______ _______ _______ _____ _____    ______ ____
ROOT
ATOM      1  N   UNL     1      43.580   7.058  11.191  0.00  0.00    +0.000 N 
ATOM      2  H   UNL     1      43.431   7.346  10.225  0.00  0.00    +0.000 HD
ENDROOT
BRANCH   1   7
ATOM      3  C   UNL     1      44.088   3.514  10.179  0.00  0.00    +0.000 A 
ATOM      4  C   UNL     1      43.725   2.830  11.343  0.00  0.00    +0.000 A 
ATOM      5  C   UNL     1      43.285   3.545  12.452  0.00  0.00    +0.000 A 
ATOM      6  C   UNL     1      43.235   4.941  12.410  0.00  0.00    +0.000 A 
ATOM      7  C   UNL     1      43.657   5.656  11.281  0.00  0.00    +0.000 A 
ATOM      8  C   UNL     1      44.044   4.920  10.150  0.00  0.00    +0.000 A 
BRANCH   3  10
ATOM      9  N   UNL     1      44.716   1.434   9.074  0.00  0.00    +0.000 N 
ATOM     10  C   UNL     1      44.567   2.790   8.973  0.00  0.00    +0.000 C 
ATOM     11  O   UNL     1      44.798   3.370   7.919  0.00  0.00    +0.000 OA
ATOM     12  H   UNL     1      44.958   0.942   8.222  0.00  0.00    +0.000 HD
ATOM     13  H   UNL     1      44.310   0.894   9.825  0.00  0.00    +0.000 HD
ENDBRANCH   3  10
ENDBRANCH   1   7
BRANCH   1  14
ATOM     14  C   UNL     1      44.648   7.831  11.839  0.00  0.00    +0.000 C 
BRANCH  14  15
ATOM     15  C   UNL     1      46.024   7.335  11.387  0.00  0.00    +0.000 C 
BRANCH  15  16
ATOM     16  C   UNL     1      46.873   6.876  12.546  0.00  0.00    +0.000 A 
ATOM     17  C   UNL     1      47.954   7.632  12.998  0.00  0.00    +0.000 A 
ATOM     18  C   UNL     1      48.708   7.139  14.052  0.00  0.00    +0.000 A 
ATOM     19  N   UNL     1      48.468   5.960  14.668  0.00  0.00    +0.000 NA
ATOM     20  C   UNL     1      47.407   5.232  14.238  0.00  0.00    +0.000 A 
ATOM     21  C   UNL     1      46.580   5.678  13.206  0.00  0.00    +0.000 A 
BRANCH  20  22
ATOM     22  C   UNL     1      47.108   3.959  14.988  0.00  0.00    +0.000 C 
BRANCH  22  23
ATOM     23  C   UNL     1      47.393   4.013  16.487  0.00  0.00    +0.000 C 
ATOM     24  C   UNL     1      48.665   3.397  17.085  0.00  0.00    +0.000 C 
ATOM     25  C   UNL     1      47.707   2.723  18.065  0.00  0.00    +0.000 C 
ATOM     26  O   UNL     1      46.554   3.136  17.288  0.00  0.00    +0.000 OA
ENDBRANCH  22  23
ENDBRANCH  20  22
ENDBRANCH  15  16
ENDBRANCH  14  15
ENDBRANCH   1  14
TORSDOF 7
ENDMDL
MODEL 9
REMARK VINA RESULT:    -6.678      2.346      8.301
REMARK INTER + INTRA:         -10.210
REMARK INTER:                  -9.672
REMARK INTRA:                  -0.538
REMARK UNBOUND:                -0.798
REMARK  Name = 
REMARK  7 active torsions:
REMARK  status: ('A' for Active; 'I' for Inactive)
REMARK    1  A    between atoms: C_2  and  C_4
REMARK    2  A    between atoms: C_8  and  N_9
REMARK    3  A    between atoms: N_9  and  C_10
REMARK    4  A    between atoms: C_10  and  C_11
REMARK    5  A    between atoms: C_11  and  C_12
REMARK    6  A    between atoms: C_16  and  C_17
REMARK    7  A    between atoms: C_17  and  C_18
REMARK                            x       y       z     vdW  Elec       q    Type
REMARK                         _______ _______ _______ _____ _____    ______ ____
ROOT
ATOM      1  N   UNL     1      46.458   4.392  15.109  0.00  0.00    +0.000 N 
ATOM      2  H   UNL     1      45.947   3.512  15.042  0.00  0.00    +0.000 HD
ENDROOT
BRANCH   1   7
ATOM      3  C   UNL     1      49.469   5.291  17.099  0.00  0.00    +0.000 A 
ATOM      4  C   UNL     1      49.757   4.084  17.743  0.00  0.00    +0.000 A 
ATOM      5  C   UNL     1      48.968   2.966  17.492  0.00  0.00    +0.000 A 
ATOM      6  C   UNL     1      47.878   3.060  16.624  0.00  0.00    +0.000 A 
ATOM      7  C   UNL     1      47.524   4.273  16.019  0.00  0.00    +0.000 A 
ATOM      8  C   UNL     1      48.362   5.378  16.236  0.00  0.00    +0.000 A 
BRANCH   3  10
ATOM      9  N   UNL     1      51.222   6.835  16.400  0.00  0.00    +0.000 N 
ATOM     10  C   UNL     1      50.284   6.511  17.341  0.00  0.00    +0.000 C 
ATOM     11  O   UNL     1      50.112   7.218  18.326  0.00  0.00    +0.000 OA
ATOM     12  H   UNL     1      51.709   7.713  16.532  0.00  0.00    +0.000 HD
ATOM     13  H   UNL     1      51.229   6.432  15.473  0.00  0.00    +0.000 HD
ENDBRANCH   3  10
ENDBRANCH   1   7
BRANCH   1  14
ATOM     14  C   UNL     1      46.761   4.955  13.788  0.00  0.00    +0.000 C 
BRANCH  14  15
ATOM     15  C   UNL     1      45.505   5.563  13.159  0.00  0.00    +0.000 C 
BRANCH  15  16
ATOM     16  C   UNL     1      44.855   4.631  12.166  0.00  0.00    +0.000 A 
ATOM     17  C   UNL     1      43.950   3.652  12.574  0.00  0.00    +0.000 A 
ATOM     18  C   UNL     1      43.409   2.812  11.613  0.00  0.00    +0.000 A 
ATOM     19  N   UNL     1      43.713   2.875  10.297  0.00  0.00    +0.000 NA
ATOM     20  C   UNL     1      44.582   3.836   9.898  0.00  0.00    +0.000 A 
ATOM     21  C   UNL     1      45.141   4.742  10.802  0.00  0.00    +0.000 A 
BRANCH  20  22
ATOM     22  C   UNL     1      44.847   3.941   8.417  0.00  0.00    +0.000 C 
BRANCH  22  23
ATOM     23  C   UNL     1      46.187   3.370   7.962  0.00  0.00    +0.000 C 
ATOM     24  C   UNL     1      46.501   3.144   6.477  0.00  0.00    +0.000 C 
ATOM     25  C   UNL     1      46.920   1.745   6.924  0.00  0.00    +0.000 C 
ATOM     26  O   UNL     1      46.360   1.953   8.246  0.00  0.00    +0.000 OA
ENDBRANCH  22  23
ENDBRANCH  20  22
ENDBRANCH  15  16
ENDBRANCH  14  15
ENDBRANCH   1  14
TORSDOF 7
ENDMDL
