MODEL 1
REMARK VINA RESULT:    -8.853      0.000      0.000
REMARK INTER + INTRA:         -12.972
REMARK INTER:                 -11.958
REMARK INTRA:                  -1.014
REMARK UNBOUND:                -1.014
REMARK  Name = 
REMARK  6 active torsions:
REMARK  status: ('A' for Active; 'I' for Inactive)
REMARK    1  A    between atoms: C_2  and  C_4
REMARK    2  A    between atoms: C_7  and  O_8
REMARK    3  A    between atoms: O_8  and  C_9
REMARK    4  A    between atoms: C_9  and  C_10
REMARK    5  A    between atoms: C_10  and  C_13
REMARK    6  A    between atoms: C_17  and  C_18
REMARK                            x       y       z     vdW  Elec       q    Type
REMARK                         _______ _______ _______ _____ _____    ______ ____
ROOT
ATOM      1  C   UNL     1      43.662   4.533  12.540  0.00  0.00    +0.000 C 
ATOM      2  F   UNL     1      42.731   5.221  13.265  0.00  0.00    +0.000 F 
ATOM      3  F   UNL     1      43.512   3.225  12.902  0.00  0.00    +0.000 F 
ENDROOT
BRANCH   1   4
ATOM      4  C   UNL     1      45.056   5.035  12.817  0.00  0.00    +0.000 A 
ATOM      5  C   UNL     1      45.981   4.231  13.463  0.00  0.00    +0.000 A 
ATOM      6  N   UNL     1      47.248   4.613  13.723  0.00  0.00    +0.000 NA
ATOM      7  C   UNL     1      47.607   5.861  13.335  0.00  0.00    +0.000 A 
ATOM      8  C   UNL     1      46.779   6.768  12.669  0.00  0.00    +0.000 A 
ATOM      9  C   UNL     1      45.474   6.314  12.417  0.00  0.00    +0.000 A 
BRANCH   8  10
ATOM     10  C   UNL     1      47.244   8.105  12.250  0.00  0.00    +0.000 A 
ATOM     11  C   UNL     1      48.567   8.350  11.850  0.00  0.00    +0.000 A 
ATOM     12  C   UNL     1      48.976   9.630  11.473  0.00  0.00    +0.000 A 
ATOM     13  C   UNL     1      48.042  10.650  11.493  0.00  0.00    +0.000 A 
ATOM     14  N   UNL     1      46.760  10.473  11.864  0.00  0.00    +0.000 NA
ATOM     15  C   UNL     1      46.398   9.219  12.232  0.00  0.00    +0.000 A 
ENDBRANCH   8  10
ENDBRANCH   1   4
BRANCH   1  16
ATOM     16  C   UNL     1      43.321   4.674  11.045  0.00  0.00    +0.000 C 
BRANCH  16  17
ATOM     17  O   UNL     1      43.414   3.402  10.386  0.00  0.00    +0.000 OA
BRANCH  17  21
ATOM     18  C   UNL     1      46.390   2.663   7.654  0.00  0.00    +0.000 A 
ATOM     19  C   UNL     1      45.974   3.983   7.775  0.00  0.00    +0.000 A 
ATOM     20  C   UNL     1      44.960   4.282   8.688  0.00  0.00    +0.000 A 
ATOM     21  C   UNL     1      44.401   3.262   9.452  0.00  0.00    +0.000 A 
ATOM     22  C   UNL     1      44.886   1.970   9.256  0.00  0.00    +0.000 A 
ATOM     23  N   UNL     1      45.864   1.636   8.375  0.00  0.00    +0.000 NA
BRANCH  18  25
ATOM     24  N   UNL     1      47.482   3.054   5.525  0.00  0.00    +0.000 N 
ATOM     25  C   UNL     1      47.475   2.322   6.681  0.00  0.00    +0.000 C 
ATOM     26  O   UNL     1      48.308   1.452   6.900  0.00  0.00    +0.000 OA
ATOM     27  H   UNL     1      48.197   2.882   4.832  0.00  0.00    +0.000 HD
ATOM     28  H   UNL     1      46.788   3.778   5.383  0.00  0.00    +0.000 HD
ENDBRANCH  18  25
ENDBRANCH  17  21
ENDBRANCH  16  17
ENDBRANCH   1  16
TORSDOF 6
ENDMDL
MODEL 2
REMARK VINA RESULT:    -8.486      2.100      3.791
REMARK INTER + INTRA:         -12.478
REMARK INTER:                 -11.579
REMARK INTRA:                  -0.898
REMARK UNBOUND:                -1.014
REMARK  Name = 
REMARK  6 active torsions:
REMARK  status: ('A' for Active; 'I' for Inactive)
REMARK    1  A    between atoms: C_2  and  C_4
REMARK    2  A    between atoms: C_7  and  O_8
REMARK    3  A    between atoms: O_8  and  C_9
REMARK    4  A    between atoms: C_9  and  C_10
REMARK    5  A    between atoms: C_10  and  C_13
REMARK    6  A    between atoms: C_17  and  C_18
REMARK                            x       y       z     vdW  Elec       q    Type
REMARK                         _______ _______ _______ _____ _____    ______ ____
ROOT
ATOM      1  C   UNL     1      43.846   4.747  12.315  0.00  0.00    +0.000 C 
ATOM      2  F   UNL     1      43.262   5.633  11.455  0.00  0.00    +0.000 F 
ATOM      3  F   UNL     1      43.007   4.673  13.390  0.00  0.00    +0.000 F 
ENDROOT
BRANCH   1   4
ATOM      4  C   UNL     1      45.229   5.196  12.714  0.00  0.00    +0.000 A 
ATOM      5  C   UNL     1      45.975   6.011  11.878  0.00  0.00    +0.000 A 
ATOM      6  N   UNL     1      47.208   6.463  12.183  0.00  0.00    +0.000 NA
ATOM      7  C   UNL     1      47.731   6.072  13.372  0.00  0.00    +0.000 A 
ATOM      8  C   UNL     1      47.084   5.264  14.309  0.00  0.00    +0.000 A 
ATOM      9  C   UNL     1      45.800   4.829  13.942  0.00  0.00    +0.000 A 
BRANCH   8  10
ATOM     10  C   UNL     1      47.701   4.898  15.599  0.00  0.00    +0.000 A 
ATOM     11  C   UNL     1      47.387   3.709  16.274  0.00  0.00    +0.000 A 
ATOM     12  C   UNL     1      47.981   3.402  17.499  0.00  0.00    +0.000 A 
ATOM     13  C   UNL     1      48.895   4.294  18.028  0.00  0.00    +0.000 A 
ATOM     14  N   UNL     1      49.237   5.448  17.425  0.00  0.00    +0.000 NA
ATOM     15  C   UNL     1      48.636   5.720  16.240  0.00  0.00    +0.000 A 
ENDBRANCH   8  10
ENDBRANCH   1   4
BRANCH   1  16
ATOM     16  C   UNL     1      43.898   3.367  11.634  0.00  0.00    +0.000 C 
BRANCH  16  17
ATOM     17  O   UNL     1      43.562   3.479  10.243  0.00  0.00    +0.000 OA
BRANCH  17  21
ATOM     18  C   UNL     1      46.436   2.655   7.427  0.00  0.00    +0.000 A 
ATOM     19  C   UNL     1      46.024   1.592   8.222  0.00  0.00    +0.000 A 
ATOM     20  C   UNL     1      45.051   1.825   9.196  0.00  0.00    +0.000 A 
ATOM     21  C   UNL     1      44.520   3.103   9.344  0.00  0.00    +0.000 A 
ATOM     22  C   UNL     1      45.000   4.102   8.501  0.00  0.00    +0.000 A 
ATOM     23  N   UNL     1      45.948   3.920   7.546  0.00  0.00    +0.000 NA
BRANCH  18  25
ATOM     24  N   UNL     1      47.410   3.248   5.287  0.00  0.00    +0.000 N 
ATOM     25  C   UNL     1      47.478   2.425   6.377  0.00  0.00    +0.000 C 
ATOM     26  O   UNL     1      48.340   1.562   6.483  0.00  0.00    +0.000 OA
ATOM     27  H   UNL     1      48.092   3.153   4.548  0.00  0.00    +0.000 HD
ATOM     28  H   UNL     1      46.692   3.962   5.239  0.00  0.00    +0.000 HD
ENDBRANCH  18  25
ENDBRANCH  17  21
ENDBRANCH  16  17
ENDBRANCH   1  16
TORSDOF 6
ENDMDL
MODEL 3
REMARK VINA RESULT:    -8.146      3.272      7.304
REMARK INTER + INTRA:         -12.017
REMARK INTER:                 -11.179
REMARK INTRA:                  -0.838
REMARK UNBOUND:                -1.014
REMARK  Name = 
REMARK  6 active torsions:
REMARK  status: ('A' for Active; 'I' for Inactive)
REMARK    1  A    between atoms: C_2  and  C_4
REMARK    2  A    between atoms: C_7  and  O_8
REMARK    3  A    between atoms: O_8  and  C_9
REMARK    4  A    between atoms: C_9  and  C_10
REMARK    5  A    between atoms: C_10  and  C_13
REMARK    6  A    between atoms: C_17  and  C_18
REMARK                            x       y       z     vdW  Elec       q    Type
REMARK                         _______ _______ _______ _____ _____    ______ ____
ROOT
ATOM      1  C   UNL     1      44.547   6.406  11.363  0.00  0.00    +0.000 C 
ATOM      2  F   UNL     1      43.330   7.026  11.332  0.00  0.00    +0.000 F 
ATOM      3  F   UNL     1      45.370   7.178  10.594  0.00  0.00    +0.000 F 
ENDROOT
BRANCH   1   4
ATOM      4  C   UNL     1      44.458   4.993  10.844  0.00  0.00    +0.000 A 
ATOM      5  C   UNL     1      43.594   4.080  11.426  0.00  0.00    +0.000 A 
ATOM      6  N   UNL     1      43.453   2.809  10.999  0.00  0.00    +0.000 NA
ATOM      7  C   UNL     1      44.220   2.424   9.949  0.00  0.00    +0.000 A 
ATOM      8  C   UNL     1      45.121   3.244   9.266  0.00  0.00    +0.000 A 
ATOM      9  C   UNL     1      45.222   4.559   9.749  0.00  0.00    +0.000 A 
BRANCH   8  10
ATOM     10  C   UNL     1      45.907   2.766   8.110  0.00  0.00    +0.000 A 
ATOM     11  C   UNL     1      46.200   3.585   7.009  0.00  0.00    +0.000 A 
ATOM     12  C   UNL     1      46.934   3.096   5.928  0.00  0.00    +0.000 A 
ATOM     13  C   UNL     1      47.376   1.787   5.973  0.00  0.00    +0.000 A 
ATOM     14  N   UNL     1      47.127   0.955   7.003  0.00  0.00    +0.000 NA
ATOM     15  C   UNL     1      46.404   1.460   8.033  0.00  0.00    +0.000 A 
ENDBRANCH   8  10
ENDBRANCH   1   4
BRANCH   1  16
ATOM     16  C   UNL     1      45.068   6.421  12.812  0.00  0.00    +0.000 C 
BRANCH  16  17
ATOM     17  O   UNL     1      46.492   6.241  12.836  0.00  0.00    +0.000 OA
BRANCH  17  21
ATOM     18  C   UNL     1      47.895   4.353  16.203  0.00  0.00    +0.000 A 
ATOM     19  C   UNL     1      48.438   5.600  15.920  0.00  0.00    +0.000 A 
ATOM     20  C   UNL     1      47.995   6.278  14.782  0.00  0.00    +0.000 A 
ATOM     21  C   UNL     1      47.026   5.697  13.970  0.00  0.00    +0.000 A 
ATOM     22  C   UNL     1      46.545   4.442  14.338  0.00  0.00    +0.000 A 
ATOM     23  N   UNL     1      46.953   3.747  15.431  0.00  0.00    +0.000 NA
BRANCH  18  25
ATOM     24  N   UNL     1      47.379   2.971  18.128  0.00  0.00    +0.000 N 
ATOM     25  C   UNL     1      48.358   3.611  17.418  0.00  0.00    +0.000 C 
ATOM     26  O   UNL     1      49.533   3.570  17.757  0.00  0.00    +0.000 OA
ATOM     27  H   UNL     1      47.627   2.441  18.951  0.00  0.00    +0.000 HD
ATOM     28  H   UNL     1      46.417   3.013  17.809  0.00  0.00    +0.000 HD
ENDBRANCH  18  25
ENDBRANCH  17  21
ENDBRANCH  16  17
ENDBRANCH   1  16
TORSDOF 6
ENDMDL
MODEL 4
REMARK VINA RESULT:    -7.688      1.791      2.413
REMARK INTER + INTRA:         -11.399
REMARK INTER:                 -10.535
REMARK INTRA:                  -0.864
REMARK UNBOUND:                -1.014
REMARK  Name = 
REMARK  6 active torsions:
REMARK  status: ('A' for Active; 'I' for Inactive)
REMARK    1  A    between atoms: C_2  and  C_4
REMARK    2  A    between atoms: C_7  and  O_8
REMARK    3  A    between atoms: O_8  and  C_9
REMARK    4  A    between atoms: C_9  and  C_10
REMARK    5  A    between atoms: C_10  and  C_13
REMARK    6  A    between atoms: C_17  and  C_18
REMARK                            x       y       z     vdW  Elec       q    Type
REMARK                         _______ _______ _______ _____ _____    ______ ____
ROOT
ATOM      1  C   UNL     1      42.813   5.351  12.094  0.00  0.00    +0.000 C 
ATOM      2  F   UNL     1      41.520   5.616  11.744  0.00  0.00    +0.000 F 
ATOM      3  F   UNL     1      42.766   4.969  13.405  0.00  0.00    +0.000 F 
ENDROOT
BRANCH   1   4
ATOM      4  C   UNL     1      43.696   6.557  11.894  0.00  0.00    +0.000 A 
ATOM      5  C   UNL     1      43.211   7.690  11.260  0.00  0.00    +0.000 A 
ATOM      6  N   UNL     1      43.942   8.807  11.067  0.00  0.00    +0.000 NA
ATOM      7  C   UNL     1      45.222   8.790  11.513  0.00  0.00    +0.000 A 
ATOM      8  C   UNL     1      45.830   7.721  12.176  0.00  0.00    +0.000 A 
ATOM      9  C   UNL     1      45.021   6.587  12.356  0.00  0.00    +0.000 A 
BRANCH   8  10
ATOM     10  C   UNL     1      47.224   7.780  12.661  0.00  0.00    +0.000 A 
ATOM     11  C   UNL     1      48.307   7.326  11.894  0.00  0.00    +0.000 A 
ATOM     12  C   UNL     1      49.610   7.385  12.389  0.00  0.00    +0.000 A 
ATOM     13  C   UNL     1      49.810   7.912  13.651  0.00  0.00    +0.000 A 
ATOM     14  N   UNL     1      48.809   8.365  14.432  0.00  0.00    +0.000 NA
ATOM     15  C   UNL     1      47.555   8.286  13.923  0.00  0.00    +0.000 A 
ENDBRANCH   8  10
ENDBRANCH   1   4
BRANCH   1  16
ATOM     16  C   UNL     1      43.315   4.164  11.252  0.00  0.00    +0.000 C 
BRANCH  16  17
ATOM     17  O   UNL     1      43.612   4.588   9.913  0.00  0.00    +0.000 OA
BRANCH  17  21
ATOM     18  C   UNL     1      46.263   2.107   7.993  0.00  0.00    +0.000 A 
ATOM     19  C   UNL     1      46.351   3.461   7.691  0.00  0.00    +0.000 A 
ATOM     20  C   UNL     1      45.466   4.342   8.316  0.00  0.00    +0.000 A 
ATOM     21  C   UNL     1      44.531   3.851   9.221  0.00  0.00    +0.000 A 
ATOM     22  C   UNL     1      44.522   2.477   9.455  0.00  0.00    +0.000 A 
ATOM     23  N   UNL     1      45.358   1.585   8.865  0.00  0.00    +0.000 NA
BRANCH  18  25
ATOM     24  N   UNL     1      48.147   1.708   6.519  0.00  0.00    +0.000 N 
ATOM     25  C   UNL     1      47.202   1.146   7.332  0.00  0.00    +0.000 C 
ATOM     26  O   UNL     1      47.137  -0.064   7.507  0.00  0.00    +0.000 OA
ATOM     27  H   UNL     1      48.820   1.116   6.055  0.00  0.00    +0.000 HD
ATOM     28  H   UNL     1      48.183   2.716   6.410  0.00  0.00    +0.000 HD
ENDBRANCH  18  25
ENDBRANCH  17  21
ENDBRANCH  16  17
ENDBRANCH   1  16
TORSDOF 6
ENDMDL
MODEL 5
REMARK VINA RESULT:    -7.218      1.909      2.276
REMARK INTER + INTRA:         -10.764
REMARK INTER:                 -10.084
REMARK INTRA:                  -0.680
REMARK UNBOUND:                -1.014
REMARK  Name = 
REMARK  6 active torsions:
REMARK  status: ('A' for Active; 'I' for Inactive)
REMARK    1  A    between atoms: C_2  and  C_4
REMARK    2  A    between atoms: C_7  and  O_8
REMARK    3  A    between atoms: O_8  and  C_9
REMARK    4  A    between atoms: C_9  and  C_10
REMARK    5  A    between atoms: C_10  and  C_13
REMARK    6  A    between atoms: C_17  and  C_18
REMARK                            x       y       z     vdW  Elec       q    Type
REMARK                         _______ _______ _______ _____ _____    ______ ____
ROOT
ATOM      1  C   UNL     1      44.757   5.890  11.863  0.00  0.00    +0.000 C 
ATOM      2  F   UNL     1      45.022   6.569  10.708  0.00  0.00    +0.000 F 
ATOM      3  F   UNL     1      43.643   6.481  12.388  0.00  0.00    +0.000 F 
ENDROOT
BRANCH   1   4
ATOM      4  C   UNL     1      45.924   5.950  12.816  0.00  0.00    +0.000 A 
ATOM      5  C   UNL     1      46.311   4.827  13.531  0.00  0.00    +0.000 A 
ATOM      6  N   UNL     1      47.356   4.809  14.383  0.00  0.00    +0.000 NA
ATOM      7  C   UNL     1      48.041   5.968  14.543  0.00  0.00    +0.000 A 
ATOM      8  C   UNL     1      47.765   7.165  13.877  0.00  0.00    +0.000 A 
ATOM      9  C   UNL     1      46.671   7.124  12.997  0.00  0.00    +0.000 A 
BRANCH   8  10
ATOM     10  C   UNL     1      48.570   8.386  14.078  0.00  0.00    +0.000 A 
ATOM     11  C   UNL     1      48.531   9.126  15.270  0.00  0.00    +0.000 A 
ATOM     12  C   UNL     1      49.296  10.283  15.420  0.00  0.00    +0.000 A 
ATOM     13  C   UNL     1      50.103  10.678  14.369  0.00  0.00    +0.000 A 
ATOM     14  N   UNL     1      50.183  10.007  13.204  0.00  0.00    +0.000 NA
ATOM     15  C   UNL     1      49.421   8.892  13.089  0.00  0.00    +0.000 A 
ENDBRANCH   8  10
ENDBRANCH   1   4
BRANCH   1  16
ATOM     16  C   UNL     1      44.421   4.430  11.507  0.00  0.00    +0.000 C 
BRANCH  16  17
ATOM     17  O   UNL     1      44.005   4.330  10.137  0.00  0.00    +0.000 OA
BRANCH  17  21
ATOM     18  C   UNL     1      46.662   2.769   7.421  0.00  0.00    +0.000 A 
ATOM     19  C   UNL     1      46.003   1.858   8.238  0.00  0.00    +0.000 A 
ATOM     20  C   UNL     1      45.094   2.343   9.180  0.00  0.00    +0.000 A 
ATOM     21  C   UNL     1      44.866   3.712   9.274  0.00  0.00    +0.000 A 
ATOM     22  C   UNL     1      45.577   4.544   8.412  0.00  0.00    +0.000 A 
ATOM     23  N   UNL     1      46.474   4.115   7.487  0.00  0.00    +0.000 NA
BRANCH  18  25
ATOM     24  N   UNL     1      47.779   3.043   5.286  0.00  0.00    +0.000 N 
ATOM     25  C   UNL     1      47.641   2.268   6.405  0.00  0.00    +0.000 C 
ATOM     26  O   UNL     1      48.282   1.237   6.560  0.00  0.00    +0.000 OA
ATOM     27  H   UNL     1      48.434   2.768   4.569  0.00  0.00    +0.000 HD
ATOM     28  H   UNL     1      47.244   3.900   5.198  0.00  0.00    +0.000 HD
ENDBRANCH  18  25
ENDBRANCH  17  21
ENDBRANCH  16  17
ENDBRANCH   1  16
TORSDOF 6
ENDMDL
MODEL 6
REMARK VINA RESULT:    -7.105      4.036      8.294
REMARK INTER + INTRA:         -10.612
REMARK INTER:                 -10.028
REMARK INTRA:                  -0.583
REMARK UNBOUND:                -1.014
REMARK  Name = 
REMARK  6 active torsions:
REMARK  status: ('A' for Active; 'I' for Inactive)
REMARK    1  A    between atoms: C_2  and  C_4
REMARK    2  A    between atoms: C_7  and  O_8
REMARK    3  A    between atoms: O_8  and  C_9
REMARK    4  A    between atoms: C_9  and  C_10
REMARK    5  A    between atoms: C_10  and  C_13
REMARK    6  A    between atoms: C_17  and  C_18
REMARK                            x       y       z     vdW  Elec       q    Type
REMARK                         _______ _______ _______ _____ _____    ______ ____
ROOT
ATOM      1  C   UNL     1      45.598   5.127  12.776  0.00  0.00    +0.000 C 
ATOM      2  F   UNL     1      44.616   5.935  13.275  0.00  0.00    +0.000 F 
ATOM      3  F   UNL     1      46.517   5.970  12.218  0.00  0.00    +0.000 F 
ENDROOT
BRANCH   1   4
ATOM      4  C   UNL     1      45.048   4.151  11.767  0.00  0.00    +0.000 A 
ATOM      5  C   UNL     1      43.831   3.524  11.982  0.00  0.00    +0.000 A 
ATOM      6  N   UNL     1      43.275   2.657  11.112  0.00  0.00    +0.000 NA
ATOM      7  C   UNL     1      43.972   2.389   9.979  0.00  0.00    +0.000 A 
ATOM      8  C   UNL     1      45.201   2.957   9.636  0.00  0.00    +0.000 A 
ATOM      9  C   UNL     1      45.729   3.859  10.575  0.00  0.00    +0.000 A 
BRANCH   8  10
ATOM     10  C   UNL     1      45.893   2.641   8.371  0.00  0.00    +0.000 A 
ATOM     11  C   UNL     1      46.091   3.596   7.362  0.00  0.00    +0.000 A 
ATOM     12  C   UNL     1      46.738   3.258   6.173  0.00  0.00    +0.000 A 
ATOM     13  C   UNL     1      47.190   1.961   6.016  0.00  0.00    +0.000 A 
ATOM     14  N   UNL     1      47.030   1.003   6.950  0.00  0.00    +0.000 NA
ATOM     15  C   UNL     1      46.390   1.363   8.090  0.00  0.00    +0.000 A 
ENDBRANCH   8  10
ENDBRANCH   1   4
BRANCH   1  16
ATOM     16  C   UNL     1      46.261   4.381  13.949  0.00  0.00    +0.000 C 
BRANCH  16  17
ATOM     17  O   UNL     1      47.402   5.110  14.428  0.00  0.00    +0.000 OA
BRANCH  17  21
ATOM     18  C   UNL     1      48.706   4.699  18.301  0.00  0.00    +0.000 A 
ATOM     19  C   UNL     1      47.977   3.639  17.777  0.00  0.00    +0.000 A 
ATOM     20  C   UNL     1      47.508   3.735  16.465  0.00  0.00    +0.000 A 
ATOM     21  C   UNL     1      47.784   4.877  15.719  0.00  0.00    +0.000 A 
ATOM     22  C   UNL     1      48.522   5.886  16.335  0.00  0.00    +0.000 A 
ATOM     23  N   UNL     1      48.990   5.835  17.608  0.00  0.00    +0.000 NA
BRANCH  18  25
ATOM     24  N   UNL     1      48.270   4.381  20.665  0.00  0.00    +0.000 N 
ATOM     25  C   UNL     1      49.216   4.615  19.706  0.00  0.00    +0.000 C 
ATOM     26  O   UNL     1      50.401   4.740  19.985  0.00  0.00    +0.000 OA
ATOM     27  H   UNL     1      48.551   4.299  21.632  0.00  0.00    +0.000 HD
ATOM     28  H   UNL     1      47.299   4.265  20.397  0.00  0.00    +0.000 HD
ENDBRANCH  18  25
ENDBRANCH  17  21
ENDBRANCH  16  17
ENDBRANCH   1  16
TORSDOF 6
ENDMDL
MODEL 7
REMARK VINA RESULT:    -6.998      3.233      7.316
REMARK INTER + INTRA:         -10.467
REMARK INTER:                  -9.753
REMARK INTRA:                  -0.714
REMARK UNBOUND:                -1.014
REMARK  Name = 
REMARK  6 active torsions:
REMARK  status: ('A' for Active; 'I' for Inactive)
REMARK    1  A    between atoms: C_2  and  C_4
REMARK    2  A    between atoms: C_7  and  O_8
REMARK    3  A    between atoms: O_8  and  C_9
REMARK    4  A    between atoms: C_9  and  C_10
REMARK    5  A    between atoms: C_10  and  C_13
REMARK    6  A    between atoms: C_17  and  C_18
REMARK                            x       y       z     vdW  Elec       q    Type
REMARK                         _______ _______ _______ _____ _____    ______ ____
ROOT
ATOM      1  C   UNL     1      44.717   6.002  11.859  0.00  0.00    +0.000 C 
ATOM      2  F   UNL     1      44.876   5.854  13.208  0.00  0.00    +0.000 F 
ATOM      3  F   UNL     1      43.625   6.807  11.706  0.00  0.00    +0.000 F 
ENDROOT
BRANCH   1   4
ATOM      4  C   UNL     1      44.532   4.669  11.178  0.00  0.00    +0.000 A 
ATOM      5  C   UNL     1      43.590   3.764  11.640  0.00  0.00    +0.000 A 
ATOM      6  N   UNL     1      43.362   2.566  11.065  0.00  0.00    +0.000 NA
ATOM      7  C   UNL     1      44.118   2.247   9.986  0.00  0.00    +0.000 A 
ATOM      8  C   UNL     1      45.092   3.069   9.413  0.00  0.00    +0.000 A 
ATOM      9  C   UNL     1      45.281   4.307  10.048  0.00  0.00    +0.000 A 
BRANCH   8  10
ATOM     10  C   UNL     1      45.861   2.669   8.218  0.00  0.00    +0.000 A 
ATOM     11  C   UNL     1      46.089   3.542   7.143  0.00  0.00    +0.000 A 
ATOM     12  C   UNL     1      46.810   3.126   6.023  0.00  0.00    +0.000 A 
ATOM     13  C   UNL     1      47.304   1.835   6.002  0.00  0.00    +0.000 A 
ATOM     14  N   UNL     1      47.119   0.955   7.005  0.00  0.00    +0.000 NA
ATOM     15  C   UNL     1      46.407   1.389   8.075  0.00  0.00    +0.000 A 
ENDBRANCH   8  10
ENDBRANCH   1   4
BRANCH   1  16
ATOM     16  C   UNL     1      45.951   6.732  11.298  0.00  0.00    +0.000 C 
BRANCH  16  17
ATOM     17  O   UNL     1      46.281   7.864  12.117  0.00  0.00    +0.000 OA
BRANCH  17  21
ATOM     18  C   UNL     1      50.081   8.242  13.628  0.00  0.00    +0.000 A 
ATOM     19  C   UNL     1      49.974   8.091  12.251  0.00  0.00    +0.000 A 
ATOM     20  C   UNL     1      48.702   7.954  11.692  0.00  0.00    +0.000 A 
ATOM     21  C   UNL     1      47.582   7.977  12.518  0.00  0.00    +0.000 A 
ATOM     22  C   UNL     1      47.795   8.131  13.887  0.00  0.00    +0.000 A 
ATOM     23  N   UNL     1      49.013   8.261  14.471  0.00  0.00    +0.000 NA
BRANCH  18  25
ATOM     24  N   UNL     1      51.814   7.381  15.090  0.00  0.00    +0.000 N 
ATOM     25  C   UNL     1      51.437   8.389  14.247  0.00  0.00    +0.000 C 
ATOM     26  O   UNL     1      52.167   9.344  14.013  0.00  0.00    +0.000 OA
ATOM     27  H   UNL     1      52.723   7.414  15.529  0.00  0.00    +0.000 HD
ATOM     28  H   UNL     1      51.191   6.597  15.248  0.00  0.00    +0.000 HD
ENDBRANCH  18  25
ENDBRANCH  17  21
ENDBRANCH  16  17
ENDBRANCH   1  16
TORSDOF 6
ENDMDL
MODEL 8
REMARK VINA RESULT:    -6.760      3.871      7.686
REMARK INTER + INTRA:         -10.146
REMARK INTER:                  -9.197
REMARK INTRA:                  -0.949
REMARK UNBOUND:                -1.014
REMARK  Name = 
REMARK  6 active torsions:
REMARK  status: ('A' for Active; 'I' for Inactive)
REMARK    1  A    between atoms: C_2  and  C_4
REMARK    2  A    between atoms: C_7  and  O_8
REMARK    3  A    between atoms: O_8  and  C_9
REMARK    4  A    between atoms: C_9  and  C_10
REMARK    5  A    between atoms: C_10  and  C_13
REMARK    6  A    between atoms: C_17  and  C_18
REMARK                            x       y       z     vdW  Elec       q    Type
REMARK                         _______ _______ _______ _____ _____    ______ ____
ROOT
ATOM      1  C   UNL     1      48.476   8.370  12.407  0.00  0.00    +0.000 C 
ATOM      2  F   UNL     1      48.787   9.576  11.846  0.00  0.00    +0.000 F 
ATOM      3  F   UNL     1      49.400   7.491  11.918  0.00  0.00    +0.000 F 
ENDROOT
BRANCH   1   4
ATOM      4  C   UNL     1      47.068   7.951  12.065  0.00  0.00    +0.000 A 
ATOM      5  C   UNL     1      45.998   8.793  12.323  0.00  0.00    +0.000 A 
ATOM      6  N   UNL     1      44.719   8.486  12.025  0.00  0.00    +0.000 NA
ATOM      7  C   UNL     1      44.493   7.277  11.455  0.00  0.00    +0.000 A 
ATOM      8  C   UNL     1      45.478   6.341  11.133  0.00  0.00    +0.000 A 
ATOM      9  C   UNL     1      46.792   6.716  11.459  0.00  0.00    +0.000 A 
BRANCH   8  10
ATOM     10  C   UNL     1      45.163   5.051  10.487  0.00  0.00    +0.000 A 
ATOM     11  C   UNL     1      45.517   4.768   9.158  0.00  0.00    +0.000 A 
ATOM     12  C   UNL     1      45.191   3.544   8.575  0.00  0.00    +0.000 A 
ATOM     13  C   UNL     1      44.521   2.609   9.342  0.00  0.00    +0.000 A 
ATOM     14  N   UNL     1      44.158   2.823  10.622  0.00  0.00    +0.000 NA
ATOM     15  C   UNL     1      44.483   4.027  11.155  0.00  0.00    +0.000 A 
ENDBRANCH   8  10
ENDBRANCH   1   4
BRANCH   1  16
ATOM     16  C   UNL     1      48.655   8.478  13.932  0.00  0.00    +0.000 C 
BRANCH  16  17
ATOM     17  O   UNL     1      49.642   7.542  14.390  0.00  0.00    +0.000 OA
BRANCH  17  21
ATOM     18  C   UNL     1      48.174   4.617  16.871  0.00  0.00    +0.000 A 
ATOM     19  C   UNL     1      49.206   5.398  17.377  0.00  0.00    +0.000 A 
ATOM     20  C   UNL     1      49.741   6.402  16.567  0.00  0.00    +0.000 A 
ATOM     21  C   UNL     1      49.229   6.599  15.288  0.00  0.00    +0.000 A 
ATOM     22  C   UNL     1      48.194   5.763  14.872  0.00  0.00    +0.000 A 
ATOM     23  N   UNL     1      47.651   4.772  15.624  0.00  0.00    +0.000 NA
BRANCH  18  25
ATOM     24  N   UNL     1      48.272   3.253  18.874  0.00  0.00    +0.000 N 
ATOM     25  C   UNL     1      47.587   3.535  17.724  0.00  0.00    +0.000 C 
ATOM     26  O   UNL     1      46.561   2.941  17.421  0.00  0.00    +0.000 OA
ATOM     27  H   UNL     1      47.922   2.542  19.500  0.00  0.00    +0.000 HD
ATOM     28  H   UNL     1      49.110   3.776  19.102  0.00  0.00    +0.000 HD
ENDBRANCH  18  25
ENDBRANCH  17  21
ENDBRANCH  16  17
ENDBRANCH   1  16
TORSDOF 6
ENDMDL
MODEL 9
REMARK VINA RESULT:    -6.384      5.208      7.676
REMARK INTER + INTRA:          -9.637
REMARK INTER:                  -8.744
REMARK INTRA:                  -0.893
REMARK UNBOUND:                -1.014
REMARK  Name = 
REMARK  6 active torsions:
REMARK  status: ('A' for Active; 'I' for Inactive)
REMARK    1  A    between atoms: C_2  and  C_4
REMARK    2  A    between atoms: C_7  and  O_8
REMARK    3  A    between atoms: O_8  and  C_9
REMARK    4  A    between atoms: C_9  and  C_10
REMARK    5  A    between atoms: C_10  and  C_13
REMARK    6  A    between atoms: C_17  and  C_18
REMARK                            x       y       z     vdW  Elec       q    Type
REMARK                         _______ _______ _______ _____ _____    ______ ____
ROOT
ATOM      1  C   UNL     1      49.509   7.504  15.952  0.00  0.00    +0.000 C 
ATOM      2  F   UNL     1      50.753   7.569  15.391  0.00  0.00    +0.000 F 
ATOM      3  F   UNL     1      49.358   8.672  16.643  0.00  0.00    +0.000 F 
ENDROOT
BRANCH   1   4
ATOM      4  C   UNL     1      49.373   6.300  16.849  0.00  0.00    +0.000 A 
ATOM      5  C   UNL     1      48.263   6.148  17.664  0.00  0.00    +0.000 A 
ATOM      6  N   UNL     1      48.072   5.087  18.474  0.00  0.00    +0.000 NA
ATOM      7  C   UNL     1      49.040   4.138  18.484  0.00  0.00    +0.000 A 
ATOM      8  C   UNL     1      50.201   4.162  17.707  0.00  0.00    +0.000 A 
ATOM      9  C   UNL     1      50.344   5.286  16.877  0.00  0.00    +0.000 A 
BRANCH   8  10
ATOM     10  C   UNL     1      51.203   3.078  17.747  0.00  0.00    +0.000 A 
ATOM     11  C   UNL     1      52.505   3.275  18.233  0.00  0.00    +0.000 A 
ATOM     12  C   UNL     1      53.431   2.232  18.244  0.00  0.00    +0.000 A 
ATOM     13  C   UNL     1      53.031   0.994  17.774  0.00  0.00    +0.000 A 
ATOM     14  N   UNL     1      51.796   0.746  17.299  0.00  0.00    +0.000 NA
ATOM     15  C   UNL     1      50.923   1.784  17.295  0.00  0.00    +0.000 A 
ENDBRANCH   8  10
ENDBRANCH   1   4
BRANCH   1  16
ATOM     16  C   UNL     1      48.464   7.460  14.822  0.00  0.00    +0.000 C 
BRANCH  16  17
ATOM     17  O   UNL     1      48.608   6.258  14.049  0.00  0.00    +0.000 OA
BRANCH  17  21
ATOM     18  C   UNL     1      45.184   4.457  12.672  0.00  0.00    +0.000 A 
ATOM     19  C   UNL     1      45.682   5.506  11.910  0.00  0.00    +0.000 A 
ATOM     20  C   UNL     1      46.842   6.153  12.341  0.00  0.00    +0.000 A 
ATOM     21  C   UNL     1      47.469   5.731  13.510  0.00  0.00    +0.000 A 
ATOM     22  C   UNL     1      46.891   4.671  14.205  0.00  0.00    +0.000 A 
ATOM     23  N   UNL     1      45.762   4.020  13.824  0.00  0.00    +0.000 NA
BRANCH  18  25
ATOM     24  N   UNL     1      43.843   2.438  12.594  0.00  0.00    +0.000 N 
ATOM     25  C   UNL     1      43.941   3.751  12.225  0.00  0.00    +0.000 C 
ATOM     26  O   UNL     1      43.065   4.308  11.577  0.00  0.00    +0.000 OA
ATOM     27  H   UNL     1      43.022   1.909  12.336  0.00  0.00    +0.000 HD
ATOM     28  H   UNL     1      44.580   2.012  13.145  0.00  0.00    +0.000 HD
ENDBRANCH  18  25
ENDBRANCH  17  21
ENDBRANCH  16  17
ENDBRANCH   1  16
TORSDOF 6
ENDMDL
