MODEL 1
REMARK VINA RESULT:    -9.229      0.000      0.000
REMARK INTER + INTRA:         -12.366
REMARK INTER:                 -11.927
REMARK INTRA:                  -0.440
REMARK UNBOUND:                -0.440
REMARK  Name = 
REMARK  5 active torsions:
REMARK  status: ('A' for Active; 'I' for Inactive)
REMARK    1  A    between atoms: C_2  and  C_4
REMARK    2  A    between atoms: C_7  and  C_8
REMARK    3  A    between atoms: C_12  and  C_13
REMARK    4  A    between atoms: C_13  and  N_14
REMARK    5  A    between atoms: C_20  and  C_21
REMARK                            x       y       z     vdW  Elec       q    Type
REMARK                         _______ _______ _______ _____ _____    ______ ____
ROOT
ATOM      1  C   UNL     1      44.311   5.494  10.947  0.00  0.00    +0.000 C 
ATOM      2  C   UNL     1      42.897   6.017  11.209  0.00  0.00    +0.000 C 
ATOM      3  C   UNL     1      43.296   4.690  11.745  0.00  0.00    +0.000 C 
ATOM      4  F   UNL     1      42.655   3.605  11.172  0.00  0.00    +0.000 F 
ENDROOT
BRANCH   1   5
ATOM      5  N   UNL     1      44.667   5.178   9.542  0.00  0.00    +0.000 N 
ATOM      6  C   UNL     1      45.208   3.961   9.106  0.00  0.00    +0.000 A 
ATOM      7  C   UNL     1      44.917   2.736   9.701  0.00  0.00    +0.000 A 
ATOM      8  C   UNL     1      45.359   1.547   9.118  0.00  0.00    +0.000 A 
ATOM      9  C   UNL     1      46.117   1.604   7.963  0.00  0.00    +0.000 A 
ATOM     10  F   UNL     1      46.525   0.460   7.399  0.00  0.00    +0.000 F 
ATOM     11  C   UNL     1      46.413   2.852   7.443  0.00  0.00    +0.000 A 
ATOM     12  N   UNL     1      45.966   4.033   7.988  0.00  0.00    +0.000 NA
ATOM     13  H   UNL     1      45.093   5.914   8.986  0.00  0.00    +0.000 HD
BRANCH  11  14
ATOM     14  C   UNL     1      47.258   2.972   6.216  0.00  0.00    +0.000 C 
ATOM     15  N   UNL     1      48.599   2.752   6.404  0.00  0.00    +0.000 N 
ATOM     16  O   UNL     1      46.825   3.237   5.103  0.00  0.00    +0.000 OA
ATOM     17  H   UNL     1      48.955   2.535   7.326  0.00  0.00    +0.000 HD
ATOM     18  H   UNL     1      49.219   2.815   5.610  0.00  0.00    +0.000 HD
ENDBRANCH  11  14
ENDBRANCH   1   5
BRANCH   1  23
ATOM     19  C   UNL     1      46.906   6.111  13.529  0.00  0.00    +0.000 A 
ATOM     20  N   UNL     1      47.348   7.361  13.316  0.00  0.00    +0.000 NA
ATOM     21  C   UNL     1      46.811   8.012  12.271  0.00  0.00    +0.000 A 
ATOM     22  C   UNL     1      45.853   7.463  11.449  0.00  0.00    +0.000 A 
ATOM     23  C   UNL     1      45.429   6.176  11.745  0.00  0.00    +0.000 A 
ATOM     24  N   UNL     1      45.963   5.501  12.783  0.00  0.00    +0.000 NA
BRANCH  19  28
ATOM     25  C   UNL     1      48.483   3.863  16.746  0.00  0.00    +0.000 A 
ATOM     26  C   UNL     1      48.796   5.212  16.681  0.00  0.00    +0.000 A 
ATOM     27  C   UNL     1      48.283   5.947  15.616  0.00  0.00    +0.000 A 
ATOM     28  C   UNL     1      47.470   5.343  14.642  0.00  0.00    +0.000 A 
ATOM     29  C   UNL     1      47.231   3.978  14.807  0.00  0.00    +0.000 A 
ATOM     30  N   UNL     1      47.715   3.217  15.825  0.00  0.00    +0.000 NA
BRANCH  25  32
ATOM     31  N   UNL     1      48.299   3.157  19.054  0.00  0.00    +0.000 N 
ATOM     32  C   UNL     1      49.001   3.046  17.887  0.00  0.00    +0.000 C 
ATOM     33  O   UNL     1      49.985   2.323  17.791  0.00  0.00    +0.000 OA
ATOM     34  H   UNL     1      48.595   2.637  19.866  0.00  0.00    +0.000 HD
ATOM     35  H   UNL     1      47.486   3.763  19.092  0.00  0.00    +0.000 HD
ENDBRANCH  25  32
ENDBRANCH  19  28
ENDBRANCH   1  23
TORSDOF 5
ENDMDL
MODEL 2
REMARK VINA RESULT:    -8.021      4.441      8.991
REMARK INTER + INTRA:         -10.806
REMARK INTER:                  -9.912
REMARK INTRA:                  -0.894
REMARK UNBOUND:                -0.440
REMARK  Name = 
REMARK  5 active torsions:
REMARK  status: ('A' for Active; 'I' for Inactive)
REMARK    1  A    between atoms: C_2  and  C_4
REMARK    2  A    between atoms: C_7  and  C_8
REMARK    3  A    between atoms: C_12  and  C_13
REMARK    4  A    between atoms: C_13  and  N_14
REMARK    5  A    between atoms: C_20  and  C_21
REMARK                            x       y       z     vdW  Elec       q    Type
REMARK                         _______ _______ _______ _____ _____    ______ ____
ROOT
ATOM      1  C   UNL     1      49.101   6.083  17.714  0.00  0.00    +0.000 C 
ATOM      2  C   UNL     1      47.939   6.639  18.539  0.00  0.00    +0.000 C 
ATOM      3  C   UNL     1      49.274   7.283  18.633  0.00  0.00    +0.000 C 
ATOM      4  F   UNL     1      49.912   7.143  19.854  0.00  0.00    +0.000 F 
ENDROOT
BRANCH   1   5
ATOM      5  N   UNL     1      49.588   4.725  18.058  0.00  0.00    +0.000 N 
ATOM      6  C   UNL     1      50.916   4.295  17.940  0.00  0.00    +0.000 A 
ATOM      7  C   UNL     1      52.012   5.137  18.109  0.00  0.00    +0.000 A 
ATOM      8  C   UNL     1      53.305   4.612  18.139  0.00  0.00    +0.000 A 
ATOM      9  C   UNL     1      53.486   3.253  17.965  0.00  0.00    +0.000 A 
ATOM     10  F   UNL     1      54.727   2.753  18.011  0.00  0.00    +0.000 F 
ATOM     11  C   UNL     1      52.363   2.473  17.755  0.00  0.00    +0.000 A 
ATOM     12  N   UNL     1      51.078   2.966  17.747  0.00  0.00    +0.000 NA
ATOM     13  H   UNL     1      48.993   3.936  17.820  0.00  0.00    +0.000 HD
BRANCH  11  14
ATOM     14  C   UNL     1      52.504   1.002  17.525  0.00  0.00    +0.000 C 
ATOM     15  N   UNL     1      51.563   0.218  18.143  0.00  0.00    +0.000 N 
ATOM     16  O   UNL     1      53.377   0.492  16.835  0.00  0.00    +0.000 OA
ATOM     17  H   UNL     1      50.843   0.643  18.715  0.00  0.00    +0.000 HD
ATOM     18  H   UNL     1      51.605  -0.782  18.020  0.00  0.00    +0.000 HD
ENDBRANCH  11  14
ENDBRANCH   1   5
BRANCH   1  23
ATOM     19  C   UNL     1      48.094   5.924  14.145  0.00  0.00    +0.000 A 
ATOM     20  N   UNL     1      48.946   6.725  13.485  0.00  0.00    +0.000 NA
ATOM     21  C   UNL     1      49.856   7.371  14.233  0.00  0.00    +0.000 A 
ATOM     22  C   UNL     1      49.943   7.236  15.600  0.00  0.00    +0.000 A 
ATOM     23  C   UNL     1      49.045   6.373  16.209  0.00  0.00    +0.000 A 
ATOM     24  N   UNL     1      48.117   5.723  15.477  0.00  0.00    +0.000 NA
BRANCH  19  28
ATOM     25  C   UNL     1      45.160   3.809  11.953  0.00  0.00    +0.000 A 
ATOM     26  C   UNL     1      45.395   5.132  11.613  0.00  0.00    +0.000 A 
ATOM     27  C   UNL     1      46.354   5.829  12.344  0.00  0.00    +0.000 A 
ATOM     28  C   UNL     1      47.065   5.208  13.385  0.00  0.00    +0.000 A 
ATOM     29  C   UNL     1      46.736   3.876  13.640  0.00  0.00    +0.000 A 
ATOM     30  N   UNL     1      45.803   3.157  12.961  0.00  0.00    +0.000 NA
BRANCH  25  32
ATOM     31  N   UNL     1      44.648   2.291  10.138  0.00  0.00    +0.000 N 
ATOM     32  C   UNL     1      44.148   3.024  11.177  0.00  0.00    +0.000 C 
ATOM     33  O   UNL     1      42.955   3.031  11.450  0.00  0.00    +0.000 OA
ATOM     34  H   UNL     1      44.022   1.741   9.569  0.00  0.00    +0.000 HD
ATOM     35  H   UNL     1      45.644   2.308   9.947  0.00  0.00    +0.000 HD
ENDBRANCH  25  32
ENDBRANCH  19  28
ENDBRANCH   1  23
TORSDOF 5
ENDMDL
MODEL 3
REMARK VINA RESULT:    -7.765      4.181      8.357
REMARK INTER + INTRA:         -10.474
REMARK INTER:                  -9.512
REMARK INTRA:                  -0.963
REMARK UNBOUND:                -0.440
REMARK  Name = 
REMARK  5 active torsions:
REMARK  status: ('A' for Active; 'I' for Inactive)
REMARK    1  A    between atoms: C_2  and  C_4
REMARK    2  A    between atoms: C_7  and  C_8
REMARK    3  A    between atoms: C_12  and  C_13
REMARK    4  A    between atoms: C_13  and  N_14
REMARK    5  A    between atoms: C_20  and  C_21
REMARK                            x       y       z     vdW  Elec       q    Type
REMARK                         _______ _______ _______ _____ _____    ______ ____
ROOT
ATOM      1  C   UNL     1      49.054   8.874  15.836  0.00  0.00    +0.000 C 
ATOM      2  C   UNL     1      48.731  10.327  16.189  0.00  0.00    +0.000 C 
ATOM      3  C   UNL     1      50.146   9.876  16.179  0.00  0.00    +0.000 C 
ATOM      4  F   UNL     1      50.763   9.843  17.417  0.00  0.00    +0.000 F 
ENDROOT
BRANCH   1   5
ATOM      5  N   UNL     1      48.592   7.828  16.781  0.00  0.00    +0.000 N 
ATOM      6  C   UNL     1      49.203   6.580  16.957  0.00  0.00    +0.000 A 
ATOM      7  C   UNL     1      50.572   6.369  16.807  0.00  0.00    +0.000 A 
ATOM      8  C   UNL     1      51.136   5.140  17.155  0.00  0.00    +0.000 A 
ATOM      9  C   UNL     1      50.316   4.128  17.617  0.00  0.00    +0.000 A 
ATOM     10  F   UNL     1      50.866   2.957  17.964  0.00  0.00    +0.000 F 
ATOM     11  C   UNL     1      48.959   4.381  17.701  0.00  0.00    +0.000 A 
ATOM     12  N   UNL     1      48.385   5.591  17.386  0.00  0.00    +0.000 NA
ATOM     13  H   UNL     1      47.590   7.690  16.879  0.00  0.00    +0.000 HD
BRANCH  11  14
ATOM     14  C   UNL     1      48.023   3.309  18.159  0.00  0.00    +0.000 C 
ATOM     15  N   UNL     1      48.169   2.923  19.468  0.00  0.00    +0.000 N 
ATOM     16  O   UNL     1      47.167   2.792  17.453  0.00  0.00    +0.000 OA
ATOM     17  H   UNL     1      48.878   3.352  20.048  0.00  0.00    +0.000 HD
ATOM     18  H   UNL     1      47.561   2.206  19.834  0.00  0.00    +0.000 HD
ENDBRANCH  11  14
ENDBRANCH   1   5
BRANCH   1  23
ATOM     19  C   UNL     1      47.879   7.192  12.743  0.00  0.00    +0.000 A 
ATOM     20  N   UNL     1      48.643   7.672  11.748  0.00  0.00    +0.000 NA
ATOM     21  C   UNL     1      49.547   8.606  12.090  0.00  0.00    +0.000 A 
ATOM     22  C   UNL     1      49.712   9.061  13.379  0.00  0.00    +0.000 A 
ATOM     23  C   UNL     1      48.903   8.502  14.356  0.00  0.00    +0.000 A 
ATOM     24  N   UNL     1      47.982   7.571  14.032  0.00  0.00    +0.000 NA
BRANCH  19  28
ATOM     25  C   UNL     1      44.975   4.246  11.860  0.00  0.00    +0.000 A 
ATOM     26  C   UNL     1      45.221   5.222  10.906  0.00  0.00    +0.000 A 
ATOM     27  C   UNL     1      46.170   6.196  11.204  0.00  0.00    +0.000 A 
ATOM     28  C   UNL     1      46.861   6.186  12.428  0.00  0.00    +0.000 A 
ATOM     29  C   UNL     1      46.522   5.161  13.312  0.00  0.00    +0.000 A 
ATOM     30  N   UNL     1      45.598   4.193  13.070  0.00  0.00    +0.000 NA
BRANCH  25  32
ATOM     31  N   UNL     1      43.742   2.294  12.588  0.00  0.00    +0.000 N 
ATOM     32  C   UNL     1      43.974   3.173  11.568  0.00  0.00    +0.000 C 
ATOM     33  O   UNL     1      43.398   3.081  10.491  0.00  0.00    +0.000 OA
ATOM     34  H   UNL     1      43.082   1.542  12.459  0.00  0.00    +0.000 HD
ATOM     35  H   UNL     1      44.237   2.407  13.467  0.00  0.00    +0.000 HD
ENDBRANCH  25  32
ENDBRANCH  19  28
ENDBRANCH   1  23
TORSDOF 5
ENDMDL
MODEL 4
REMARK VINA RESULT:    -7.499      3.302      7.798
REMARK INTER + INTRA:         -10.131
REMARK INTER:                  -9.364
REMARK INTRA:                  -0.766
REMARK UNBOUND:                -0.440
REMARK  Name = 
REMARK  5 active torsions:
REMARK  status: ('A' for Active; 'I' for Inactive)
REMARK    1  A    between atoms: C_2  and  C_4
REMARK    2  A    between atoms: C_7  and  C_8
REMARK    3  A    between atoms: C_12  and  C_13
REMARK    4  A    between atoms: C_13  and  N_14
REMARK    5  A    between atoms: C_20  and  C_21
REMARK                            x       y       z     vdW  Elec       q    Type
REMARK                         _______ _______ _______ _____ _____    ______ ____
ROOT
ATOM      1  C   UNL     1      44.469   8.268  11.784  0.00  0.00    +0.000 C 
ATOM      2  C   UNL     1      43.404   9.347  11.588  0.00  0.00    +0.000 C 
ATOM      3  C   UNL     1      44.489   9.201  10.584  0.00  0.00    +0.000 C 
ATOM      4  F   UNL     1      45.387  10.253  10.529  0.00  0.00    +0.000 F 
ENDROOT
BRANCH   1   5
ATOM      5  N   UNL     1      45.384   8.421  12.942  0.00  0.00    +0.000 N 
ATOM      6  C   UNL     1      46.740   8.068  12.946  0.00  0.00    +0.000 A 
ATOM      7  C   UNL     1      47.553   8.138  11.817  0.00  0.00    +0.000 A 
ATOM      8  C   UNL     1      48.928   7.929  11.926  0.00  0.00    +0.000 A 
ATOM      9  C   UNL     1      49.467   7.618  13.160  0.00  0.00    +0.000 A 
ATOM     10  F   UNL     1      50.790   7.434  13.262  0.00  0.00    +0.000 F 
ATOM     11  C   UNL     1      48.604   7.517  14.237  0.00  0.00    +0.000 A 
ATOM     12  N   UNL     1      47.250   7.744  14.156  0.00  0.00    +0.000 NA
ATOM     13  H   UNL     1      45.016   8.212  13.866  0.00  0.00    +0.000 HD
BRANCH  11  14
ATOM     14  C   UNL     1      49.130   7.149  15.588  0.00  0.00    +0.000 C 
ATOM     15  N   UNL     1      48.578   7.835  16.639  0.00  0.00    +0.000 N 
ATOM     16  O   UNL     1      49.985   6.296  15.786  0.00  0.00    +0.000 OA
ATOM     17  H   UNL     1      47.873   8.542  16.472  0.00  0.00    +0.000 HD
ATOM     18  H   UNL     1      48.891   7.626  17.575  0.00  0.00    +0.000 HD
ENDBRANCH  11  14
ENDBRANCH   1   5
BRANCH   1  23
ATOM     19  C   UNL     1      44.289   4.841  10.370  0.00  0.00    +0.000 A 
ATOM     20  N   UNL     1      43.192   4.278  10.904  0.00  0.00    +0.000 NA
ATOM     21  C   UNL     1      42.510   5.027  11.786  0.00  0.00    +0.000 A 
ATOM     22  C   UNL     1      42.880   6.305  12.139  0.00  0.00    +0.000 A 
ATOM     23  C   UNL     1      44.010   6.827  11.528  0.00  0.00    +0.000 A 
ATOM     24  N   UNL     1      44.715   6.088  10.648  0.00  0.00    +0.000 NA
BRANCH  19  28
ATOM     25  C   UNL     1      46.604   2.562   7.660  0.00  0.00    +0.000 A 
ATOM     26  C   UNL     1      46.637   3.943   7.541  0.00  0.00    +0.000 A 
ATOM     27  C   UNL     1      45.866   4.690   8.428  0.00  0.00    +0.000 A 
ATOM     28  C   UNL     1      45.086   4.065   9.416  0.00  0.00    +0.000 A 
ATOM     29  C   UNL     1      45.126   2.670   9.433  0.00  0.00    +0.000 A 
ATOM     30  N   UNL     1      45.856   1.898   8.584  0.00  0.00    +0.000 NA
BRANCH  25  32
ATOM     31  N   UNL     1      48.466   2.382   6.124  0.00  0.00    +0.000 N 
ATOM     32  C   UNL     1      47.434   1.728   6.736  0.00  0.00    +0.000 C 
ATOM     33  O   UNL     1      47.212   0.541   6.537  0.00  0.00    +0.000 OA
ATOM     34  H   UNL     1      49.064   1.882   5.484  0.00  0.00    +0.000 HD
ATOM     35  H   UNL     1      48.619   3.366   6.319  0.00  0.00    +0.000 HD
ENDBRANCH  25  32
ENDBRANCH  19  28
ENDBRANCH   1  23
TORSDOF 5
ENDMDL
MODEL 5
REMARK VINA RESULT:    -7.469      3.624      5.472
REMARK INTER + INTRA:         -10.091
REMARK INTER:                  -9.881
REMARK INTRA:                  -0.210
REMARK UNBOUND:                -0.440
REMARK  Name = 
REMARK  5 active torsions:
REMARK  status: ('A' for Active; 'I' for Inactive)
REMARK    1  A    between atoms: C_2  and  C_4
REMARK    2  A    between atoms: C_7  and  C_8
REMARK    3  A    between atoms: C_12  and  C_13
REMARK    4  A    between atoms: C_13  and  N_14
REMARK    5  A    between atoms: C_20  and  C_21
REMARK                            x       y       z     vdW  Elec       q    Type
REMARK                         _______ _______ _______ _____ _____    ______ ____
ROOT
ATOM      1  C   UNL     1      48.245   7.960  13.960  0.00  0.00    +0.000 C 
ATOM      2  C   UNL     1      49.270   7.593  12.886  0.00  0.00    +0.000 C 
ATOM      3  C   UNL     1      49.036   9.022  13.213  0.00  0.00    +0.000 C 
ATOM      4  F   UNL     1      48.437   9.766  12.211  0.00  0.00    +0.000 F 
ENDROOT
BRANCH   1   5
ATOM      5  N   UNL     1      46.822   7.659  13.669  0.00  0.00    +0.000 N 
ATOM      6  C   UNL     1      46.336   6.415  13.243  0.00  0.00    +0.000 A 
ATOM      7  C   UNL     1      46.905   5.201  13.620  0.00  0.00    +0.000 A 
ATOM      8  C   UNL     1      46.276   3.998  13.294  0.00  0.00    +0.000 A 
ATOM      9  C   UNL     1      45.102   4.027  12.565  0.00  0.00    +0.000 A 
ATOM     10  F   UNL     1      44.494   2.870  12.269  0.00  0.00    +0.000 F 
ATOM     11  C   UNL     1      44.609   5.261  12.180  0.00  0.00    +0.000 A 
ATOM     12  N   UNL     1      45.199   6.458  12.512  0.00  0.00    +0.000 NA
ATOM     13  H   UNL     1      46.274   8.373  13.198  0.00  0.00    +0.000 HD
BRANCH  11  14
ATOM     14  C   UNL     1      43.361   5.347  11.360  0.00  0.00    +0.000 C 
ATOM     15  N   UNL     1      42.295   5.951  11.976  0.00  0.00    +0.000 N 
ATOM     16  O   UNL     1      43.258   4.929  10.214  0.00  0.00    +0.000 OA
ATOM     17  H   UNL     1      42.382   6.294  12.924  0.00  0.00    +0.000 HD
ATOM     18  H   UNL     1      41.427   6.042  11.469  0.00  0.00    +0.000 HD
ENDBRANCH  11  14
ENDBRANCH   1   5
BRANCH   1  23
ATOM     19  C   UNL     1      49.606   6.217  16.941  0.00  0.00    +0.000 A 
ATOM     20  N   UNL     1      49.350   7.020  17.987  0.00  0.00    +0.000 NA
ATOM     21  C   UNL     1      48.749   8.188  17.707  0.00  0.00    +0.000 A 
ATOM     22  C   UNL     1      48.393   8.569  16.432  0.00  0.00    +0.000 A 
ATOM     23  C   UNL     1      48.668   7.677  15.407  0.00  0.00    +0.000 A 
ATOM     24  N   UNL     1      49.281   6.504  15.665  0.00  0.00    +0.000 NA
BRANCH  19  28
ATOM     25  C   UNL     1      51.597   2.544  17.604  0.00  0.00    +0.000 A 
ATOM     26  C   UNL     1      50.226   2.512  17.399  0.00  0.00    +0.000 A 
ATOM     27  C   UNL     1      49.572   3.724  17.191  0.00  0.00    +0.000 A 
ATOM     28  C   UNL     1      50.280   4.938  17.182  0.00  0.00    +0.000 A 
ATOM     29  C   UNL     1      51.654   4.846  17.409  0.00  0.00    +0.000 A 
ATOM     30  N   UNL     1      52.335   3.688  17.624  0.00  0.00    +0.000 NA
BRANCH  25  32
ATOM     31  N   UNL     1      51.562   0.189  18.164  0.00  0.00    +0.000 N 
ATOM     32  C   UNL     1      52.336   1.260  17.813  0.00  0.00    +0.000 C 
ATOM     33  O   UNL     1      53.549   1.165  17.679  0.00  0.00    +0.000 OA
ATOM     34  H   UNL     1      51.995  -0.708  18.325  0.00  0.00    +0.000 HD
ATOM     35  H   UNL     1      50.559   0.308  18.260  0.00  0.00    +0.000 HD
ENDBRANCH  25  32
ENDBRANCH  19  28
ENDBRANCH   1  23
TORSDOF 5
ENDMDL
MODEL 6
REMARK VINA RESULT:    -7.072      1.955      2.189
REMARK INTER + INTRA:          -9.578
REMARK INTER:                 -10.666
REMARK INTRA:                   1.088
REMARK UNBOUND:                -0.440
REMARK  Name = 
REMARK  5 active torsions:
REMARK  status: ('A' for Active; 'I' for Inactive)
REMARK    1  A    between atoms: C_2  and  C_4
REMARK    2  A    between atoms: C_7  and  C_8
REMARK    3  A    between atoms: C_12  and  C_13
REMARK    4  A    between atoms: C_13  and  N_14
REMARK    5  A    between atoms: C_20  and  C_21
REMARK                            x       y       z     vdW  Elec       q    Type
REMARK                         _______ _______ _______ _____ _____    ______ ____
ROOT
ATOM      1  C   UNL     1      44.218   5.704  11.042  0.00  0.00    +0.000 C 
ATOM      2  C   UNL     1      42.742   5.603  11.430  0.00  0.00    +0.000 C 
ATOM      3  C   UNL     1      43.725   4.682  12.055  0.00  0.00    +0.000 C 
ATOM      4  F   UNL     1      43.595   3.350  11.700  0.00  0.00    +0.000 F 
ENDROOT
BRANCH   1   5
ATOM      5  N   UNL     1      44.577   5.350   9.647  0.00  0.00    +0.000 N 
ATOM      6  C   UNL     1      45.111   4.119   9.243  0.00  0.00    +0.000 A 
ATOM      7  C   UNL     1      44.808   2.911   9.868  0.00  0.00    +0.000 A 
ATOM      8  C   UNL     1      45.244   1.705   9.317  0.00  0.00    +0.000 A 
ATOM      9  C   UNL     1      46.007   1.727   8.164  0.00  0.00    +0.000 A 
ATOM     10  F   UNL     1      46.408   0.566   7.630  0.00  0.00    +0.000 F 
ATOM     11  C   UNL     1      46.313   2.959   7.614  0.00  0.00    +0.000 A 
ATOM     12  N   UNL     1      45.874   4.157   8.127  0.00  0.00    +0.000 NA
ATOM     13  H   UNL     1      45.011   6.069   9.074  0.00  0.00    +0.000 HD
BRANCH  11  14
ATOM     14  C   UNL     1      47.165   3.042   6.388  0.00  0.00    +0.000 C 
ATOM     15  N   UNL     1      48.467   2.642   6.549  0.00  0.00    +0.000 N 
ATOM     16  O   UNL     1      46.767   3.426   5.296  0.00  0.00    +0.000 OA
ATOM     17  H   UNL     1      48.794   2.327   7.454  0.00  0.00    +0.000 HD
ATOM     18  H   UNL     1      49.088   2.671   5.754  0.00  0.00    +0.000 HD
ENDBRANCH  11  14
ENDBRANCH   1   5
BRANCH   1  23
ATOM     19  C   UNL     1      46.676   7.746  12.930  0.00  0.00    +0.000 A 
ATOM     20  N   UNL     1      46.306   9.025  12.754  0.00  0.00    +0.000 NA
ATOM     21  C   UNL     1      45.243   9.232  11.959  0.00  0.00    +0.000 A 
ATOM     22  C   UNL     1      44.543   8.214  11.352  0.00  0.00    +0.000 A 
ATOM     23  C   UNL     1      44.969   6.918  11.600  0.00  0.00    +0.000 A 
ATOM     24  N   UNL     1      46.041   6.690  12.386  0.00  0.00    +0.000 NA
BRANCH  19  28
ATOM     25  C   UNL     1      50.004   6.897  15.398  0.00  0.00    +0.000 A 
ATOM     26  C   UNL     1      50.064   8.024  14.593  0.00  0.00    +0.000 A 
ATOM     27  C   UNL     1      48.971   8.296  13.774  0.00  0.00    +0.000 A 
ATOM     28  C   UNL     1      47.842   7.459  13.770  0.00  0.00    +0.000 A 
ATOM     29  C   UNL     1      47.901   6.350  14.615  0.00  0.00    +0.000 A 
ATOM     30  N   UNL     1      48.948   6.039  15.426  0.00  0.00    +0.000 NA
BRANCH  25  32
ATOM     31  N   UNL     1      51.012   5.455  17.061  0.00  0.00    +0.000 N 
ATOM     32  C   UNL     1      51.154   6.584  16.304  0.00  0.00    +0.000 C 
ATOM     33  O   UNL     1      52.155   7.285  16.369  0.00  0.00    +0.000 OA
ATOM     34  H   UNL     1      51.747   5.187  17.698  0.00  0.00    +0.000 HD
ATOM     35  H   UNL     1      50.168   4.899  16.975  0.00  0.00    +0.000 HD
ENDBRANCH  25  32
ENDBRANCH  19  28
ENDBRANCH   1  23
TORSDOF 5
ENDMDL
MODEL 7
REMARK VINA RESULT:    -6.674      3.780      6.203
REMARK INTER + INTRA:          -9.064
REMARK INTER:                  -9.984
REMARK INTRA:                   0.920
REMARK UNBOUND:                -0.440
REMARK  Name = 
REMARK  5 active torsions:
REMARK  status: ('A' for Active; 'I' for Inactive)
REMARK    1  A    between atoms: C_2  and  C_4
REMARK    2  A    between atoms: C_7  and  C_8
REMARK    3  A    between atoms: C_12  and  C_13
REMARK    4  A    between atoms: C_13  and  N_14
REMARK    5  A    between atoms: C_20  and  C_21
REMARK                            x       y       z     vdW  Elec       q    Type
REMARK                         _______ _______ _______ _____ _____    ______ ____
ROOT
ATOM      1  C   UNL     1      48.502   6.625  15.327  0.00  0.00    +0.000 C 
ATOM      2  C   UNL     1      49.331   7.344  14.262  0.00  0.00    +0.000 C 
ATOM      3  C   UNL     1      48.329   8.109  15.046  0.00  0.00    +0.000 C 
ATOM      4  F   UNL     1      47.238   8.563  14.326  0.00  0.00    +0.000 F 
ENDROOT
BRANCH   1   5
ATOM      5  N   UNL     1      47.542   5.596  14.858  0.00  0.00    +0.000 N 
ATOM      6  C   UNL     1      46.809   5.668  13.665  0.00  0.00    +0.000 A 
ATOM      7  C   UNL     1      47.281   6.291  12.512  0.00  0.00    +0.000 A 
ATOM      8  C   UNL     1      46.572   6.185  11.315  0.00  0.00    +0.000 A 
ATOM      9  C   UNL     1      45.381   5.483  11.296  0.00  0.00    +0.000 A 
ATOM     10  F   UNL     1      44.714   5.371  10.140  0.00  0.00    +0.000 F 
ATOM     11  C   UNL     1      44.940   4.924  12.482  0.00  0.00    +0.000 A 
ATOM     12  N   UNL     1      45.635   4.996  13.667  0.00  0.00    +0.000 NA
ATOM     13  H   UNL     1      46.945   5.155  15.552  0.00  0.00    +0.000 HD
BRANCH  11  14
ATOM     14  C   UNL     1      43.641   4.185  12.525  0.00  0.00    +0.000 C 
ATOM     15  N   UNL     1      42.541   4.908  12.140  0.00  0.00    +0.000 N 
ATOM     16  O   UNL     1      43.524   3.014  12.865  0.00  0.00    +0.000 OA
ATOM     17  H   UNL     1      42.641   5.876  11.862  0.00  0.00    +0.000 HD
ATOM     18  H   UNL     1      41.638   4.460  12.145  0.00  0.00    +0.000 HD
ENDBRANCH  11  14
ENDBRANCH   1   5
BRANCH   1  23
ATOM     19  C   UNL     1      50.594   4.744  17.748  0.00  0.00    +0.000 A 
ATOM     20  N   UNL     1      50.528   5.427  18.902  0.00  0.00    +0.000 NA
ATOM     21  C   UNL     1      49.809   6.562  18.881  0.00  0.00    +0.000 A 
ATOM     22  C   UNL     1      49.157   7.023  17.760  0.00  0.00    +0.000 A 
ATOM     23  C   UNL     1      49.252   6.251  16.611  0.00  0.00    +0.000 A 
ATOM     24  N   UNL     1      49.978   5.114  16.609  0.00  0.00    +0.000 NA
BRANCH  19  28
ATOM     25  C   UNL     1      52.818   1.147  17.641  0.00  0.00    +0.000 A 
ATOM     26  C   UNL     1      53.471   2.303  18.040  0.00  0.00    +0.000 A 
ATOM     27  C   UNL     1      52.739   3.487  18.065  0.00  0.00    +0.000 A 
ATOM     28  C   UNL     1      51.381   3.508  17.704  0.00  0.00    +0.000 A 
ATOM     29  C   UNL     1      50.835   2.286  17.311  0.00  0.00    +0.000 A 
ATOM     30  N   UNL     1      51.510   1.106  17.263  0.00  0.00    +0.000 NA
BRANCH  25  32
ATOM     31  N   UNL     1      53.354  -0.967  18.692  0.00  0.00    +0.000 N 
ATOM     32  C   UNL     1      53.568  -0.148  17.619  0.00  0.00    +0.000 C 
ATOM     33  O   UNL     1      54.323  -0.460  16.707  0.00  0.00    +0.000 OA
ATOM     34  H   UNL     1      53.831  -1.854  18.745  0.00  0.00    +0.000 HD
ATOM     35  H   UNL     1      52.717  -0.673  19.425  0.00  0.00    +0.000 HD
ENDBRANCH  25  32
ENDBRANCH  19  28
ENDBRANCH   1  23
TORSDOF 5
ENDMDL
MODEL 8
REMARK VINA RESULT:    -6.534      4.665      9.249
REMARK INTER + INTRA:          -8.884
REMARK INTER:                  -9.304
REMARK INTRA:                   0.421
REMARK UNBOUND:                -0.440
REMARK  Name = 
REMARK  5 active torsions:
REMARK  status: ('A' for Active; 'I' for Inactive)
REMARK    1  A    between atoms: C_2  and  C_4
REMARK    2  A    between atoms: C_7  and  C_8
REMARK    3  A    between atoms: C_12  and  C_13
REMARK    4  A    between atoms: C_13  and  N_14
REMARK    5  A    between atoms: C_20  and  C_21
REMARK                            x       y       z     vdW  Elec       q    Type
REMARK                         _______ _______ _______ _____ _____    ______ ____
ROOT
ATOM      1  C   UNL     1      49.705   5.603  17.425  0.00  0.00    +0.000 C 
ATOM      2  C   UNL     1      48.614   4.753  18.078  0.00  0.00    +0.000 C 
ATOM      3  C   UNL     1      48.906   6.106  18.617  0.00  0.00    +0.000 C 
ATOM      4  F   UNL     1      49.471   6.128  19.880  0.00  0.00    +0.000 F 
ENDROOT
BRANCH   1   5
ATOM      5  N   UNL     1      51.102   5.114  17.537  0.00  0.00    +0.000 N 
ATOM      6  C   UNL     1      51.471   3.775  17.718  0.00  0.00    +0.000 A 
ATOM      7  C   UNL     1      50.740   2.703  17.210  0.00  0.00    +0.000 A 
ATOM      8  C   UNL     1      51.249   1.405  17.286  0.00  0.00    +0.000 A 
ATOM      9  C   UNL     1      52.468   1.194  17.902  0.00  0.00    +0.000 A 
ATOM     10  F   UNL     1      52.958  -0.051  17.958  0.00  0.00    +0.000 F 
ATOM     11  C   UNL     1      53.126   2.291  18.429  0.00  0.00    +0.000 A 
ATOM     12  N   UNL     1      52.655   3.581  18.342  0.00  0.00    +0.000 NA
ATOM     13  H   UNL     1      51.760   5.682  18.063  0.00  0.00    +0.000 HD
BRANCH  11  14
ATOM     14  C   UNL     1      54.431   2.114  19.137  0.00  0.00    +0.000 C 
ATOM     15  N   UNL     1      54.388   2.283  20.497  0.00  0.00    +0.000 N 
ATOM     16  O   UNL     1      55.485   1.831  18.581  0.00  0.00    +0.000 OA
ATOM     17  H   UNL     1      53.516   2.519  20.953  0.00  0.00    +0.000 HD
ATOM     18  H   UNL     1      55.239   2.171  21.029  0.00  0.00    +0.000 HD
ENDBRANCH  11  14
ENDBRANCH   1   5
BRANCH   1  23
ATOM     19  C   UNL     1      47.981   6.188  14.191  0.00  0.00    +0.000 A 
ATOM     20  N   UNL     1      48.709   7.116  13.547  0.00  0.00    +0.000 NA
ATOM     21  C   UNL     1      49.776   7.598  14.207  0.00  0.00    +0.000 A 
ATOM     22  C   UNL     1      50.138   7.179  15.467  0.00  0.00    +0.000 A 
ATOM     23  C   UNL     1      49.352   6.201  16.058  0.00  0.00    +0.000 A 
ATOM     24  N   UNL     1      48.270   5.713  15.418  0.00  0.00    +0.000 NA
BRANCH  19  28
ATOM     25  C   UNL     1      44.519   4.653  12.308  0.00  0.00    +0.000 A 
ATOM     26  C   UNL     1      45.443   3.747  12.806  0.00  0.00    +0.000 A 
ATOM     27  C   UNL     1      46.587   4.256  13.416  0.00  0.00    +0.000 A 
ATOM     28  C   UNL     1      46.793   5.641  13.530  0.00  0.00    +0.000 A 
ATOM     29  C   UNL     1      45.799   6.454  12.984  0.00  0.00    +0.000 A 
ATOM     30  N   UNL     1      44.670   6.004  12.372  0.00  0.00    +0.000 NA
BRANCH  25  32
ATOM     31  N   UNL     1      42.236   5.033  11.600  0.00  0.00    +0.000 N 
ATOM     32  C   UNL     1      43.269   4.142  11.662  0.00  0.00    +0.000 C 
ATOM     33  O   UNL     1      43.172   3.006  11.215  0.00  0.00    +0.000 OA
ATOM     34  H   UNL     1      41.361   4.755  11.181  0.00  0.00    +0.000 HD
ATOM     35  H   UNL     1      42.358   5.967  11.977  0.00  0.00    +0.000 HD
ENDBRANCH  25  32
ENDBRANCH  19  28
ENDBRANCH   1  23
TORSDOF 5
ENDMDL
MODEL 9
REMARK VINA RESULT:    -6.501      2.683      8.137
REMARK INTER + INTRA:          -8.841
REMARK INTER:                  -9.175
REMARK INTRA:                   0.334
REMARK UNBOUND:                -0.440
REMARK  Name = 
REMARK  5 active torsions:
REMARK  status: ('A' for Active; 'I' for Inactive)
REMARK    1  A    between atoms: C_2  and  C_4
REMARK    2  A    between atoms: C_7  and  C_8
REMARK    3  A    between atoms: C_12  and  C_13
REMARK    4  A    between atoms: C_13  and  N_14
REMARK    5  A    between atoms: C_20  and  C_21
REMARK                            x       y       z     vdW  Elec       q    Type
REMARK                         _______ _______ _______ _____ _____    ______ ____
ROOT
ATOM      1  C   UNL     1      46.251   7.573  12.699  0.00  0.00    +0.000 C 
ATOM      2  C   UNL     1      45.493   8.750  13.317  0.00  0.00    +0.000 C 
ATOM      3  C   UNL     1      46.216   8.939  12.033  0.00  0.00    +0.000 C 
ATOM      4  F   UNL     1      47.317   9.777  12.094  0.00  0.00    +0.000 F 
ENDROOT
BRANCH   1   5
ATOM      5  N   UNL     1      47.432   7.065  13.440  0.00  0.00    +0.000 N 
ATOM      6  C   UNL     1      47.409   6.002  14.353  0.00  0.00    +0.000 A 
ATOM      7  C   UNL     1      46.541   4.918  14.246  0.00  0.00    +0.000 A 
ATOM      8  C   UNL     1      46.681   3.818  15.094  0.00  0.00    +0.000 A 
ATOM      9  C   UNL     1      47.669   3.834  16.061  0.00  0.00    +0.000 A 
ATOM     10  F   UNL     1      47.810   2.768  16.860  0.00  0.00    +0.000 F 
ATOM     11  C   UNL     1      48.472   4.957  16.149  0.00  0.00    +0.000 A 
ATOM     12  N   UNL     1      48.367   6.041  15.308  0.00  0.00    +0.000 NA
ATOM     13  H   UNL     1      48.101   7.746  13.787  0.00  0.00    +0.000 HD
BRANCH  11  14
ATOM     14  C   UNL     1      49.533   5.040  17.199  0.00  0.00    +0.000 C 
ATOM     15  N   UNL     1      49.076   5.205  18.482  0.00  0.00    +0.000 N 
ATOM     16  O   UNL     1      50.734   4.964  16.975  0.00  0.00    +0.000 OA
ATOM     17  H   UNL     1      48.082   5.270  18.664  0.00  0.00    +0.000 HD
ATOM     18  H   UNL     1      49.746   5.263  19.234  0.00  0.00    +0.000 HD
ENDBRANCH  11  14
ENDBRANCH   1   5
BRANCH   1  23
ATOM     19  C   UNL     1      45.095   4.890  10.409  0.00  0.00    +0.000 A 
ATOM     20  N   UNL     1      43.844   4.590  10.794  0.00  0.00    +0.000 NA
ATOM     21  C   UNL     1      43.375   5.256  11.863  0.00  0.00    +0.000 A 
ATOM     22  C   UNL     1      44.104   6.206  12.542  0.00  0.00    +0.000 A 
ATOM     23  C   UNL     1      45.379   6.479  12.071  0.00  0.00    +0.000 A 
ATOM     24  N   UNL     1      45.874   5.813  11.007  0.00  0.00    +0.000 NA
BRANCH  19  28
ATOM     25  C   UNL     1      46.738   2.889   7.065  0.00  0.00    +0.000 A 
ATOM     26  C   UNL     1      46.101   2.124   8.030  0.00  0.00    +0.000 A 
ATOM     27  C   UNL     1      45.570   2.785   9.135  0.00  0.00    +0.000 A 
ATOM     28  C   UNL     1      45.670   4.181   9.263  0.00  0.00    +0.000 A 
ATOM     29  C   UNL     1      46.340   4.842   8.233  0.00  0.00    +0.000 A 
ATOM     30  N   UNL     1      46.882   4.241   7.140  0.00  0.00    +0.000 NA
BRANCH  25  32
ATOM     31  N   UNL     1      46.728   2.565   4.665  0.00  0.00    +0.000 N 
ATOM     32  C   UNL     1      47.304   2.215   5.854  0.00  0.00    +0.000 C 
ATOM     33  O   UNL     1      48.221   1.405   5.916  0.00  0.00    +0.000 OA
ATOM     34  H   UNL     1      47.058   2.145   3.809  0.00  0.00    +0.000 HD
ATOM     35  H   UNL     1      45.974   3.243   4.656  0.00  0.00    +0.000 HD
ENDBRANCH  25  32
ENDBRANCH  19  28
ENDBRANCH   1  23
TORSDOF 5
ENDMDL
