MODEL 1
REMARK VINA RESULT:    -7.881      0.000      0.000
REMARK INTER + INTRA:         -11.543
REMARK INTER:                 -10.645
REMARK INTRA:                  -0.898
REMARK UNBOUND:                -0.898
REMARK  Name = 
REMARK  6 active torsions:
REMARK  status: ('A' for Active; 'I' for Inactive)
REMARK    1  A    between atoms: C_2  and  C_25
REMARK    2  A    between atoms: N_3  and  C_4
REMARK    3  A    between atoms: C_4  and  C_5
REMARK    4  A    between atoms: C_8  and  C_9
REMARK    5  A    between atoms: C_9  and  N_10
REMARK    6  A    between atoms: C_11  and  C_13
REMARK                            x       y       z     vdW  Elec       q    Type
REMARK                         _______ _______ _______ _____ _____    ______ ____
ROOT
ATOM      1  C   UNL     1      44.755   4.289  12.394  0.00  0.00    +0.000 C 
ATOM      2  C   UNL     1      45.053   5.607  11.675  0.00  0.00    +0.000 C 
ATOM      3  C   UNL     1      45.864   6.559  12.538  0.00  0.00    +0.000 C 
ATOM      4  C   UNL     1      47.180   5.937  13.025  0.00  0.00    +0.000 C 
ATOM      5  C   UNL     1      46.886   4.616  13.754  0.00  0.00    +0.000 C 
ATOM      6  C   UNL     1      46.062   3.655  12.894  0.00  0.00    +0.000 C 
ENDROOT
BRANCH   1   7
ATOM      7  C   UNL     1      44.006   3.327  11.456  0.00  0.00    +0.000 C 
BRANCH   7  10
ATOM      8  O   UNL     1      44.206   4.066   8.769  0.00  0.00    +0.000 OA
ATOM      9  C   UNL     1      44.907   3.145   9.172  0.00  0.00    +0.000 C 
ATOM     10  N   UNL     1      44.883   2.712  10.482  0.00  0.00    +0.000 N 
ATOM     11  H   UNL     1      45.636   2.090  10.775  0.00  0.00    +0.000 HD
BRANCH   9  12
ATOM     12  C   UNL     1      45.845   2.431   8.299  0.00  0.00    +0.000 A 
ATOM     13  C   UNL     1      46.627   3.057   7.344  0.00  0.00    +0.000 A 
ATOM     14  S   UNL     1      47.628   1.919   6.543  0.00  0.00    +0.000 S 
ATOM     15  C   UNL     1      46.938   0.676   7.503  0.00  0.00    +0.000 A 
ATOM     16  N   UNL     1      46.023   1.044   8.374  0.00  0.00    +0.000 NA
ENDBRANCH   9  12
ENDBRANCH   7  10
ENDBRANCH   1   7
BRANCH   4  17
ATOM     17  C   UNL     1      47.958   6.899  13.942  0.00  0.00    +0.000 C 
BRANCH  17  18
ATOM     18  N   UNL     1      47.891   6.532  15.339  0.00  0.00    +0.000 N 
ATOM     19  C   UNL     1      49.036   6.324  16.076  0.00  0.00    +0.000 C 
ATOM     20  O   UNL     1      50.156   6.484  15.607  0.00  0.00    +0.000 OA
ATOM     21  H   UNL     1      47.038   6.097  15.680  0.00  0.00    +0.000 HD
BRANCH  19  22
ATOM     22  C   UNL     1      48.843   5.960  17.488  0.00  0.00    +0.000 A 
ATOM     23  C   UNL     1      49.137   4.677  17.914  0.00  0.00    +0.000 A 
ATOM     24  S   UNL     1      48.863   4.434  19.581  0.00  0.00    +0.000 S 
ATOM     25  C   UNL     1      48.314   6.031  19.778  0.00  0.00    +0.000 A 
ATOM     26  N   UNL     1      47.880   6.481  20.988  0.00  0.00    +0.000 NA
ATOM     27  C   UNL     1      47.470   7.705  20.987  0.00  0.00    +0.000 A 
ATOM     28  N   UNL     1      47.459   8.525  19.883  0.00  0.00    +0.000 N 
ATOM     29  C   UNL     1      47.896   8.117  18.646  0.00  0.00    +0.000 A 
ATOM     30  O   UNL     1      47.896   8.879  17.691  0.00  0.00    +0.000 OA
ATOM     31  C   UNL     1      48.361   6.744  18.595  0.00  0.00    +0.000 A 
ATOM     32  H   UNL     1      47.135   9.476  19.950  0.00  0.00    +0.000 HD
ENDBRANCH  19  22
ENDBRANCH  17  18
ENDBRANCH   4  17
TORSDOF 6
ENDMDL
MODEL 2
REMARK VINA RESULT:    -7.870      2.199      2.722
REMARK INTER + INTRA:         -11.528
REMARK INTER:                 -10.640
REMARK INTRA:                  -0.888
REMARK UNBOUND:                -0.898
REMARK  Name = 
REMARK  6 active torsions:
REMARK  status: ('A' for Active; 'I' for Inactive)
REMARK    1  A    between atoms: C_2  and  C_25
REMARK    2  A    between atoms: N_3  and  C_4
REMARK    3  A    between atoms: C_4  and  C_5
REMARK    4  A    between atoms: C_8  and  C_9
REMARK    5  A    between atoms: C_9  and  N_10
REMARK    6  A    between atoms: C_11  and  C_13
REMARK                            x       y       z     vdW  Elec       q    Type
REMARK                         _______ _______ _______ _____ _____    ______ ____
ROOT
ATOM      1  C   UNL     1      44.979   6.009  11.526  0.00  0.00    +0.000 C 
ATOM      2  C   UNL     1      44.549   7.456  11.776  0.00  0.00    +0.000 C 
ATOM      3  C   UNL     1      45.416   8.139  12.820  0.00  0.00    +0.000 C 
ATOM      4  C   UNL     1      46.908   8.107  12.461  0.00  0.00    +0.000 C 
ATOM      5  C   UNL     1      47.347   6.654  12.216  0.00  0.00    +0.000 C 
ATOM      6  C   UNL     1      46.473   5.957  11.170  0.00  0.00    +0.000 C 
ENDROOT
BRANCH   1   7
ATOM      7  C   UNL     1      44.129   5.385  10.406  0.00  0.00    +0.000 C 
BRANCH   7  10
ATOM      8  O   UNL     1      44.010   2.616  10.062  0.00  0.00    +0.000 OA
ATOM      9  C   UNL     1      44.798   3.253   9.375  0.00  0.00    +0.000 C 
ATOM     10  N   UNL     1      44.927   4.624   9.468  0.00  0.00    +0.000 N 
ATOM     11  H   UNL     1      45.449   5.089   8.726  0.00  0.00    +0.000 HD
BRANCH   9  12
ATOM     12  C   UNL     1      45.668   2.614   8.381  0.00  0.00    +0.000 A 
ATOM     13  C   UNL     1      46.211   3.284   7.298  0.00  0.00    +0.000 A 
ATOM     14  S   UNL     1      47.204   2.234   6.375  0.00  0.00    +0.000 S 
ATOM     15  C   UNL     1      46.826   0.963   7.463  0.00  0.00    +0.000 A 
ATOM     16  N   UNL     1      46.021   1.261   8.460  0.00  0.00    +0.000 NA
ENDBRANCH   9  12
ENDBRANCH   7  10
ENDBRANCH   1   7
BRANCH   4  17
ATOM     17  C   UNL     1      47.771   8.756  13.559  0.00  0.00    +0.000 C 
BRANCH  17  18
ATOM     18  N   UNL     1      47.898   7.934  14.742  0.00  0.00    +0.000 N 
ATOM     19  C   UNL     1      49.098   7.347  15.076  0.00  0.00    +0.000 C 
ATOM     20  O   UNL     1      50.120   7.527  14.424  0.00  0.00    +0.000 OA
ATOM     21  H   UNL     1      47.056   7.511  15.125  0.00  0.00    +0.000 HD
BRANCH  19  22
ATOM     22  C   UNL     1      49.108   6.537  16.304  0.00  0.00    +0.000 A 
ATOM     23  C   UNL     1      49.843   6.956  17.398  0.00  0.00    +0.000 A 
ATOM     24  S   UNL     1      49.733   5.901  18.736  0.00  0.00    +0.000 S 
ATOM     25  C   UNL     1      48.721   4.836  17.880  0.00  0.00    +0.000 A 
ATOM     26  N   UNL     1      48.275   3.681  18.448  0.00  0.00    +0.000 NA
ATOM     27  C   UNL     1      47.534   2.957  17.677  0.00  0.00    +0.000 A 
ATOM     28  N   UNL     1      47.193   3.288  16.387  0.00  0.00    +0.000 N 
ATOM     29  C   UNL     1      47.611   4.446  15.777  0.00  0.00    +0.000 A 
ATOM     30  O   UNL     1      47.269   4.721  14.636  0.00  0.00    +0.000 OA
ATOM     31  C   UNL     1      48.453   5.290  16.603  0.00  0.00    +0.000 A 
ATOM     32  H   UNL     1      46.602   2.684  15.839  0.00  0.00    +0.000 HD
ENDBRANCH  19  22
ENDBRANCH  17  18
ENDBRANCH   4  17
TORSDOF 6
ENDMDL
MODEL 3
REMARK VINA RESULT:    -7.825      1.342      2.012
REMARK INTER + INTRA:         -11.467
REMARK INTER:                 -10.743
REMARK INTRA:                  -0.724
REMARK UNBOUND:                -0.898
REMARK  Name = 
REMARK  6 active torsions:
REMARK  status: ('A' for Active; 'I' for Inactive)
REMARK    1  A    between atoms: C_2  and  C_25
REMARK    2  A    between atoms: N_3  and  C_4
REMARK    3  A    between atoms: C_4  and  C_5
REMARK    4  A    between atoms: C_8  and  C_9
REMARK    5  A    between atoms: C_9  and  N_10
REMARK    6  A    between atoms: C_11  and  C_13
REMARK                            x       y       z     vdW  Elec       q    Type
REMARK                         _______ _______ _______ _____ _____    ______ ____
ROOT
ATOM      1  C   UNL     1      45.053   4.480  12.368  0.00  0.00    +0.000 C 
ATOM      2  C   UNL     1      45.536   5.585  11.426  0.00  0.00    +0.000 C 
ATOM      3  C   UNL     1      46.382   6.623  12.146  0.00  0.00    +0.000 C 
ATOM      4  C   UNL     1      47.588   6.004  12.864  0.00  0.00    +0.000 C 
ATOM      5  C   UNL     1      47.108   4.898  13.818  0.00  0.00    +0.000 C 
ATOM      6  C   UNL     1      46.249   3.853  13.101  0.00  0.00    +0.000 C 
ENDROOT
BRANCH   1   7
ATOM      7  C   UNL     1      44.273   3.412  11.583  0.00  0.00    +0.000 C 
BRANCH   7  10
ATOM      8  O   UNL     1      44.135   3.903   8.836  0.00  0.00    +0.000 OA
ATOM      9  C   UNL     1      44.941   3.073   9.238  0.00  0.00    +0.000 C 
ATOM     10  N   UNL     1      45.088   2.765  10.575  0.00  0.00    +0.000 N 
ATOM     11  H   UNL     1      45.911   2.224  10.836  0.00  0.00    +0.000 HD
BRANCH   9  12
ATOM     12  C   UNL     1      45.833   2.341   8.332  0.00  0.00    +0.000 A 
ATOM     13  C   UNL     1      46.592   2.952   7.348  0.00  0.00    +0.000 A 
ATOM     14  S   UNL     1      47.541   1.795   6.513  0.00  0.00    +0.000 S 
ATOM     15  C   UNL     1      46.864   0.566   7.498  0.00  0.00    +0.000 A 
ATOM     16  N   UNL     1      45.989   0.951   8.402  0.00  0.00    +0.000 NA
ENDBRANCH   9  12
ENDBRANCH   7  10
ENDBRANCH   1   7
BRANCH   4  17
ATOM     17  C   UNL     1      48.398   7.066  13.632  0.00  0.00    +0.000 C 
BRANCH  17  18
ATOM     18  N   UNL     1      48.186   7.019  15.061  0.00  0.00    +0.000 N 
ATOM     19  C   UNL     1      49.238   6.837  15.931  0.00  0.00    +0.000 C 
ATOM     20  O   UNL     1      50.399   6.755  15.549  0.00  0.00    +0.000 OA
ATOM     21  H   UNL     1      47.260   6.774  15.401  0.00  0.00    +0.000 HD
BRANCH  19  22
ATOM     22  C   UNL     1      48.901   6.812  17.363  0.00  0.00    +0.000 A 
ATOM     23  C   UNL     1      48.581   7.989  18.015  0.00  0.00    +0.000 A 
ATOM     24  S   UNL     1      48.211   7.772  19.668  0.00  0.00    +0.000 S 
ATOM     25  C   UNL     1      48.497   6.099  19.567  0.00  0.00    +0.000 A 
ATOM     26  N   UNL     1      48.388   5.299  20.664  0.00  0.00    +0.000 NA
ATOM     27  C   UNL     1      48.656   4.055  20.448  0.00  0.00    +0.000 A 
ATOM     28  N   UNL     1      49.019   3.535  19.228  0.00  0.00    +0.000 N 
ATOM     29  C   UNL     1      49.132   4.301  18.092  0.00  0.00    +0.000 A 
ATOM     30  O   UNL     1      49.433   3.802  17.019  0.00  0.00    +0.000 OA
ATOM     31  C   UNL     1      48.847   5.710  18.288  0.00  0.00    +0.000 A 
ATOM     32  H   UNL     1      49.206   2.551  19.122  0.00  0.00    +0.000 HD
ENDBRANCH  19  22
ENDBRANCH  17  18
ENDBRANCH   4  17
TORSDOF 6
ENDMDL
MODEL 4
REMARK VINA RESULT:    -7.592      2.313      2.762
REMARK INTER + INTRA:         -11.153
REMARK INTER:                 -10.266
REMARK INTRA:                  -0.887
REMARK UNBOUND:                -0.898
REMARK  Name = 
REMARK  6 active torsions:
REMARK  status: ('A' for Active; 'I' for Inactive)
REMARK    1  A    between atoms: C_2  and  C_25
REMARK    2  A    between atoms: N_3  and  C_4
REMARK    3  A    between atoms: C_4  and  C_5
REMARK    4  A    between atoms: C_8  and  C_9
REMARK    5  A    between atoms: C_9  and  N_10
REMARK    6  A    between atoms: C_11  and  C_13
REMARK                            x       y       z     vdW  Elec       q    Type
REMARK                         _______ _______ _______ _____ _____    ______ ____
ROOT
ATOM      1  C   UNL     1      44.289   4.189  12.209  0.00  0.00    +0.000 C 
ATOM      2  C   UNL     1      44.203   5.582  11.582  0.00  0.00    +0.000 C 
ATOM      3  C   UNL     1      44.898   6.635  12.429  0.00  0.00    +0.000 C 
ATOM      4  C   UNL     1      46.368   6.293  12.708  0.00  0.00    +0.000 C 
ATOM      5  C   UNL     1      46.459   4.897  13.345  0.00  0.00    +0.000 C 
ATOM      6  C   UNL     1      45.755   3.832  12.500  0.00  0.00    +0.000 C 
ENDROOT
BRANCH   1   7
ATOM      7  C   UNL     1      43.647   3.145  11.280  0.00  0.00    +0.000 C 
BRANCH   7  10
ATOM      8  O   UNL     1      44.139   4.068   8.689  0.00  0.00    +0.000 OA
ATOM      9  C   UNL     1      44.770   3.097   9.089  0.00  0.00    +0.000 C 
ATOM     10  N   UNL     1      44.601   2.570  10.354  0.00  0.00    +0.000 N 
ATOM     11  H   UNL     1      45.302   1.903  10.672  0.00  0.00    +0.000 HD
BRANCH   9  12
ATOM     12  C   UNL     1      45.771   2.415   8.262  0.00  0.00    +0.000 A 
ATOM     13  C   UNL     1      46.565   3.065   7.333  0.00  0.00    +0.000 A 
ATOM     14  S   UNL     1      47.643   1.962   6.584  0.00  0.00    +0.000 S 
ATOM     15  C   UNL     1      46.966   0.700   7.528  0.00  0.00    +0.000 A 
ATOM     16  N   UNL     1      46.003   1.037   8.358  0.00  0.00    +0.000 NA
ENDBRANCH   9  12
ENDBRANCH   7  10
ENDBRANCH   1   7
BRANCH   4  17
ATOM     17  C   UNL     1      47.035   7.345  13.613  0.00  0.00    +0.000 C 
BRANCH  17  18
ATOM     18  N   UNL     1      48.215   6.849  14.286  0.00  0.00    +0.000 N 
ATOM     19  C   UNL     1      48.918   7.642  15.166  0.00  0.00    +0.000 C 
ATOM     20  O   UNL     1      48.559   8.776  15.458  0.00  0.00    +0.000 OA
ATOM     21  H   UNL     1      48.717   6.072  13.865  0.00  0.00    +0.000 HD
BRANCH  19  22
ATOM     22  C   UNL     1      50.098   7.029  15.794  0.00  0.00    +0.000 A 
ATOM     23  C   UNL     1      51.352   7.572  15.579  0.00  0.00    +0.000 A 
ATOM     24  S   UNL     1      52.603   6.739  16.390  0.00  0.00    +0.000 S 
ATOM     25  C   UNL     1      51.506   5.607  17.030  0.00  0.00    +0.000 A 
ATOM     26  N   UNL     1      51.935   4.575  17.809  0.00  0.00    +0.000 NA
ATOM     27  C   UNL     1      50.999   3.781  18.206  0.00  0.00    +0.000 A 
ATOM     28  N   UNL     1      49.667   3.928  17.899  0.00  0.00    +0.000 N 
ATOM     29  C   UNL     1      49.187   4.958  17.126  0.00  0.00    +0.000 A 
ATOM     30  O   UNL     1      47.993   5.074  16.893  0.00  0.00    +0.000 OA
ATOM     31  C   UNL     1      50.205   5.875  16.649  0.00  0.00    +0.000 A 
ATOM     32  H   UNL     1      48.981   3.278  18.249  0.00  0.00    +0.000 HD
ENDBRANCH  19  22
ENDBRANCH  17  18
ENDBRANCH   4  17
TORSDOF 6
ENDMDL
MODEL 5
REMARK VINA RESULT:    -6.720      3.616      5.195
REMARK INTER + INTRA:          -9.975
REMARK INTER:                  -9.030
REMARK INTRA:                  -0.945
REMARK UNBOUND:                -0.898
REMARK  Name = 
REMARK  6 active torsions:
REMARK  status: ('A' for Active; 'I' for Inactive)
REMARK    1  A    between atoms: C_2  and  C_25
REMARK    2  A    between atoms: N_3  and  C_4
REMARK    3  A    between atoms: C_4  and  C_5
REMARK    4  A    between atoms: C_8  and  C_9
REMARK    5  A    between atoms: C_9  and  N_10
REMARK    6  A    between atoms: C_11  and  C_13
REMARK                            x       y       z     vdW  Elec       q    Type
REMARK                         _______ _______ _______ _____ _____    ______ ____
ROOT
ATOM      1  C   UNL     1      44.630   5.452  11.706  0.00  0.00    +0.000 C 
ATOM      2  C   UNL     1      45.648   6.470  11.187  0.00  0.00    +0.000 C 
ATOM      3  C   UNL     1      46.497   7.053  12.305  0.00  0.00    +0.000 C 
ATOM      4  C   UNL     1      47.226   5.975  13.117  0.00  0.00    +0.000 C 
ATOM      5  C   UNL     1      46.207   4.953  13.647  0.00  0.00    +0.000 C 
ATOM      6  C   UNL     1      45.344   4.366  12.527  0.00  0.00    +0.000 C 
ENDROOT
BRANCH   1   7
ATOM      7  C   UNL     1      43.854   4.828  10.534  0.00  0.00    +0.000 C 
BRANCH   7  10
ATOM      8  O   UNL     1      43.980   2.114   9.884  0.00  0.00    +0.000 OA
ATOM      9  C   UNL     1      44.723   2.888   9.293  0.00  0.00    +0.000 C 
ATOM     10  N   UNL     1      44.731   4.246   9.540  0.00  0.00    +0.000 N 
ATOM     11  H   UNL     1      45.224   4.833   8.868  0.00  0.00    +0.000 HD
BRANCH   9  12
ATOM     12  C   UNL     1      45.661   2.440   8.258  0.00  0.00    +0.000 A 
ATOM     13  C   UNL     1      46.071   3.235   7.202  0.00  0.00    +0.000 A 
ATOM     14  S   UNL     1      47.198   2.398   6.218  0.00  0.00    +0.000 S 
ATOM     15  C   UNL     1      47.045   1.035   7.248  0.00  0.00    +0.000 A 
ATOM     16  N   UNL     1      46.223   1.157   8.268  0.00  0.00    +0.000 NA
ENDBRANCH   9  12
ENDBRANCH   7  10
ENDBRANCH   1   7
BRANCH   4  17
ATOM     17  C   UNL     1      48.034   6.585  14.277  0.00  0.00    +0.000 C 
BRANCH  17  18
ATOM     18  N   UNL     1      49.382   6.947  13.901  0.00  0.00    +0.000 N 
ATOM     19  C   UNL     1      50.059   7.951  14.558  0.00  0.00    +0.000 C 
ATOM     20  O   UNL     1      49.579   8.549  15.513  0.00  0.00    +0.000 OA
ATOM     21  H   UNL     1      49.697   6.718  12.962  0.00  0.00    +0.000 HD
BRANCH  19  22
ATOM     22  C   UNL     1      51.426   8.227  14.092  0.00  0.00    +0.000 A 
ATOM     23  C   UNL     1      52.484   8.152  14.981  0.00  0.00    +0.000 A 
ATOM     24  S   UNL     1      53.997   8.494  14.268  0.00  0.00    +0.000 S 
ATOM     25  C   UNL     1      53.278   8.784  12.754  0.00  0.00    +0.000 A 
ATOM     26  N   UNL     1      54.026   9.164  11.681  0.00  0.00    +0.000 NA
ATOM     27  C   UNL     1      53.348   9.372  10.603  0.00  0.00    +0.000 A 
ATOM     28  N   UNL     1      51.985   9.229  10.498  0.00  0.00    +0.000 N 
ATOM     29  C   UNL     1      51.191   8.838  11.550  0.00  0.00    +0.000 A 
ATOM     30  O   UNL     1      49.985   8.696  11.416  0.00  0.00    +0.000 OA
ATOM     31  C   UNL     1      51.909   8.599  12.788  0.00  0.00    +0.000 A 
ATOM     32  H   UNL     1      51.514   9.397   9.624  0.00  0.00    +0.000 HD
ENDBRANCH  19  22
ENDBRANCH  17  18
ENDBRANCH   4  17
TORSDOF 6
ENDMDL
MODEL 6
REMARK VINA RESULT:    -6.530      2.681      3.401
REMARK INTER + INTRA:          -9.718
REMARK INTER:                  -8.601
REMARK INTRA:                  -1.117
REMARK UNBOUND:                -0.898
REMARK  Name = 
REMARK  6 active torsions:
REMARK  status: ('A' for Active; 'I' for Inactive)
REMARK    1  A    between atoms: C_2  and  C_25
REMARK    2  A    between atoms: N_3  and  C_4
REMARK    3  A    between atoms: C_4  and  C_5
REMARK    4  A    between atoms: C_8  and  C_9
REMARK    5  A    between atoms: C_9  and  N_10
REMARK    6  A    between atoms: C_11  and  C_13
REMARK                            x       y       z     vdW  Elec       q    Type
REMARK                         _______ _______ _______ _____ _____    ______ ____
ROOT
ATOM      1  C   UNL     1      46.347   7.517  12.475  0.00  0.00    +0.000 C 
ATOM      2  C   UNL     1      46.345   8.818  13.281  0.00  0.00    +0.000 C 
ATOM      3  C   UNL     1      47.516   8.895  14.246  0.00  0.00    +0.000 C 
ATOM      4  C   UNL     1      48.871   8.734  13.544  0.00  0.00    +0.000 C 
ATOM      5  C   UNL     1      48.881   7.425  12.739  0.00  0.00    +0.000 C 
ATOM      6  C   UNL     1      47.700   7.337  11.769  0.00  0.00    +0.000 C 
ENDROOT
BRANCH   1   7
ATOM      7  C   UNL     1      45.195   7.519  11.456  0.00  0.00    +0.000 C 
BRANCH   7  10
ATOM      8  O   UNL     1      44.341   4.912  11.983  0.00  0.00    +0.000 OA
ATOM      9  C   UNL     1      44.830   5.152  10.886  0.00  0.00    +0.000 C 
ATOM     10  N   UNL     1      45.276   6.409  10.530  0.00  0.00    +0.000 N 
ATOM     11  H   UNL     1      45.474   6.565   9.543  0.00  0.00    +0.000 HD
BRANCH   9  12
ATOM     12  C   UNL     1      44.973   4.126   9.848  0.00  0.00    +0.000 A 
ATOM     13  C   UNL     1      44.800   2.773  10.082  0.00  0.00    +0.000 A 
ATOM     14  S   UNL     1      45.004   1.879   8.634  0.00  0.00    +0.000 S 
ATOM     15  C   UNL     1      45.327   3.345   7.805  0.00  0.00    +0.000 A 
ATOM     16  N   UNL     1      45.292   4.447   8.523  0.00  0.00    +0.000 NA
ENDBRANCH   9  12
ENDBRANCH   7  10
ENDBRANCH   1   7
BRANCH   4  17
ATOM     17  C   UNL     1      50.039   8.760  14.548  0.00  0.00    +0.000 C 
BRANCH  17  18
ATOM     18  N   UNL     1      49.880   7.814  15.629  0.00  0.00    +0.000 N 
ATOM     19  C   UNL     1      50.915   6.989  16.010  0.00  0.00    +0.000 C 
ATOM     20  O   UNL     1      52.023   7.045  15.493  0.00  0.00    +0.000 OA
ATOM     21  H   UNL     1      48.939   7.514  15.870  0.00  0.00    +0.000 HD
BRANCH  19  22
ATOM     22  C   UNL     1      50.638   6.071  17.126  0.00  0.00    +0.000 A 
ATOM     23  C   UNL     1      51.512   6.006  18.197  0.00  0.00    +0.000 A 
ATOM     24  S   UNL     1      51.031   4.896  19.401  0.00  0.00    +0.000 S 
ATOM     25  C   UNL     1      49.653   4.446  18.512  0.00  0.00    +0.000 A 
ATOM     26  N   UNL     1      48.802   3.487  18.971  0.00  0.00    +0.000 NA
ATOM     27  C   UNL     1      47.812   3.229  18.184  0.00  0.00    +0.000 A 
ATOM     28  N   UNL     1      47.592   3.849  16.977  0.00  0.00    +0.000 N 
ATOM     29  C   UNL     1      48.418   4.829  16.478  0.00  0.00    +0.000 A 
ATOM     30  O   UNL     1      48.180   5.378  15.413  0.00  0.00    +0.000 OA
ATOM     31  C   UNL     1      49.551   5.148  17.326  0.00  0.00    +0.000 A 
ATOM     32  H   UNL     1      46.794   3.610  16.411  0.00  0.00    +0.000 HD
ENDBRANCH  19  22
ENDBRANCH  17  18
ENDBRANCH   4  17
TORSDOF 6
ENDMDL
MODEL 7
REMARK VINA RESULT:    -6.383      3.116      4.052
REMARK INTER + INTRA:          -9.519
REMARK INTER:                  -8.866
REMARK INTRA:                  -0.653
REMARK UNBOUND:                -0.898
REMARK  Name = 
REMARK  6 active torsions:
REMARK  status: ('A' for Active; 'I' for Inactive)
REMARK    1  A    between atoms: C_2  and  C_25
REMARK    2  A    between atoms: N_3  and  C_4
REMARK    3  A    between atoms: C_4  and  C_5
REMARK    4  A    between atoms: C_8  and  C_9
REMARK    5  A    between atoms: C_9  and  N_10
REMARK    6  A    between atoms: C_11  and  C_13
REMARK                            x       y       z     vdW  Elec       q    Type
REMARK                         _______ _______ _______ _____ _____    ______ ____
ROOT
ATOM      1  C   UNL     1      44.437   5.176  11.556  0.00  0.00    +0.000 C 
ATOM      2  C   UNL     1      45.455   6.282  11.264  0.00  0.00    +0.000 C 
ATOM      3  C   UNL     1      46.155   6.762  12.525  0.00  0.00    +0.000 C 
ATOM      4  C   UNL     1      46.846   5.624  13.286  0.00  0.00    +0.000 C 
ATOM      5  C   UNL     1      45.827   4.514  13.588  0.00  0.00    +0.000 C 
ATOM      6  C   UNL     1      45.112   4.029  12.324  0.00  0.00    +0.000 C 
ENDROOT
BRANCH   1   7
ATOM      7  C   UNL     1      43.816   4.664  10.246  0.00  0.00    +0.000 C 
BRANCH   7  10
ATOM      8  O   UNL     1      44.008   1.957   9.584  0.00  0.00    +0.000 OA
ATOM      9  C   UNL     1      44.818   2.734   9.094  0.00  0.00    +0.000 C 
ATOM     10  N   UNL     1      44.802   4.089   9.356  0.00  0.00    +0.000 N 
ATOM     11  H   UNL     1      45.373   4.681   8.754  0.00  0.00    +0.000 HD
BRANCH   9  12
ATOM     12  C   UNL     1      45.871   2.292   8.173  0.00  0.00    +0.000 A 
ATOM     13  C   UNL     1      46.500   3.134   7.271  0.00  0.00    +0.000 A 
ATOM     14  S   UNL     1      47.701   2.285   6.390  0.00  0.00    +0.000 S 
ATOM     15  C   UNL     1      47.288   0.860   7.250  0.00  0.00    +0.000 A 
ATOM     16  N   UNL     1      46.328   0.968   8.143  0.00  0.00    +0.000 NA
ENDBRANCH   9  12
ENDBRANCH   7  10
ENDBRANCH   1   7
BRANCH   4  17
ATOM     17  C   UNL     1      47.501   6.125  14.587  0.00  0.00    +0.000 C 
BRANCH  17  18
ATOM     18  N   UNL     1      48.871   6.553  14.405  0.00  0.00    +0.000 N 
ATOM     19  C   UNL     1      49.511   7.313  15.358  0.00  0.00    +0.000 C 
ATOM     20  O   UNL     1      48.978   7.623  16.417  0.00  0.00    +0.000 OA
ATOM     21  H   UNL     1      49.238   6.596  13.458  0.00  0.00    +0.000 HD
BRANCH  19  22
ATOM     22  C   UNL     1      50.904   7.684  15.067  0.00  0.00    +0.000 A 
ATOM     23  C   UNL     1      51.173   8.656  14.119  0.00  0.00    +0.000 A 
ATOM     24  S   UNL     1      52.840   8.965  13.915  0.00  0.00    +0.000 S 
ATOM     25  C   UNL     1      53.253   7.786  15.069  0.00  0.00    +0.000 A 
ATOM     26  N   UNL     1      54.556   7.511  15.358  0.00  0.00    +0.000 NA
ATOM     27  C   UNL     1      54.724   6.579  16.234  0.00  0.00    +0.000 A 
ATOM     28  N   UNL     1      53.704   5.896  16.854  0.00  0.00    +0.000 N 
ATOM     29  C   UNL     1      52.376   6.146  16.602  0.00  0.00    +0.000 A 
ATOM     30  O   UNL     1      51.493   5.538  17.189  0.00  0.00    +0.000 OA
ATOM     31  C   UNL     1      52.137   7.183  15.616  0.00  0.00    +0.000 A 
ATOM     32  H   UNL     1      53.900   5.184  17.539  0.00  0.00    +0.000 HD
ENDBRANCH  19  22
ENDBRANCH  17  18
ENDBRANCH   4  17
TORSDOF 6
ENDMDL
MODEL 8
REMARK VINA RESULT:    -6.188      4.018      4.806
REMARK INTER + INTRA:          -9.256
REMARK INTER:                  -8.755
REMARK INTRA:                  -0.502
REMARK UNBOUND:                -0.898
REMARK  Name = 
REMARK  6 active torsions:
REMARK  status: ('A' for Active; 'I' for Inactive)
REMARK    1  A    between atoms: C_2  and  C_25
REMARK    2  A    between atoms: N_3  and  C_4
REMARK    3  A    between atoms: C_4  and  C_5
REMARK    4  A    between atoms: C_8  and  C_9
REMARK    5  A    between atoms: C_9  and  N_10
REMARK    6  A    between atoms: C_11  and  C_13
REMARK                            x       y       z     vdW  Elec       q    Type
REMARK                         _______ _______ _______ _____ _____    ______ ____
ROOT
ATOM      1  C   UNL     1      44.282   4.163  12.235  0.00  0.00    +0.000 C 
ATOM      2  C   UNL     1      44.044   5.565  11.670  0.00  0.00    +0.000 C 
ATOM      3  C   UNL     1      44.706   6.642  12.513  0.00  0.00    +0.000 C 
ATOM      4  C   UNL     1      46.213   6.414  12.686  0.00  0.00    +0.000 C 
ATOM      5  C   UNL     1      46.458   5.009  13.260  0.00  0.00    +0.000 C 
ATOM      6  C   UNL     1      45.788   3.919  12.419  0.00  0.00    +0.000 C 
ENDROOT
BRANCH   1   7
ATOM      7  C   UNL     1      43.667   3.102  11.307  0.00  0.00    +0.000 C 
BRANCH   7  10
ATOM      8  O   UNL     1      43.998   4.345   8.827  0.00  0.00    +0.000 OA
ATOM      9  C   UNL     1      44.674   3.354   9.075  0.00  0.00    +0.000 C 
ATOM     10  N   UNL     1      44.586   2.675  10.273  0.00  0.00    +0.000 N 
ATOM     11  H   UNL     1      45.321   1.997  10.472  0.00  0.00    +0.000 HD
BRANCH   9  12
ATOM     12  C   UNL     1      45.649   2.810   8.122  0.00  0.00    +0.000 A 
ATOM     13  C   UNL     1      46.205   1.548   8.236  0.00  0.00    +0.000 A 
ATOM     14  S   UNL     1      47.268   1.237   6.927  0.00  0.00    +0.000 S 
ATOM     15  C   UNL     1      46.931   2.804   6.315  0.00  0.00    +0.000 A 
ATOM     16  N   UNL     1      46.088   3.538   7.009  0.00  0.00    +0.000 NA
ENDBRANCH   9  12
ENDBRANCH   7  10
ENDBRANCH   1   7
BRANCH   4  17
ATOM     17  C   UNL     1      46.851   7.486  13.589  0.00  0.00    +0.000 C 
BRANCH  17  18
ATOM     18  N   UNL     1      48.075   8.031  13.045  0.00  0.00    +0.000 N 
ATOM     19  C   UNL     1      49.305   7.558  13.446  0.00  0.00    +0.000 C 
ATOM     20  O   UNL     1      49.425   6.631  14.237  0.00  0.00    +0.000 OA
ATOM     21  H   UNL     1      48.049   8.966  12.647  0.00  0.00    +0.000 HD
BRANCH  19  22
ATOM     22  C   UNL     1      50.479   8.185  12.820  0.00  0.00    +0.000 A 
ATOM     23  C   UNL     1      50.710   8.015  11.466  0.00  0.00    +0.000 A 
ATOM     24  S   UNL     1      52.110   8.818  10.909  0.00  0.00    +0.000 S 
ATOM     25  C   UNL     1      52.466   9.394  12.470  0.00  0.00    +0.000 A 
ATOM     26  N   UNL     1      53.580  10.141  12.707  0.00  0.00    +0.000 NA
ATOM     27  C   UNL     1      53.737  10.490  13.939  0.00  0.00    +0.000 A 
ATOM     28  N   UNL     1      52.875  10.163  14.959  0.00  0.00    +0.000 N 
ATOM     29  C   UNL     1      51.735   9.421  14.766  0.00  0.00    +0.000 A 
ATOM     30  O   UNL     1      50.977   9.169  15.691  0.00  0.00    +0.000 OA
ATOM     31  C   UNL     1      51.519   8.998  13.395  0.00  0.00    +0.000 A 
ATOM     32  H   UNL     1      53.049  10.475  15.902  0.00  0.00    +0.000 HD
ENDBRANCH  19  22
ENDBRANCH  17  18
ENDBRANCH   4  17
TORSDOF 6
ENDMDL
MODEL 9
REMARK VINA RESULT:    -6.039      2.242      2.898
REMARK INTER + INTRA:          -9.054
REMARK INTER:                  -8.441
REMARK INTRA:                  -0.614
REMARK UNBOUND:                -0.898
REMARK  Name = 
REMARK  6 active torsions:
REMARK  status: ('A' for Active; 'I' for Inactive)
REMARK    1  A    between atoms: C_2  and  C_25
REMARK    2  A    between atoms: N_3  and  C_4
REMARK    3  A    between atoms: C_4  and  C_5
REMARK    4  A    between atoms: C_8  and  C_9
REMARK    5  A    between atoms: C_9  and  N_10
REMARK    6  A    between atoms: C_11  and  C_13
REMARK                            x       y       z     vdW  Elec       q    Type
REMARK                         _______ _______ _______ _____ _____    ______ ____
ROOT
ATOM      1  C   UNL     1      45.133   5.521  11.417  0.00  0.00    +0.000 C 
ATOM      2  C   UNL     1      46.211   6.406  12.046  0.00  0.00    +0.000 C 
ATOM      3  C   UNL     1      46.413   6.102  13.521  0.00  0.00    +0.000 C 
ATOM      4  C   UNL     1      46.753   4.628  13.778  0.00  0.00    +0.000 C 
ATOM      5  C   UNL     1      45.669   3.734  13.154  0.00  0.00    +0.000 C 
ATOM      6  C   UNL     1      45.455   4.039  11.670  0.00  0.00    +0.000 C 
ENDROOT
BRANCH   1   7
ATOM      7  C   UNL     1      45.022   5.805   9.910  0.00  0.00    +0.000 C 
BRANCH   7  10
ATOM      8  O   UNL     1      44.037   3.510   8.658  0.00  0.00    +0.000 OA
ATOM      9  C   UNL     1      45.228   3.771   8.539  0.00  0.00    +0.000 C 
ATOM     10  N   UNL     1      45.807   4.884   9.115  0.00  0.00    +0.000 N 
ATOM     11  H   UNL     1      46.743   5.131   8.799  0.00  0.00    +0.000 HD
BRANCH   9  12
ATOM     12  C   UNL     1      46.142   2.928   7.761  0.00  0.00    +0.000 A 
ATOM     13  C   UNL     1      46.907   3.400   6.707  0.00  0.00    +0.000 A 
ATOM     14  S   UNL     1      47.884   2.148   6.062  0.00  0.00    +0.000 S 
ATOM     15  C   UNL     1      47.208   1.066   7.209  0.00  0.00    +0.000 A 
ATOM     16  N   UNL     1      46.315   1.566   8.035  0.00  0.00    +0.000 NA
ENDBRANCH   9  12
ENDBRANCH   7  10
ENDBRANCH   1   7
BRANCH   4  17
ATOM     17  C   UNL     1      46.898   4.332  15.283  0.00  0.00    +0.000 C 
BRANCH  17  18
ATOM     18  N   UNL     1      47.825   5.220  15.949  0.00  0.00    +0.000 N 
ATOM     19  C   UNL     1      48.895   4.727  16.663  0.00  0.00    +0.000 C 
ATOM     20  O   UNL     1      49.142   3.529  16.730  0.00  0.00    +0.000 OA
ATOM     21  H   UNL     1      47.508   6.157  16.184  0.00  0.00    +0.000 HD
BRANCH  19  22
ATOM     22  C   UNL     1      49.772   5.724  17.293  0.00  0.00    +0.000 A 
ATOM     23  C   UNL     1      50.071   5.624  18.640  0.00  0.00    +0.000 A 
ATOM     24  S   UNL     1      51.108   6.860  19.201  0.00  0.00    +0.000 S 
ATOM     25  C   UNL     1      51.163   7.585  17.664  0.00  0.00    +0.000 A 
ATOM     26  N   UNL     1      51.866   8.732  17.452  0.00  0.00    +0.000 NA
ATOM     27  C   UNL     1      51.801   9.183  16.244  0.00  0.00    +0.000 A 
ATOM     28  N   UNL     1      51.099   8.586  15.224  0.00  0.00    +0.000 N 
ATOM     29  C   UNL     1      50.384   7.424  15.388  0.00  0.00    +0.000 A 
ATOM     30  O   UNL     1      49.791   6.906  14.454  0.00  0.00    +0.000 OA
ATOM     31  C   UNL     1      50.421   6.881  16.734  0.00  0.00    +0.000 A 
ATOM     32  H   UNL     1      51.096   8.983  14.298  0.00  0.00    +0.000 HD
ENDBRANCH  19  22
ENDBRANCH  17  18
ENDBRANCH   4  17
TORSDOF 6
ENDMDL
