MODEL 1
REMARK VINA RESULT:    -8.289      0.000      0.000
REMARK INTER + INTRA:         -13.167
REMARK INTER:                 -11.924
REMARK INTRA:                  -1.243
REMARK UNBOUND:                -1.243
REMARK  Name = 
REMARK  8 active torsions:
REMARK  status: ('A' for Active; 'I' for Inactive)
REMARK    1  A    between atoms: C_2  and  C_20
REMARK    2  A    between atoms: N_3  and  C_4
REMARK    3  A    between atoms: C_4  and  C_5
REMARK    4  A    between atoms: C_8  and  C_9
REMARK    5  A    between atoms: C_9  and  C_10
REMARK    6  A    between atoms: C_10  and  O_11
REMARK    7  A    between atoms: C_10  and  C_12
REMARK    8  A    between atoms: C_12  and  N_13
REMARK                            x       y       z     vdW  Elec       q    Type
REMARK                         _______ _______ _______ _____ _____    ______ ____
ROOT
ATOM      1  C   UNL     1      47.026   8.042  13.272  0.00  0.00    +0.000 C 
ENDROOT
BRANCH   1   2
ATOM      2  C   UNL     1      46.173   7.129  12.433  0.00  0.00    +0.000 A 
ATOM      3  C   UNL     1      46.677   6.628  11.228  0.00  0.00    +0.000 A 
ATOM      4  C   UNL     1      45.911   5.772  10.441  0.00  0.00    +0.000 A 
ATOM      5  C   UNL     1      44.625   5.387  10.845  0.00  0.00    +0.000 A 
ATOM      6  C   UNL     1      44.107   5.914  12.035  0.00  0.00    +0.000 A 
ATOM      7  C   UNL     1      44.873   6.782  12.820  0.00  0.00    +0.000 A 
BRANCH   5   8
ATOM      8  C   UNL     1      43.845   4.360  10.043  0.00  0.00    +0.000 C 
BRANCH   8   9
ATOM      9  C   UNL     1      44.430   2.950  10.249  0.00  0.00    +0.000 C 
BRANCH   9  10
ATOM     10  O   UNL     1      43.547   2.194  11.092  0.00  0.00    +0.000 OA
ATOM     11  H   UNL     1      42.995   2.823  11.582  0.00  0.00    +0.000 HD
ENDBRANCH   9  10
BRANCH   9  12
ATOM     12  C   UNL     1      44.683   2.186   8.922  0.00  0.00    +0.000 C 
BRANCH  12  13
ATOM     13  N   UNL     1      46.055   2.382   8.424  0.00  0.00    +0.000 NA
ATOM     14  C   UNL     1      46.212   3.497   7.484  0.00  0.00    +0.000 C 
ATOM     15  C   UNL     1      46.574   2.877   6.151  0.00  0.00    +0.000 C 
ATOM     16  C   UNL     1      47.331   1.630   6.544  0.00  0.00    +0.000 C 
ATOM     17  C   UNL     1      46.660   1.185   7.836  0.00  0.00    +0.000 C 
ENDBRANCH  12  13
ENDBRANCH   9  12
ENDBRANCH   8   9
ENDBRANCH   5   8
ENDBRANCH   1   2
BRANCH   1  20
ATOM     18  O   UNL     1      49.631   7.062  13.743  0.00  0.00    +0.000 OA
ATOM     19  C   UNL     1      48.781   6.957  14.620  0.00  0.00    +0.000 C 
ATOM     20  N   UNL     1      47.479   7.382  14.471  0.00  0.00    +0.000 N 
ATOM     21  H   UNL     1      46.893   7.447  15.290  0.00  0.00    +0.000 HD
BRANCH  19  22
ATOM     22  C   UNL     1      49.052   6.311  15.901  0.00  0.00    +0.000 A 
ATOM     23  C   UNL     1      49.924   6.840  16.841  0.00  0.00    +0.000 A 
ATOM     24  S   UNL     1      49.978   5.944  18.294  0.00  0.00    +0.000 S 
ATOM     25  C   UNL     1      48.828   4.829  17.713  0.00  0.00    +0.000 A 
ATOM     26  N   UNL     1      48.399   3.798  18.488  0.00  0.00    +0.000 NA
ATOM     27  C   UNL     1      47.513   3.047  17.923  0.00  0.00    +0.000 A 
ATOM     28  N   UNL     1      47.033   3.220  16.649  0.00  0.00    +0.000 N 
ATOM     29  C   UNL     1      47.504   4.196  15.797  0.00  0.00    +0.000 A 
ATOM     30  O   UNL     1      47.182   4.203  14.613  0.00  0.00    +0.000 OA
ATOM     31  C   UNL     1      48.438   5.118  16.416  0.00  0.00    +0.000 A 
ATOM     32  H   UNL     1      46.386   2.566  16.245  0.00  0.00    +0.000 HD
ENDBRANCH  19  22
ENDBRANCH   1  20
TORSDOF 8
ENDMDL
MODEL 2
REMARK VINA RESULT:    -7.487      2.038      2.669
REMARK INTER + INTRA:         -12.014
REMARK INTER:                 -10.926
REMARK INTRA:                  -1.088
REMARK UNBOUND:                -1.243
REMARK  Name = 
REMARK  8 active torsions:
REMARK  status: ('A' for Active; 'I' for Inactive)
REMARK    1  A    between atoms: C_2  and  C_20
REMARK    2  A    between atoms: N_3  and  C_4
REMARK    3  A    between atoms: C_4  and  C_5
REMARK    4  A    between atoms: C_8  and  C_9
REMARK    5  A    between atoms: C_9  and  C_10
REMARK    6  A    between atoms: C_10  and  O_11
REMARK    7  A    between atoms: C_10  and  C_12
REMARK    8  A    between atoms: C_12  and  N_13
REMARK                            x       y       z     vdW  Elec       q    Type
REMARK                         _______ _______ _______ _____ _____    ______ ____
ROOT
ATOM      1  C   UNL     1      47.871   7.437  13.632  0.00  0.00    +0.000 C 
ENDROOT
BRANCH   1   2
ATOM      2  C   UNL     1      46.927   6.614  12.799  0.00  0.00    +0.000 A 
ATOM      3  C   UNL     1      46.121   5.652  13.417  0.00  0.00    +0.000 A 
ATOM      4  C   UNL     1      45.231   4.886  12.668  0.00  0.00    +0.000 A 
ATOM      5  C   UNL     1      45.117   5.072  11.283  0.00  0.00    +0.000 A 
ATOM      6  C   UNL     1      45.947   6.011  10.659  0.00  0.00    +0.000 A 
ATOM      7  C   UNL     1      46.849   6.773  11.410  0.00  0.00    +0.000 A 
BRANCH   5   8
ATOM      8  C   UNL     1      44.060   4.319  10.493  0.00  0.00    +0.000 C 
BRANCH   8   9
ATOM      9  C   UNL     1      44.422   2.825  10.388  0.00  0.00    +0.000 C 
BRANCH   9  10
ATOM     10  O   UNL     1      43.413   2.050  11.052  0.00  0.00    +0.000 OA
ATOM     11  H   UNL     1      43.860   1.352  11.555  0.00  0.00    +0.000 HD
ENDBRANCH   9  10
BRANCH   9  12
ATOM     12  C   UNL     1      44.594   2.334   8.925  0.00  0.00    +0.000 C 
BRANCH  12  13
ATOM     13  N   UNL     1      45.983   2.473   8.454  0.00  0.00    +0.000 NA
ATOM     14  C   UNL     1      46.207   3.592   7.533  0.00  0.00    +0.000 C 
ATOM     15  C   UNL     1      46.565   2.972   6.198  0.00  0.00    +0.000 C 
ATOM     16  C   UNL     1      47.257   1.687   6.588  0.00  0.00    +0.000 C 
ATOM     17  C   UNL     1      46.544   1.257   7.861  0.00  0.00    +0.000 C 
ENDBRANCH  12  13
ENDBRANCH   9  12
ENDBRANCH   8   9
ENDBRANCH   5   8
ENDBRANCH   1   2
BRANCH   1  20
ATOM     18  O   UNL     1      50.083   6.634  15.193  0.00  0.00    +0.000 OA
ATOM     19  C   UNL     1      48.970   6.684  15.706  0.00  0.00    +0.000 C 
ATOM     20  N   UNL     1      47.831   7.039  15.018  0.00  0.00    +0.000 N 
ATOM     21  H   UNL     1      46.995   7.253  15.541  0.00  0.00    +0.000 HD
BRANCH  19  22
ATOM     22  C   UNL     1      48.733   6.312  17.098  0.00  0.00    +0.000 A 
ATOM     23  C   UNL     1      48.922   5.023  17.575  0.00  0.00    +0.000 A 
ATOM     24  S   UNL     1      48.677   4.883  19.260  0.00  0.00    +0.000 S 
ATOM     25  C   UNL     1      48.325   6.543  19.402  0.00  0.00    +0.000 A 
ATOM     26  N   UNL     1      48.046   7.099  20.611  0.00  0.00    +0.000 NA
ATOM     27  C   UNL     1      47.818   8.370  20.568  0.00  0.00    +0.000 A 
ATOM     28  N   UNL     1      47.823   9.131  19.426  0.00  0.00    +0.000 N 
ATOM     29  C   UNL     1      48.013   8.596  18.170  0.00  0.00    +0.000 A 
ATOM     30  O   UNL     1      47.830   9.276  17.165  0.00  0.00    +0.000 OA
ATOM     31  C   UNL     1      48.358   7.186  18.176  0.00  0.00    +0.000 A 
ATOM     32  H   UNL     1      47.581  10.106  19.451  0.00  0.00    +0.000 HD
ENDBRANCH  19  22
ENDBRANCH   1  20
TORSDOF 8
ENDMDL
MODEL 3
REMARK VINA RESULT:    -7.048      1.627      2.267
REMARK INTER + INTRA:         -11.382
REMARK INTER:                 -10.005
REMARK INTRA:                  -1.377
REMARK UNBOUND:                -1.243
REMARK  Name = 
REMARK  8 active torsions:
REMARK  status: ('A' for Active; 'I' for Inactive)
REMARK    1  A    between atoms: C_2  and  C_20
REMARK    2  A    between atoms: N_3  and  C_4
REMARK    3  A    between atoms: C_4  and  C_5
REMARK    4  A    between atoms: C_8  and  C_9
REMARK    5  A    between atoms: C_9  and  C_10
REMARK    6  A    between atoms: C_10  and  O_11
REMARK    7  A    between atoms: C_10  and  C_12
REMARK    8  A    between atoms: C_12  and  N_13
REMARK                            x       y       z     vdW  Elec       q    Type
REMARK                         _______ _______ _______ _____ _____    ______ ____
ROOT
ATOM      1  C   UNL     1      49.205   8.184  13.840  0.00  0.00    +0.000 C 
ENDROOT
BRANCH   1   2
ATOM      2  C   UNL     1      47.894   7.965  13.136  0.00  0.00    +0.000 A 
ATOM      3  C   UNL     1      47.747   6.874  12.273  0.00  0.00    +0.000 A 
ATOM      4  C   UNL     1      46.539   6.644  11.620  0.00  0.00    +0.000 A 
ATOM      5  C   UNL     1      45.442   7.494  11.823  0.00  0.00    +0.000 A 
ATOM      6  C   UNL     1      45.598   8.605  12.662  0.00  0.00    +0.000 A 
ATOM      7  C   UNL     1      46.815   8.841  13.309  0.00  0.00    +0.000 A 
BRANCH   5   8
ATOM      8  C   UNL     1      44.094   7.168  11.203  0.00  0.00    +0.000 C 
BRANCH   8   9
ATOM      9  C   UNL     1      43.628   5.762  11.624  0.00  0.00    +0.000 C 
BRANCH   9  10
ATOM     10  O   UNL     1      42.400   5.874  12.358  0.00  0.00    +0.000 OA
ATOM     11  H   UNL     1      41.768   6.358  11.805  0.00  0.00    +0.000 HD
ENDBRANCH   9  10
BRANCH   9  12
ATOM     12  C   UNL     1      43.447   4.788  10.428  0.00  0.00    +0.000 C 
BRANCH  12  13
ATOM     13  N   UNL     1      44.686   4.052  10.121  0.00  0.00    +0.000 NA
ATOM     14  C   UNL     1      45.364   4.480   8.892  0.00  0.00    +0.000 C 
ATOM     15  C   UNL     1      45.271   3.313   7.932  0.00  0.00    +0.000 C 
ATOM     16  C   UNL     1      45.266   2.111   8.848  0.00  0.00    +0.000 C 
ATOM     17  C   UNL     1      44.529   2.596  10.087  0.00  0.00    +0.000 C 
ENDBRANCH  12  13
ENDBRANCH   9  12
ENDBRANCH   8   9
ENDBRANCH   5   8
ENDBRANCH   1   2
BRANCH   1  20
ATOM     18  O   UNL     1      48.559   8.523  16.567  0.00  0.00    +0.000 OA
ATOM     19  C   UNL     1      49.038   7.459  16.190  0.00  0.00    +0.000 C 
ATOM     20  N   UNL     1      49.408   7.213  14.886  0.00  0.00    +0.000 N 
ATOM     21  H   UNL     1      49.604   6.262  14.609  0.00  0.00    +0.000 HD
BRANCH  19  22
ATOM     22  C   UNL     1      49.321   6.359  17.107  0.00  0.00    +0.000 A 
ATOM     23  C   UNL     1      50.261   6.449  18.123  0.00  0.00    +0.000 A 
ATOM     24  S   UNL     1      50.318   5.060  19.116  0.00  0.00    +0.000 S 
ATOM     25  C   UNL     1      49.079   4.305  18.226  0.00  0.00    +0.000 A 
ATOM     26  N   UNL     1      48.617   3.074  18.573  0.00  0.00    +0.000 NA
ATOM     27  C   UNL     1      47.664   2.637  17.819  0.00  0.00    +0.000 A 
ATOM     28  N   UNL     1      47.144   3.307  16.740  0.00  0.00    +0.000 N 
ATOM     29  C   UNL     1      47.640   4.515  16.298  0.00  0.00    +0.000 A 
ATOM     30  O   UNL     1      47.271   4.991  15.229  0.00  0.00    +0.000 OA
ATOM     31  C   UNL     1      48.654   5.087  17.164  0.00  0.00    +0.000 A 
ATOM     32  H   UNL     1      46.441   2.886  16.157  0.00  0.00    +0.000 HD
ENDBRANCH  19  22
ENDBRANCH   1  20
TORSDOF 8
ENDMDL
MODEL 4
REMARK VINA RESULT:    -7.038      2.551      3.348
REMARK INTER + INTRA:         -11.367
REMARK INTER:                 -10.406
REMARK INTRA:                  -0.961
REMARK UNBOUND:                -1.243
REMARK  Name = 
REMARK  8 active torsions:
REMARK  status: ('A' for Active; 'I' for Inactive)
REMARK    1  A    between atoms: C_2  and  C_20
REMARK    2  A    between atoms: N_3  and  C_4
REMARK    3  A    between atoms: C_4  and  C_5
REMARK    4  A    between atoms: C_8  and  C_9
REMARK    5  A    between atoms: C_9  and  C_10
REMARK    6  A    between atoms: C_10  and  O_11
REMARK    7  A    between atoms: C_10  and  C_12
REMARK    8  A    between atoms: C_12  and  N_13
REMARK                            x       y       z     vdW  Elec       q    Type
REMARK                         _______ _______ _______ _____ _____    ______ ____
ROOT
ATOM      1  C   UNL     1      46.665   4.136  15.788  0.00  0.00    +0.000 C 
ENDROOT
BRANCH   1   2
ATOM      2  C   UNL     1      46.449   4.550  14.358  0.00  0.00    +0.000 A 
ATOM      3  C   UNL     1      45.525   3.855  13.570  0.00  0.00    +0.000 A 
ATOM      4  C   UNL     1      45.300   4.227  12.247  0.00  0.00    +0.000 A 
ATOM      5  C   UNL     1      45.986   5.312  11.682  0.00  0.00    +0.000 A 
ATOM      6  C   UNL     1      46.935   5.987  12.459  0.00  0.00    +0.000 A 
ATOM      7  C   UNL     1      47.168   5.606  13.785  0.00  0.00    +0.000 A 
BRANCH   5   8
ATOM      8  C   UNL     1      45.647   5.786  10.279  0.00  0.00    +0.000 C 
BRANCH   8   9
ATOM      9  C   UNL     1      45.248   4.597   9.385  0.00  0.00    +0.000 C 
BRANCH   9  10
ATOM     10  O   UNL     1      43.850   4.691   9.074  0.00  0.00    +0.000 OA
ATOM     11  H   UNL     1      43.500   5.478   9.520  0.00  0.00    +0.000 HD
ENDBRANCH   9  10
BRANCH   9  12
ATOM     12  C   UNL     1      46.080   4.501   8.078  0.00  0.00    +0.000 C 
BRANCH  12  13
ATOM     13  N   UNL     1      45.827   3.246   7.351  0.00  0.00    +0.000 NA
ATOM     14  C   UNL     1      45.979   2.030   8.156  0.00  0.00    +0.000 C 
ATOM     15  C   UNL     1      47.171   1.292   7.585  0.00  0.00    +0.000 C 
ATOM     16  C   UNL     1      47.143   1.670   6.123  0.00  0.00    +0.000 C 
ATOM     17  C   UNL     1      46.607   3.094   6.120  0.00  0.00    +0.000 C 
ENDBRANCH  12  13
ENDBRANCH   9  12
ENDBRANCH   8   9
ENDBRANCH   5   8
ENDBRANCH   1   2
BRANCH   1  20
ATOM     18  O   UNL     1      47.753   4.795  18.309  0.00  0.00    +0.000 OA
ATOM     19  C   UNL     1      48.503   4.458  17.399  0.00  0.00    +0.000 C 
ATOM     20  N   UNL     1      48.066   4.145  16.131  0.00  0.00    +0.000 N 
ATOM     21  H   UNL     1      48.704   3.688  15.497  0.00  0.00    +0.000 HD
BRANCH  19  22
ATOM     22  C   UNL     1      49.954   4.413  17.556  0.00  0.00    +0.000 A 
ATOM     23  C   UNL     1      50.709   5.525  17.898  0.00  0.00    +0.000 A 
ATOM     24  S   UNL     1      52.366   5.175  18.122  0.00  0.00    +0.000 S 
ATOM     25  C   UNL     1      52.119   3.525  17.782  0.00  0.00    +0.000 A 
ATOM     26  N   UNL     1      53.150   2.639  17.828  0.00  0.00    +0.000 NA
ATOM     27  C   UNL     1      52.809   1.421  17.566  0.00  0.00    +0.000 A 
ATOM     28  N   UNL     1      51.540   1.011  17.243  0.00  0.00    +0.000 N 
ATOM     29  C   UNL     1      50.484   1.885  17.099  0.00  0.00    +0.000 A 
ATOM     30  O   UNL     1      49.414   1.504  16.634  0.00  0.00    +0.000 OA
ATOM     31  C   UNL     1      50.799   3.253  17.466  0.00  0.00    +0.000 A 
ATOM     32  H   UNL     1      51.351   0.056  16.993  0.00  0.00    +0.000 HD
ENDBRANCH  19  22
ENDBRANCH   1  20
TORSDOF 8
ENDMDL
MODEL 5
REMARK VINA RESULT:    -6.862      2.459      3.684
REMARK INTER + INTRA:         -11.114
REMARK INTER:                 -10.136
REMARK INTRA:                  -0.978
REMARK UNBOUND:                -1.243
REMARK  Name = 
REMARK  8 active torsions:
REMARK  status: ('A' for Active; 'I' for Inactive)
REMARK    1  A    between atoms: C_2  and  C_20
REMARK    2  A    between atoms: N_3  and  C_4
REMARK    3  A    between atoms: C_4  and  C_5
REMARK    4  A    between atoms: C_8  and  C_9
REMARK    5  A    between atoms: C_9  and  C_10
REMARK    6  A    between atoms: C_10  and  O_11
REMARK    7  A    between atoms: C_10  and  C_12
REMARK    8  A    between atoms: C_12  and  N_13
REMARK                            x       y       z     vdW  Elec       q    Type
REMARK                         _______ _______ _______ _____ _____    ______ ____
ROOT
ATOM      1  C   UNL     1      47.560   4.069  15.656  0.00  0.00    +0.000 C 
ENDROOT
BRANCH   1   2
ATOM      2  C   UNL     1      47.064   4.462  14.291  0.00  0.00    +0.000 A 
ATOM      3  C   UNL     1      46.246   3.582  13.574  0.00  0.00    +0.000 A 
ATOM      4  C   UNL     1      45.766   3.928  12.314  0.00  0.00    +0.000 A 
ATOM      5  C   UNL     1      46.082   5.170  11.743  0.00  0.00    +0.000 A 
ATOM      6  C   UNL     1      46.928   6.037  12.445  0.00  0.00    +0.000 A 
ATOM      7  C   UNL     1      47.419   5.684  13.707  0.00  0.00    +0.000 A 
BRANCH   5   8
ATOM      8  C   UNL     1      45.456   5.588  10.424  0.00  0.00    +0.000 C 
BRANCH   8   9
ATOM      9  C   UNL     1      44.397   4.564   9.975  0.00  0.00    +0.000 C 
BRANCH   9  10
ATOM     10  O   UNL     1      43.098   5.172  10.044  0.00  0.00    +0.000 OA
ATOM     11  H   UNL     1      42.652   4.827  10.833  0.00  0.00    +0.000 HD
ENDBRANCH   9  10
BRANCH   9  12
ATOM     12  C   UNL     1      44.648   4.001   8.551  0.00  0.00    +0.000 C 
BRANCH  12  13
ATOM     13  N   UNL     1      45.964   3.351   8.436  0.00  0.00    +0.000 NA
ATOM     14  C   UNL     1      46.744   3.750   7.260  0.00  0.00    +0.000 C 
ATOM     15  C   UNL     1      46.849   2.518   6.386  0.00  0.00    +0.000 C 
ATOM     16  C   UNL     1      46.829   1.384   7.384  0.00  0.00    +0.000 C 
ATOM     17  C   UNL     1      45.922   1.888   8.496  0.00  0.00    +0.000 C 
ENDBRANCH  12  13
ENDBRANCH   9  12
ENDBRANCH   8   9
ENDBRANCH   5   8
ENDBRANCH   1   2
BRANCH   1  20
ATOM     18  O   UNL     1      49.739   5.567  16.647  0.00  0.00    +0.000 OA
ATOM     19  C   UNL     1      48.600   5.862  16.991  0.00  0.00    +0.000 C 
ATOM     20  N   UNL     1      47.480   5.173  16.580  0.00  0.00    +0.000 N 
ATOM     21  H   UNL     1      46.572   5.586  16.736  0.00  0.00    +0.000 HD
BRANCH  19  22
ATOM     22  C   UNL     1      48.321   6.947  17.927  0.00  0.00    +0.000 A 
ATOM     23  C   UNL     1      48.153   6.742  19.289  0.00  0.00    +0.000 A 
ATOM     24  S   UNL     1      47.945   8.190  20.170  0.00  0.00    +0.000 S 
ATOM     25  C   UNL     1      48.087   9.134  18.760  0.00  0.00    +0.000 A 
ATOM     26  N   UNL     1      48.026  10.491  18.816  0.00  0.00    +0.000 NA
ATOM     27  C   UNL     1      48.168  11.072  17.671  0.00  0.00    +0.000 A 
ATOM     28  N   UNL     1      48.345  10.423  16.476  0.00  0.00    +0.000 N 
ATOM     29  C   UNL     1      48.325   9.049  16.359  0.00  0.00    +0.000 A 
ATOM     30  O   UNL     1      48.305   8.515  15.254  0.00  0.00    +0.000 OA
ATOM     31  C   UNL     1      48.253   8.352  17.629  0.00  0.00    +0.000 A 
ATOM     32  H   UNL     1      48.392  10.932  15.610  0.00  0.00    +0.000 HD
ENDBRANCH  19  22
ENDBRANCH   1  20
TORSDOF 8
ENDMDL
MODEL 6
REMARK VINA RESULT:    -6.836      2.703      3.372
REMARK INTER + INTRA:         -11.076
REMARK INTER:                 -10.063
REMARK INTRA:                  -1.013
REMARK UNBOUND:                -1.243
REMARK  Name = 
REMARK  8 active torsions:
REMARK  status: ('A' for Active; 'I' for Inactive)
REMARK    1  A    between atoms: C_2  and  C_20
REMARK    2  A    between atoms: N_3  and  C_4
REMARK    3  A    between atoms: C_4  and  C_5
REMARK    4  A    between atoms: C_8  and  C_9
REMARK    5  A    between atoms: C_9  and  C_10
REMARK    6  A    between atoms: C_10  and  O_11
REMARK    7  A    between atoms: C_10  and  C_12
REMARK    8  A    between atoms: C_12  and  N_13
REMARK                            x       y       z     vdW  Elec       q    Type
REMARK                         _______ _______ _______ _____ _____    ______ ____
ROOT
ATOM      1  C   UNL     1      47.503   4.523  15.677  0.00  0.00    +0.000 C 
ENDROOT
BRANCH   1   2
ATOM      2  C   UNL     1      46.978   4.781  14.291  0.00  0.00    +0.000 A 
ATOM      3  C   UNL     1      47.365   5.940  13.610  0.00  0.00    +0.000 A 
ATOM      4  C   UNL     1      46.900   6.194  12.322  0.00  0.00    +0.000 A 
ATOM      5  C   UNL     1      46.046   5.288  11.677  0.00  0.00    +0.000 A 
ATOM      6  C   UNL     1      45.632   4.143  12.370  0.00  0.00    +0.000 A 
ATOM      7  C   UNL     1      46.091   3.894  13.668  0.00  0.00    +0.000 A 
BRANCH   5   8
ATOM      8  C   UNL     1      45.642   5.512  10.230  0.00  0.00    +0.000 C 
BRANCH   8   9
ATOM      9  C   UNL     1      44.561   4.501   9.805  0.00  0.00    +0.000 C 
BRANCH   9  10
ATOM     10  O   UNL     1      43.273   5.131   9.881  0.00  0.00    +0.000 OA
ATOM     11  H   UNL     1      43.402   6.025  10.234  0.00  0.00    +0.000 HD
ENDBRANCH   9  10
BRANCH   9  12
ATOM     12  C   UNL     1      44.786   3.919   8.383  0.00  0.00    +0.000 C 
BRANCH  12  13
ATOM     13  N   UNL     1      46.089   3.243   8.262  0.00  0.00    +0.000 NA
ATOM     14  C   UNL     1      46.851   3.594   7.058  0.00  0.00    +0.000 C 
ATOM     15  C   UNL     1      46.917   2.335   6.220  0.00  0.00    +0.000 C 
ATOM     16  C   UNL     1      46.899   1.231   7.251  0.00  0.00    +0.000 C 
ATOM     17  C   UNL     1      46.023   1.783   8.366  0.00  0.00    +0.000 C 
ENDBRANCH  12  13
ENDBRANCH   9  12
ENDBRANCH   8   9
ENDBRANCH   5   8
ENDBRANCH   1   2
BRANCH   1  20
ATOM     18  O   UNL     1      50.076   5.135  16.666  0.00  0.00    +0.000 OA
ATOM     19  C   UNL     1      49.182   5.969  16.757  0.00  0.00    +0.000 C 
ATOM     20  N   UNL     1      47.891   5.750  16.326  0.00  0.00    +0.000 N 
ATOM     21  H   UNL     1      47.266   6.539  16.248  0.00  0.00    +0.000 HD
BRANCH  19  22
ATOM     22  C   UNL     1      49.385   7.269  17.390  0.00  0.00    +0.000 A 
ATOM     23  C   UNL     1      50.145   8.277  16.814  0.00  0.00    +0.000 A 
ATOM     24  S   UNL     1      50.132   9.730  17.710  0.00  0.00    +0.000 S 
ATOM     25  C   UNL     1      49.101   9.060  18.888  0.00  0.00    +0.000 A 
ATOM     26  N   UNL     1      48.670   9.799  19.944  0.00  0.00    +0.000 NA
ATOM     27  C   UNL     1      47.878   9.164  20.744  0.00  0.00    +0.000 A 
ATOM     28  N   UNL     1      47.495   7.855  20.595  0.00  0.00    +0.000 N 
ATOM     29  C   UNL     1      47.976   7.043  19.591  0.00  0.00    +0.000 A 
ATOM     30  O   UNL     1      47.751   5.836  19.599  0.00  0.00    +0.000 OA
ATOM     31  C   UNL     1      48.801   7.735  18.618  0.00  0.00    +0.000 A 
ATOM     32  H   UNL     1      46.922   7.400  21.285  0.00  0.00    +0.000 HD
ENDBRANCH  19  22
ENDBRANCH   1  20
TORSDOF 8
ENDMDL
MODEL 7
REMARK VINA RESULT:    -6.585      3.703      5.350
REMARK INTER + INTRA:         -10.715
REMARK INTER:                  -9.504
REMARK INTRA:                  -1.211
REMARK UNBOUND:                -1.243
REMARK  Name = 
REMARK  8 active torsions:
REMARK  status: ('A' for Active; 'I' for Inactive)
REMARK    1  A    between atoms: C_2  and  C_20
REMARK    2  A    between atoms: N_3  and  C_4
REMARK    3  A    between atoms: C_4  and  C_5
REMARK    4  A    between atoms: C_8  and  C_9
REMARK    5  A    between atoms: C_9  and  C_10
REMARK    6  A    between atoms: C_10  and  O_11
REMARK    7  A    between atoms: C_10  and  C_12
REMARK    8  A    between atoms: C_12  and  N_13
REMARK                            x       y       z     vdW  Elec       q    Type
REMARK                         _______ _______ _______ _____ _____    ______ ____
ROOT
ATOM      1  C   UNL     1      48.744   4.991  17.476  0.00  0.00    +0.000 C 
ENDROOT
BRANCH   1   2
ATOM      2  C   UNL     1      48.198   5.285  16.105  0.00  0.00    +0.000 A 
ATOM      3  C   UNL     1      47.251   4.423  15.539  0.00  0.00    +0.000 A 
ATOM      4  C   UNL     1      46.723   4.681  14.277  0.00  0.00    +0.000 A 
ATOM      5  C   UNL     1      47.120   5.815  13.553  0.00  0.00    +0.000 A 
ATOM      6  C   UNL     1      48.091   6.660  14.104  0.00  0.00    +0.000 A 
ATOM      7  C   UNL     1      48.629   6.395  15.368  0.00  0.00    +0.000 A 
BRANCH   5   8
ATOM      8  C   UNL     1      46.450   6.153  12.232  0.00  0.00    +0.000 C 
BRANCH   8   9
ATOM      9  C   UNL     1      45.011   6.649  12.463  0.00  0.00    +0.000 C 
BRANCH   9  10
ATOM     10  O   UNL     1      45.051   8.008  12.924  0.00  0.00    +0.000 OA
ATOM     11  H   UNL     1      44.230   8.180  13.410  0.00  0.00    +0.000 HD
ENDBRANCH   9  10
BRANCH   9  12
ATOM     12  C   UNL     1      44.111   6.540  11.203  0.00  0.00    +0.000 C 
BRANCH  12  13
ATOM     13  N   UNL     1      43.247   5.348  11.241  0.00  0.00    +0.000 NA
ATOM     14  C   UNL     1      42.937   4.858  12.589  0.00  0.00    +0.000 C 
ATOM     15  C   UNL     1      43.607   3.506  12.710  0.00  0.00    +0.000 C 
ATOM     16  C   UNL     1      43.581   2.979  11.294  0.00  0.00    +0.000 C 
ATOM     17  C   UNL     1      43.733   4.225  10.435  0.00  0.00    +0.000 C 
ENDBRANCH  12  13
ENDBRANCH   9  12
ENDBRANCH   8   9
ENDBRANCH   5   8
ENDBRANCH   1   2
BRANCH   1  20
ATOM     18  O   UNL     1      50.494   4.655  19.665  0.00  0.00    +0.000 OA
ATOM     19  C   UNL     1      50.878   4.366  18.537  0.00  0.00    +0.000 C 
ATOM     20  N   UNL     1      50.105   4.521  17.408  0.00  0.00    +0.000 N 
ATOM     21  H   UNL     1      50.405   4.081  16.550  0.00  0.00    +0.000 HD
BRANCH  19  22
ATOM     22  C   UNL     1      52.229   3.879  18.271  0.00  0.00    +0.000 A 
ATOM     23  C   UNL     1      53.364   4.642  18.503  0.00  0.00    +0.000 A 
ATOM     24  S   UNL     1      54.819   3.798  18.210  0.00  0.00    +0.000 S 
ATOM     25  C   UNL     1      53.975   2.383  17.777  0.00  0.00    +0.000 A 
ATOM     26  N   UNL     1      54.640   1.248  17.433  0.00  0.00    +0.000 NA
ATOM     27  C   UNL     1      53.869   0.252  17.149  0.00  0.00    +0.000 A 
ATOM     28  N   UNL     1      52.498   0.291  17.157  0.00  0.00    +0.000 N 
ATOM     29  C   UNL     1      51.782   1.441  17.412  0.00  0.00    +0.000 A 
ATOM     30  O   UNL     1      50.569   1.478  17.232  0.00  0.00    +0.000 OA
ATOM     31  C   UNL     1      52.603   2.566  17.821  0.00  0.00    +0.000 A 
ATOM     32  H   UNL     1      51.954  -0.504  16.869  0.00  0.00    +0.000 HD
ENDBRANCH  19  22
ENDBRANCH   1  20
TORSDOF 8
ENDMDL
MODEL 8
REMARK VINA RESULT:    -6.523      2.879      8.065
REMARK INTER + INTRA:         -10.626
REMARK INTER:                  -9.297
REMARK INTRA:                  -1.329
REMARK UNBOUND:                -1.243
REMARK  Name = 
REMARK  8 active torsions:
REMARK  status: ('A' for Active; 'I' for Inactive)
REMARK    1  A    between atoms: C_2  and  C_20
REMARK    2  A    between atoms: N_3  and  C_4
REMARK    3  A    between atoms: C_4  and  C_5
REMARK    4  A    between atoms: C_8  and  C_9
REMARK    5  A    between atoms: C_9  and  C_10
REMARK    6  A    between atoms: C_10  and  O_11
REMARK    7  A    between atoms: C_10  and  C_12
REMARK    8  A    between atoms: C_12  and  N_13
REMARK                            x       y       z     vdW  Elec       q    Type
REMARK                         _______ _______ _______ _____ _____    ______ ____
ROOT
ATOM      1  C   UNL     1      47.418   7.953  11.821  0.00  0.00    +0.000 C 
ENDROOT
BRANCH   1   2
ATOM      2  C   UNL     1      48.172   8.050  13.119  0.00  0.00    +0.000 A 
ATOM      3  C   UNL     1      47.648   8.817  14.166  0.00  0.00    +0.000 A 
ATOM      4  C   UNL     1      48.323   8.912  15.380  0.00  0.00    +0.000 A 
ATOM      5  C   UNL     1      49.533   8.233  15.582  0.00  0.00    +0.000 A 
ATOM      6  C   UNL     1      50.075   7.493  14.525  0.00  0.00    +0.000 A 
ATOM      7  C   UNL     1      49.402   7.406  13.301  0.00  0.00    +0.000 A 
BRANCH   5   8
ATOM      8  C   UNL     1      50.199   8.245  16.948  0.00  0.00    +0.000 C 
BRANCH   8   9
ATOM      9  C   UNL     1      50.740   6.846  17.300  0.00  0.00    +0.000 C 
BRANCH   9  10
ATOM     10  O   UNL     1      51.811   6.982  18.247  0.00  0.00    +0.000 OA
ATOM     11  H   UNL     1      51.532   7.623  18.919  0.00  0.00    +0.000 HD
ENDBRANCH   9  10
BRANCH   9  12
ATOM     12  C   UNL     1      49.654   5.887  17.857  0.00  0.00    +0.000 C 
BRANCH  12  13
ATOM     13  N   UNL     1      49.331   4.807  16.909  0.00  0.00    +0.000 NA
ATOM     14  C   UNL     1      47.949   4.815  16.419  0.00  0.00    +0.000 C 
ATOM     15  C   UNL     1      47.298   3.564  16.970  0.00  0.00    +0.000 C 
ATOM     16  C   UNL     1      48.448   2.588  17.060  0.00  0.00    +0.000 C 
ATOM     17  C   UNL     1      49.647   3.462  17.397  0.00  0.00    +0.000 C 
ENDBRANCH  12  13
ENDBRANCH   9  12
ENDBRANCH   8   9
ENDBRANCH   5   8
ENDBRANCH   1   2
BRANCH   1  20
ATOM     18  O   UNL     1      44.625   7.553  11.735  0.00  0.00    +0.000 OA
ATOM     19  C   UNL     1      45.374   6.587  11.640  0.00  0.00    +0.000 C 
ATOM     20  N   UNL     1      46.748   6.683  11.698  0.00  0.00    +0.000 N 
ATOM     21  H   UNL     1      47.301   5.887  11.416  0.00  0.00    +0.000 HD
BRANCH  19  22
ATOM     22  C   UNL     1      44.878   5.220  11.516  0.00  0.00    +0.000 A 
ATOM     23  C   UNL     1      44.209   4.566  12.540  0.00  0.00    +0.000 A 
ATOM     24  S   UNL     1      43.641   3.017  12.097  0.00  0.00    +0.000 S 
ATOM     25  C   UNL     1      44.261   3.182  10.519  0.00  0.00    +0.000 A 
ATOM     26  N   UNL     1      44.092   2.199   9.594  0.00  0.00    +0.000 NA
ATOM     27  C   UNL     1      44.598   2.472   8.437  0.00  0.00    +0.000 A 
ATOM     28  N   UNL     1      45.274   3.625   8.126  0.00  0.00    +0.000 N 
ATOM     29  C   UNL     1      45.545   4.607   9.054  0.00  0.00    +0.000 A 
ATOM     30  O   UNL     1      46.304   5.533   8.783  0.00  0.00    +0.000 OA
ATOM     31  C   UNL     1      44.923   4.385  10.346  0.00  0.00    +0.000 A 
ATOM     32  H   UNL     1      45.695   3.752   7.222  0.00  0.00    +0.000 HD
ENDBRANCH  19  22
ENDBRANCH   1  20
TORSDOF 8
ENDMDL
MODEL 9
REMARK VINA RESULT:    -6.462      3.193      4.763
REMARK INTER + INTRA:         -10.538
REMARK INTER:                  -9.469
REMARK INTRA:                  -1.069
REMARK UNBOUND:                -1.243
REMARK  Name = 
REMARK  8 active torsions:
REMARK  status: ('A' for Active; 'I' for Inactive)
REMARK    1  A    between atoms: C_2  and  C_20
REMARK    2  A    between atoms: N_3  and  C_4
REMARK    3  A    between atoms: C_4  and  C_5
REMARK    4  A    between atoms: C_8  and  C_9
REMARK    5  A    between atoms: C_9  and  C_10
REMARK    6  A    between atoms: C_10  and  O_11
REMARK    7  A    between atoms: C_10  and  C_12
REMARK    8  A    between atoms: C_12  and  N_13
REMARK                            x       y       z     vdW  Elec       q    Type
REMARK                         _______ _______ _______ _____ _____    ______ ____
ROOT
ATOM      1  C   UNL     1      48.273   6.308  14.534  0.00  0.00    +0.000 C 
ENDROOT
BRANCH   1   2
ATOM      2  C   UNL     1      47.203   5.886  13.564  0.00  0.00    +0.000 A 
ATOM      3  C   UNL     1      47.020   6.608  12.380  0.00  0.00    +0.000 A 
ATOM      4  C   UNL     1      46.044   6.229  11.462  0.00  0.00    +0.000 A 
ATOM      5  C   UNL     1      45.234   5.110  11.700  0.00  0.00    +0.000 A 
ATOM      6  C   UNL     1      45.394   4.406  12.899  0.00  0.00    +0.000 A 
ATOM      7  C   UNL     1      46.368   4.793  13.826  0.00  0.00    +0.000 A 
BRANCH   5   8
ATOM      8  C   UNL     1      44.256   4.632  10.639  0.00  0.00    +0.000 C 
BRANCH   8   9
ATOM      9  C   UNL     1      44.493   3.146  10.312  0.00  0.00    +0.000 C 
BRANCH   9  10
ATOM     10  O   UNL     1      43.425   2.366  10.870  0.00  0.00    +0.000 OA
ATOM     11  H   UNL     1      42.680   2.963  11.040  0.00  0.00    +0.000 HD
ENDBRANCH   9  10
BRANCH   9  12
ATOM     12  C   UNL     1      44.622   2.862   8.791  0.00  0.00    +0.000 C 
BRANCH  12  13
ATOM     13  N   UNL     1      46.027   2.745   8.366  0.00  0.00    +0.000 NA
ATOM     14  C   UNL     1      46.422   3.666   7.295  0.00  0.00    +0.000 C 
ATOM     15  C   UNL     1      46.725   2.802   6.089  0.00  0.00    +0.000 C 
ATOM     16  C   UNL     1      47.228   1.516   6.701  0.00  0.00    +0.000 C 
ATOM     17  C   UNL     1      46.433   1.388   7.992  0.00  0.00    +0.000 C 
ENDBRANCH  12  13
ENDBRANCH   9  12
ENDBRANCH   8   9
ENDBRANCH   5   8
ENDBRANCH   1   2
BRANCH   1  20
ATOM     18  O   UNL     1      50.833   7.179  15.343  0.00  0.00    +0.000 OA
ATOM     19  C   UNL     1      50.205   7.839  14.523  0.00  0.00    +0.000 C 
ATOM     20  N   UNL     1      48.940   7.506  14.089  0.00  0.00    +0.000 N 
ATOM     21  H   UNL     1      48.568   7.974  13.276  0.00  0.00    +0.000 HD
BRANCH  19  22
ATOM     22  C   UNL     1      50.716   9.087  13.964  0.00  0.00    +0.000 A 
ATOM     23  C   UNL     1      50.935  10.222  14.731  0.00  0.00    +0.000 A 
ATOM     24  S   UNL     1      51.637  11.507  13.853  0.00  0.00    +0.000 S 
ATOM     25  C   UNL     1      51.683  10.580  12.425  0.00  0.00    +0.000 A 
ATOM     26  N   UNL     1      52.204  11.087  11.277  0.00  0.00    +0.000 NA
ATOM     27  C   UNL     1      52.189  10.264  10.282  0.00  0.00    +0.000 A 
ATOM     28  N   UNL     1      51.684   8.989  10.324  0.00  0.00    +0.000 N 
ATOM     29  C   UNL     1      51.067   8.464  11.440  0.00  0.00    +0.000 A 
ATOM     30  O   UNL     1      50.470   7.393  11.381  0.00  0.00    +0.000 OA
ATOM     31  C   UNL     1      51.136   9.321  12.609  0.00  0.00    +0.000 A 
ATOM     32  H   UNL     1      51.649   8.416   9.499  0.00  0.00    +0.000 HD
ENDBRANCH  19  22
ENDBRANCH   1  20
TORSDOF 8
ENDMDL
