MODEL 1
REMARK VINA RESULT:    -8.236      0.000      0.000
REMARK INTER + INTRA:         -13.986
REMARK INTER:                 -12.569
REMARK INTRA:                  -1.418
REMARK UNBOUND:                -1.418
REMARK  Name = 
REMARK  10 active torsions:
REMARK  status: ('A' for Active; 'I' for Inactive)
REMARK    1  A    between atoms: C_1  and  O_2
REMARK    2  A    between atoms: O_2  and  C_3
REMARK    3  A    between atoms: C_10  and  C_11
REMARK    4  A    between atoms: N_13  and  C_14
REMARK    5  A    between atoms: C_14  and  C_15
REMARK    6  A    between atoms: C_18  and  C_19
REMARK    7  A    between atoms: C_19  and  N_20
REMARK    8  A    between atoms: N_20  and  C_21
REMARK    9  A    between atoms: C_21  and  C_22
REMARK   10  A    between atoms: C_22  and  C_23
REMARK                            x       y       z     vdW  Elec       q    Type
REMARK                         _______ _______ _______ _____ _____    ______ ____
ROOT
ATOM      1  C   UNL     1      46.300   7.463  12.504  0.00  0.00    +0.000 A 
ATOM      2  C   UNL     1      44.916   7.685  12.520  0.00  0.00    +0.000 A 
ATOM      3  C   UNL     1      44.065   6.898  11.738  0.00  0.00    +0.000 A 
ATOM      4  C   UNL     1      44.581   5.876  10.931  0.00  0.00    +0.000 A 
ATOM      5  C   UNL     1      45.964   5.654  10.919  0.00  0.00    +0.000 A 
ATOM      6  C   UNL     1      46.813   6.437  11.702  0.00  0.00    +0.000 A 
ENDROOT
BRANCH   1   7
ATOM      7  C   UNL     1      47.217   8.269  13.384  0.00  0.00    +0.000 C 
BRANCH   7  10
ATOM      8  C   UNL     1      48.773   6.897  14.691  0.00  0.00    +0.000 C 
ATOM      9  O   UNL     1      49.596   6.923  13.778  0.00  0.00    +0.000 OA
ATOM     10  N   UNL     1      47.568   7.532  14.573  0.00  0.00    +0.000 N 
ATOM     11  H   UNL     1      46.882   7.472  15.313  0.00  0.00    +0.000 HD
BRANCH   8  19
ATOM     12  C   UNL     1      47.282   4.226  16.282  0.00  0.00    +0.000 A 
ATOM     13  N   UNL     1      46.918   3.215  17.097  0.00  0.00    +0.000 NA
ATOM     14  C   UNL     1      47.627   3.019  18.212  0.00  0.00    +0.000 A 
ATOM     15  N   UNL     1      48.676   3.722  18.626  0.00  0.00    +0.000 NA
ATOM     16  C   UNL     1      49.012   4.712  17.781  0.00  0.00    +0.000 A 
ATOM     17  S   UNL     1      50.328   5.716  18.156  0.00  0.00    +0.000 S 
ATOM     18  C   UNL     1      50.109   6.614  16.732  0.00  0.00    +0.000 A 
ATOM     19  C   UNL     1      49.049   6.178  15.946  0.00  0.00    +0.000 A 
ATOM     20  C   UNL     1      48.388   5.041  16.581  0.00  0.00    +0.000 A 
BRANCH  12  22
ATOM     21  C   UNL     1      47.043   3.609  14.041  0.00  0.00    +0.000 C 
ATOM     22  O   UNL     1      46.562   4.409  15.118  0.00  0.00    +0.000 OA
ENDBRANCH  12  22
ENDBRANCH   8  19
ENDBRANCH   7  10
ENDBRANCH   1   7
BRANCH   4  23
ATOM     23  C   UNL     1      43.660   4.960  10.165  0.00  0.00    +0.000 C 
BRANCH  23  24
ATOM     24  N   UNL     1      43.431   3.688  10.856  0.00  0.00    +0.000 NA
ATOM     25  H   UNL     1      42.557   3.293  10.507  0.00  0.00    +0.000 HD
BRANCH  24  26
ATOM     26  C   UNL     1      44.521   2.731  10.600  0.00  0.00    +0.000 C 
BRANCH  26  27
ATOM     27  C   UNL     1      44.360   1.981   9.273  0.00  0.00    +0.000 C 
BRANCH  27  28
ATOM     28  C   UNL     1      45.561   2.124   8.379  0.00  0.00    +0.000 A 
ATOM     29  C   UNL     1      45.850   3.341   7.771  0.00  0.00    +0.000 A 
ATOM     30  C   UNL     1      46.935   3.410   6.904  0.00  0.00    +0.000 A 
ATOM     31  C   UNL     1      47.699   2.271   6.671  0.00  0.00    +0.000 A 
ATOM     32  C   UNL     1      47.350   1.106   7.330  0.00  0.00    +0.000 A 
ATOM     33  N   UNL     1      46.307   1.009   8.181  0.00  0.00    +0.000 NA
ENDBRANCH  27  28
ENDBRANCH  26  27
ENDBRANCH  24  26
ENDBRANCH  23  24
ENDBRANCH   4  23
TORSDOF 9
ENDMDL
MODEL 2
REMARK VINA RESULT:    -7.846      1.459      1.767
REMARK INTER + INTRA:         -13.392
REMARK INTER:                 -12.393
REMARK INTRA:                  -0.999
REMARK UNBOUND:                -1.418
REMARK  Name = 
REMARK  10 active torsions:
REMARK  status: ('A' for Active; 'I' for Inactive)
REMARK    1  A    between atoms: C_1  and  O_2
REMARK    2  A    between atoms: O_2  and  C_3
REMARK    3  A    between atoms: C_10  and  C_11
REMARK    4  A    between atoms: N_13  and  C_14
REMARK    5  A    between atoms: C_14  and  C_15
REMARK    6  A    between atoms: C_18  and  C_19
REMARK    7  A    between atoms: C_19  and  N_20
REMARK    8  A    between atoms: N_20  and  C_21
REMARK    9  A    between atoms: C_21  and  C_22
REMARK   10  A    between atoms: C_22  and  C_23
REMARK                            x       y       z     vdW  Elec       q    Type
REMARK                         _______ _______ _______ _____ _____    ______ ____
ROOT
ATOM      1  C   UNL     1      46.550   6.589  13.016  0.00  0.00    +0.000 A 
ATOM      2  C   UNL     1      46.076   5.372  13.522  0.00  0.00    +0.000 A 
ATOM      3  C   UNL     1      44.870   4.836  13.059  0.00  0.00    +0.000 A 
ATOM      4  C   UNL     1      44.122   5.505  12.080  0.00  0.00    +0.000 A 
ATOM      5  C   UNL     1      44.601   6.719  11.574  0.00  0.00    +0.000 A 
ATOM      6  C   UNL     1      45.805   7.253  12.034  0.00  0.00    +0.000 A 
ENDROOT
BRANCH   1   7
ATOM      7  C   UNL     1      47.873   7.145  13.469  0.00  0.00    +0.000 C 
BRANCH   7  10
ATOM      8  C   UNL     1      49.177   7.042  15.543  0.00  0.00    +0.000 C 
ATOM      9  O   UNL     1      50.224   6.950  14.905  0.00  0.00    +0.000 OA
ATOM     10  N   UNL     1      47.971   7.135  14.909  0.00  0.00    +0.000 N 
ATOM     11  H   UNL     1      47.112   7.170  15.441  0.00  0.00    +0.000 HD
BRANCH   8  19
ATOM     12  C   UNL     1      48.883   4.578  17.938  0.00  0.00    +0.000 A 
ATOM     13  N   UNL     1      48.810   3.837  19.062  0.00  0.00    +0.000 NA
ATOM     14  C   UNL     1      48.888   4.467  20.237  0.00  0.00    +0.000 A 
ATOM     15  N   UNL     1      49.031   5.773  20.436  0.00  0.00    +0.000 NA
ATOM     16  C   UNL     1      49.109   6.474  19.292  0.00  0.00    +0.000 A 
ATOM     17  S   UNL     1      49.288   8.160  19.358  0.00  0.00    +0.000 S 
ATOM     18  C   UNL     1      49.305   8.273  17.664  0.00  0.00    +0.000 A 
ATOM     19  C   UNL     1      49.181   7.050  17.015  0.00  0.00    +0.000 A 
ATOM     20  C   UNL     1      49.056   5.972  17.994  0.00  0.00    +0.000 A 
BRANCH  12  22
ATOM     21  C   UNL     1      47.492   3.626  16.319  0.00  0.00    +0.000 C 
ATOM     22  O   UNL     1      48.827   3.921  16.725  0.00  0.00    +0.000 OA
ENDBRANCH  12  22
ENDBRANCH   8  19
ENDBRANCH   7  10
ENDBRANCH   1   7
BRANCH   4  23
ATOM     23  C   UNL     1      42.876   4.882  11.504  0.00  0.00    +0.000 C 
BRANCH  23  24
ATOM     24  N   UNL     1      43.117   3.543  10.958  0.00  0.00    +0.000 NA
ATOM     25  H   UNL     1      42.237   3.195  10.576  0.00  0.00    +0.000 HD
BRANCH  24  26
ATOM     26  C   UNL     1      44.124   3.574   9.882  0.00  0.00    +0.000 C 
BRANCH  26  27
ATOM     27  C   UNL     1      44.553   2.176   9.424  0.00  0.00    +0.000 C 
BRANCH  27  28
ATOM     28  C   UNL     1      45.622   2.219   8.367  0.00  0.00    +0.000 A 
ATOM     29  C   UNL     1      45.800   3.356   7.585  0.00  0.00    +0.000 A 
ATOM     30  C   UNL     1      46.759   3.327   6.578  0.00  0.00    +0.000 A 
ATOM     31  C   UNL     1      47.512   2.174   6.382  0.00  0.00    +0.000 A 
ATOM     32  C   UNL     1      47.280   1.094   7.216  0.00  0.00    +0.000 A 
ATOM     33  N   UNL     1      46.361   1.094   8.204  0.00  0.00    +0.000 NA
ENDBRANCH  27  28
ENDBRANCH  26  27
ENDBRANCH  24  26
ENDBRANCH  23  24
ENDBRANCH   4  23
TORSDOF 9
ENDMDL
MODEL 3
REMARK VINA RESULT:    -7.425      2.294      2.936
REMARK INTER + INTRA:         -12.749
REMARK INTER:                 -11.769
REMARK INTRA:                  -0.980
REMARK UNBOUND:                -1.418
REMARK  Name = 
REMARK  10 active torsions:
REMARK  status: ('A' for Active; 'I' for Inactive)
REMARK    1  A    between atoms: C_1  and  O_2
REMARK    2  A    between atoms: O_2  and  C_3
REMARK    3  A    between atoms: C_10  and  C_11
REMARK    4  A    between atoms: N_13  and  C_14
REMARK    5  A    between atoms: C_14  and  C_15
REMARK    6  A    between atoms: C_18  and  C_19
REMARK    7  A    between atoms: C_19  and  N_20
REMARK    8  A    between atoms: N_20  and  C_21
REMARK    9  A    between atoms: C_21  and  C_22
REMARK   10  A    between atoms: C_22  and  C_23
REMARK                            x       y       z     vdW  Elec       q    Type
REMARK                         _______ _______ _______ _____ _____    ______ ____
ROOT
ATOM      1  C   UNL     1      46.913   6.351  13.058  0.00  0.00    +0.000 A 
ATOM      2  C   UNL     1      46.599   6.847  11.786  0.00  0.00    +0.000 A 
ATOM      3  C   UNL     1      45.437   6.427  11.130  0.00  0.00    +0.000 A 
ATOM      4  C   UNL     1      44.570   5.508  11.737  0.00  0.00    +0.000 A 
ATOM      5  C   UNL     1      44.885   5.016  13.009  0.00  0.00    +0.000 A 
ATOM      6  C   UNL     1      46.042   5.438  13.665  0.00  0.00    +0.000 A 
ENDROOT
BRANCH   1   7
ATOM      7  C   UNL     1      48.132   6.839  13.793  0.00  0.00    +0.000 C 
BRANCH   7  10
ATOM      8  C   UNL     1      49.047   6.443  16.034  0.00  0.00    +0.000 C 
ATOM      9  O   UNL     1      50.184   6.353  15.576  0.00  0.00    +0.000 OA
ATOM     10  N   UNL     1      47.975   6.675  15.218  0.00  0.00    +0.000 N 
ATOM     11  H   UNL     1      47.038   6.707  15.598  0.00  0.00    +0.000 HD
BRANCH   8  19
ATOM     12  C   UNL     1      47.815   8.564  18.457  0.00  0.00    +0.000 A 
ATOM     13  N   UNL     1      47.360   9.159  19.578  0.00  0.00    +0.000 NA
ATOM     14  C   UNL     1      47.362   8.451  20.711  0.00  0.00    +0.000 A 
ATOM     15  N   UNL     1      47.772   7.196  20.869  0.00  0.00    +0.000 NA
ATOM     16  C   UNL     1      48.208   6.638  19.726  0.00  0.00    +0.000 A 
ATOM     17  S   UNL     1      48.775   5.039  19.745  0.00  0.00    +0.000 S 
ATOM     18  C   UNL     1      49.104   5.086  18.079  0.00  0.00    +0.000 A 
ATOM     19  C   UNL     1      48.792   6.299  17.476  0.00  0.00    +0.000 A 
ATOM     20  C   UNL     1      48.261   7.231  18.468  0.00  0.00    +0.000 A 
BRANCH  12  22
ATOM     21  C   UNL     1      48.969  10.066  17.088  0.00  0.00    +0.000 C 
ATOM     22  O   UNL     1      47.788   9.291  17.283  0.00  0.00    +0.000 OA
ENDBRANCH  12  22
ENDBRANCH   8  19
ENDBRANCH   7  10
ENDBRANCH   1   7
BRANCH   4  23
ATOM     23  C   UNL     1      43.267   5.129  11.079  0.00  0.00    +0.000 C 
BRANCH  23  24
ATOM     24  N   UNL     1      43.455   4.232   9.934  0.00  0.00    +0.000 NA
ATOM     25  H   UNL     1      43.806   4.788   9.154  0.00  0.00    +0.000 HD
BRANCH  24  26
ATOM     26  C   UNL     1      44.430   3.170  10.238  0.00  0.00    +0.000 C 
BRANCH  26  27
ATOM     27  C   UNL     1      44.438   2.048   9.194  0.00  0.00    +0.000 C 
BRANCH  27  28
ATOM     28  C   UNL     1      45.616   2.134   8.264  0.00  0.00    +0.000 A 
ATOM     29  C   UNL     1      45.872   3.300   7.548  0.00  0.00    +0.000 A 
ATOM     30  C   UNL     1      46.936   3.312   6.654  0.00  0.00    +0.000 A 
ATOM     31  C   UNL     1      47.714   2.169   6.501  0.00  0.00    +0.000 A 
ATOM     32  C   UNL     1      47.400   1.059   7.264  0.00  0.00    +0.000 A 
ATOM     33  N   UNL     1      46.377   1.018   8.143  0.00  0.00    +0.000 NA
ENDBRANCH  27  28
ENDBRANCH  26  27
ENDBRANCH  24  26
ENDBRANCH  23  24
ENDBRANCH   4  23
TORSDOF 9
ENDMDL
MODEL 4
REMARK VINA RESULT:    -6.882      1.663      2.328
REMARK INTER + INTRA:         -11.921
REMARK INTER:                 -10.914
REMARK INTRA:                  -1.007
REMARK UNBOUND:                -1.418
REMARK  Name = 
REMARK  10 active torsions:
REMARK  status: ('A' for Active; 'I' for Inactive)
REMARK    1  A    between atoms: C_1  and  O_2
REMARK    2  A    between atoms: O_2  and  C_3
REMARK    3  A    between atoms: C_10  and  C_11
REMARK    4  A    between atoms: N_13  and  C_14
REMARK    5  A    between atoms: C_14  and  C_15
REMARK    6  A    between atoms: C_18  and  C_19
REMARK    7  A    between atoms: C_19  and  N_20
REMARK    8  A    between atoms: N_20  and  C_21
REMARK    9  A    between atoms: C_21  and  C_22
REMARK   10  A    between atoms: C_22  and  C_23
REMARK                            x       y       z     vdW  Elec       q    Type
REMARK                         _______ _______ _______ _____ _____    ______ ____
ROOT
ATOM      1  C   UNL     1      47.653   8.246  12.800  0.00  0.00    +0.000 A 
ATOM      2  C   UNL     1      47.857   7.017  12.159  0.00  0.00    +0.000 A 
ATOM      3  C   UNL     1      46.767   6.259  11.720  0.00  0.00    +0.000 A 
ATOM      4  C   UNL     1      45.457   6.719  11.909  0.00  0.00    +0.000 A 
ATOM      5  C   UNL     1      45.256   7.950  12.547  0.00  0.00    +0.000 A 
ATOM      6  C   UNL     1      46.344   8.708  12.982  0.00  0.00    +0.000 A 
ENDROOT
BRANCH   1   7
ATOM      7  C   UNL     1      48.821   9.093  13.226  0.00  0.00    +0.000 C 
BRANCH   7  10
ATOM      8  C   UNL     1      49.710   8.079  15.274  0.00  0.00    +0.000 C 
ATOM      9  O   UNL     1      48.791   8.559  15.936  0.00  0.00    +0.000 OA
ATOM     10  N   UNL     1      49.802   8.302  13.929  0.00  0.00    +0.000 N 
ATOM     11  H   UNL     1      50.583   7.937  13.400  0.00  0.00    +0.000 HD
BRANCH   8  19
ATOM     12  C   UNL     1      49.651   5.114  17.034  0.00  0.00    +0.000 A 
ATOM     13  N   UNL     1      49.920   3.987  17.723  0.00  0.00    +0.000 NA
ATOM     14  C   UNL     1      51.192   3.733  18.041  0.00  0.00    +0.000 A 
ATOM     15  N   UNL     1      52.253   4.480  17.753  0.00  0.00    +0.000 NA
ATOM     16  C   UNL     1      51.944   5.587  17.058  0.00  0.00    +0.000 A 
ATOM     17  S   UNL     1      53.178   6.661  16.609  0.00  0.00    +0.000 S 
ATOM     18  C   UNL     1      52.067   7.693  15.843  0.00  0.00    +0.000 A 
ATOM     19  C   UNL     1      50.751   7.251  15.905  0.00  0.00    +0.000 A 
ATOM     20  C   UNL     1      50.678   5.991  16.641  0.00  0.00    +0.000 A 
BRANCH  12  22
ATOM     21  C   UNL     1      47.408   4.715  17.551  0.00  0.00    +0.000 C 
ATOM     22  O   UNL     1      48.338   5.361  16.685  0.00  0.00    +0.000 OA
ENDBRANCH  12  22
ENDBRANCH   8  19
ENDBRANCH   7  10
ENDBRANCH   1   7
BRANCH   4  23
ATOM     23  C   UNL     1      44.284   5.956  11.348  0.00  0.00    +0.000 C 
BRANCH  23  24
ATOM     24  N   UNL     1      44.590   4.539  11.128  0.00  0.00    +0.000 NA
ATOM     25  H   UNL     1      44.046   3.992  11.796  0.00  0.00    +0.000 HD
BRANCH  24  26
ATOM     26  C   UNL     1      44.229   4.116   9.763  0.00  0.00    +0.000 C 
BRANCH  26  27
ATOM     27  C   UNL     1      44.540   2.640   9.492  0.00  0.00    +0.000 C 
BRANCH  27  28
ATOM     28  C   UNL     1      45.574   2.457   8.416  0.00  0.00    +0.000 A 
ATOM     29  C   UNL     1      45.867   3.489   7.531  0.00  0.00    +0.000 A 
ATOM     30  C   UNL     1      46.786   3.253   6.514  0.00  0.00    +0.000 A 
ATOM     31  C   UNL     1      47.386   2.003   6.410  0.00  0.00    +0.000 A 
ATOM     32  C   UNL     1      47.049   1.038   7.343  0.00  0.00    +0.000 A 
ATOM     33  N   UNL     1      46.166   1.239   8.343  0.00  0.00    +0.000 NA
ENDBRANCH  27  28
ENDBRANCH  26  27
ENDBRANCH  24  26
ENDBRANCH  23  24
ENDBRANCH   4  23
TORSDOF 9
ENDMDL
MODEL 5
REMARK VINA RESULT:    -6.814      3.433      8.904
REMARK INTER + INTRA:         -11.817
REMARK INTER:                  -9.013
REMARK INTRA:                  -2.804
REMARK UNBOUND:                -1.418
REMARK  Name = 
REMARK  10 active torsions:
REMARK  status: ('A' for Active; 'I' for Inactive)
REMARK    1  A    between atoms: C_1  and  O_2
REMARK    2  A    between atoms: O_2  and  C_3
REMARK    3  A    between atoms: C_10  and  C_11
REMARK    4  A    between atoms: N_13  and  C_14
REMARK    5  A    between atoms: C_14  and  C_15
REMARK    6  A    between atoms: C_18  and  C_19
REMARK    7  A    between atoms: C_19  and  N_20
REMARK    8  A    between atoms: N_20  and  C_21
REMARK    9  A    between atoms: C_21  and  C_22
REMARK   10  A    between atoms: C_22  and  C_23
REMARK                            x       y       z     vdW  Elec       q    Type
REMARK                         _______ _______ _______ _____ _____    ______ ____
ROOT
ATOM      1  C   UNL     1      48.559   3.841  17.535  0.00  0.00    +0.000 A 
ATOM      2  C   UNL     1      49.860   3.365  17.329  0.00  0.00    +0.000 A 
ATOM      3  C   UNL     1      50.904   3.775  18.165  0.00  0.00    +0.000 A 
ATOM      4  C   UNL     1      50.663   4.665  19.221  0.00  0.00    +0.000 A 
ATOM      5  C   UNL     1      49.361   5.136  19.426  0.00  0.00    +0.000 A 
ATOM      6  C   UNL     1      48.319   4.724  18.595  0.00  0.00    +0.000 A 
ENDROOT
BRANCH   1   7
ATOM      7  C   UNL     1      47.421   3.361  16.675  0.00  0.00    +0.000 C 
BRANCH   7  10
ATOM      8  C   UNL     1      46.883   4.219  14.442  0.00  0.00    +0.000 C 
ATOM      9  O   UNL     1      47.209   3.150  13.930  0.00  0.00    +0.000 OA
ATOM     10  N   UNL     1      46.965   4.408  15.793  0.00  0.00    +0.000 N 
ATOM     11  H   UNL     1      46.732   5.303  16.202  0.00  0.00    +0.000 HD
BRANCH   8  19
ATOM     12  C   UNL     1      44.027   4.745  12.584  0.00  0.00    +0.000 A 
ATOM     13  N   UNL     1      43.026   5.216  11.812  0.00  0.00    +0.000 NA
ATOM     14  C   UNL     1      43.158   6.438  11.289  0.00  0.00    +0.000 A 
ATOM     15  N   UNL     1      44.185   7.266  11.441  0.00  0.00    +0.000 NA
ATOM     16  C   UNL     1      45.155   6.764  12.224  0.00  0.00    +0.000 A 
ATOM     17  S   UNL     1      46.547   7.686  12.523  0.00  0.00    +0.000 S 
ATOM     18  C   UNL     1      47.207   6.462  13.498  0.00  0.00    +0.000 A 
ATOM     19  C   UNL     1      46.396   5.340  13.622  0.00  0.00    +0.000 A 
ATOM     20  C   UNL     1      45.168   5.521  12.851  0.00  0.00    +0.000 A 
BRANCH  12  22
ATOM     21  C   UNL     1      43.462   2.511  12.194  0.00  0.00    +0.000 C 
ATOM     22  O   UNL     1      43.876   3.491  13.143  0.00  0.00    +0.000 OA
ENDBRANCH  12  22
ENDBRANCH   8  19
ENDBRANCH   7  10
ENDBRANCH   1   7
BRANCH   4  23
ATOM     23  C   UNL     1      51.763   5.031  20.185  0.00  0.00    +0.000 C 
BRANCH  23  24
ATOM     24  N   UNL     1      52.191   6.427  20.045  0.00  0.00    +0.000 NA
ATOM     25  H   UNL     1      52.537   6.742  20.952  0.00  0.00    +0.000 HD
BRANCH  24  26
ATOM     26  C   UNL     1      53.269   6.563  19.051  0.00  0.00    +0.000 C 
BRANCH  26  27
ATOM     27  C   UNL     1      52.998   7.664  18.021  0.00  0.00    +0.000 C 
BRANCH  27  28
ATOM     28  C   UNL     1      51.599   7.609  17.472  0.00  0.00    +0.000 A 
ATOM     29  C   UNL     1      51.314   6.869  16.329  0.00  0.00    +0.000 A 
ATOM     30  C   UNL     1      50.020   6.898  15.823  0.00  0.00    +0.000 A 
ATOM     31  C   UNL     1      49.049   7.657  16.468  0.00  0.00    +0.000 A 
ATOM     32  C   UNL     1      49.414   8.350  17.609  0.00  0.00    +0.000 A 
ATOM     33  N   UNL     1      50.660   8.337  18.127  0.00  0.00    +0.000 NA
ENDBRANCH  27  28
ENDBRANCH  26  27
ENDBRANCH  24  26
ENDBRANCH  23  24
ENDBRANCH   4  23
TORSDOF 9
ENDMDL
MODEL 6
REMARK VINA RESULT:    -6.430      2.740      3.385
REMARK INTER + INTRA:         -11.231
REMARK INTER:                 -10.222
REMARK INTRA:                  -1.009
REMARK UNBOUND:                -1.418
REMARK  Name = 
REMARK  10 active torsions:
REMARK  status: ('A' for Active; 'I' for Inactive)
REMARK    1  A    between atoms: C_1  and  O_2
REMARK    2  A    between atoms: O_2  and  C_3
REMARK    3  A    between atoms: C_10  and  C_11
REMARK    4  A    between atoms: N_13  and  C_14
REMARK    5  A    between atoms: C_14  and  C_15
REMARK    6  A    between atoms: C_18  and  C_19
REMARK    7  A    between atoms: C_19  and  N_20
REMARK    8  A    between atoms: N_20  and  C_21
REMARK    9  A    between atoms: C_21  and  C_22
REMARK   10  A    between atoms: C_22  and  C_23
REMARK                            x       y       z     vdW  Elec       q    Type
REMARK                         _______ _______ _______ _____ _____    ______ ____
ROOT
ATOM      1  C   UNL     1      47.645   6.008  14.854  0.00  0.00    +0.000 A 
ATOM      2  C   UNL     1      47.691   6.977  13.844  0.00  0.00    +0.000 A 
ATOM      3  C   UNL     1      47.068   6.746  12.613  0.00  0.00    +0.000 A 
ATOM      4  C   UNL     1      46.385   5.545  12.376  0.00  0.00    +0.000 A 
ATOM      5  C   UNL     1      46.337   4.580  13.389  0.00  0.00    +0.000 A 
ATOM      6  C   UNL     1      46.957   4.812  14.617  0.00  0.00    +0.000 A 
ENDROOT
BRANCH   1   7
ATOM      7  C   UNL     1      48.266   6.272  16.200  0.00  0.00    +0.000 C 
BRANCH   7  10
ATOM      8  C   UNL     1      50.123   5.420  17.556  0.00  0.00    +0.000 C 
ATOM      9  O   UNL     1      49.637   5.916  18.571  0.00  0.00    +0.000 OA
ATOM     10  N   UNL     1      49.511   5.557  16.342  0.00  0.00    +0.000 N 
ATOM     11  H   UNL     1      49.938   5.180  15.506  0.00  0.00    +0.000 HD
BRANCH   8  19
ATOM     12  C   UNL     1      50.883   2.059  17.658  0.00  0.00    +0.000 A 
ATOM     13  N   UNL     1      51.458   0.839  17.687  0.00  0.00    +0.000 NA
ATOM     14  C   UNL     1      52.791   0.773  17.723  0.00  0.00    +0.000 A 
ATOM     15  N   UNL     1      53.642   1.794  17.735  0.00  0.00    +0.000 NA
ATOM     16  C   UNL     1      53.030   2.990  17.694  0.00  0.00    +0.000 A 
ATOM     17  S   UNL     1      53.965   4.405  17.708  0.00  0.00    +0.000 S 
ATOM     18  C   UNL     1      52.576   5.381  17.644  0.00  0.00    +0.000 A 
ATOM     19  C   UNL     1      51.385   4.665  17.607  0.00  0.00    +0.000 A 
ATOM     20  C   UNL     1      51.660   3.230  17.644  0.00  0.00    +0.000 A 
BRANCH  12  22
ATOM     21  C   UNL     1      49.014   2.134  16.258  0.00  0.00    +0.000 C 
ATOM     22  O   UNL     1      49.505   2.123  17.596  0.00  0.00    +0.000 OA
ENDBRANCH  12  22
ENDBRANCH   8  19
ENDBRANCH   7  10
ENDBRANCH   1   7
BRANCH   4  23
ATOM     23  C   UNL     1      45.626   5.333  11.090  0.00  0.00    +0.000 C 
BRANCH  23  24
ATOM     24  N   UNL     1      44.423   4.516  11.277  0.00  0.00    +0.000 NA
ATOM     25  H   UNL     1      43.610   5.126  11.181  0.00  0.00    +0.000 HD
BRANCH  24  26
ATOM     26  C   UNL     1      44.336   3.446  10.267  0.00  0.00    +0.000 C 
BRANCH  26  27
ATOM     27  C   UNL     1      44.544   3.956   8.836  0.00  0.00    +0.000 C 
BRANCH  27  28
ATOM     28  C   UNL     1      45.501   3.102   8.053  0.00  0.00    +0.000 A 
ATOM     29  C   UNL     1      45.823   1.819   8.485  0.00  0.00    +0.000 A 
ATOM     30  C   UNL     1      46.761   1.090   7.762  0.00  0.00    +0.000 A 
ATOM     31  C   UNL     1      47.345   1.654   6.633  0.00  0.00    +0.000 A 
ATOM     32  C   UNL     1      46.955   2.929   6.265  0.00  0.00    +0.000 A 
ATOM     33  N   UNL     1      46.045   3.660   6.943  0.00  0.00    +0.000 NA
ENDBRANCH  27  28
ENDBRANCH  26  27
ENDBRANCH  24  26
ENDBRANCH  23  24
ENDBRANCH   4  23
TORSDOF 9
ENDMDL
MODEL 7
REMARK VINA RESULT:    -6.427      1.727      2.638
REMARK INTER + INTRA:         -11.226
REMARK INTER:                  -9.873
REMARK INTRA:                  -1.353
REMARK UNBOUND:                -1.418
REMARK  Name = 
REMARK  10 active torsions:
REMARK  status: ('A' for Active; 'I' for Inactive)
REMARK    1  A    between atoms: C_1  and  O_2
REMARK    2  A    between atoms: O_2  and  C_3
REMARK    3  A    between atoms: C_10  and  C_11
REMARK    4  A    between atoms: N_13  and  C_14
REMARK    5  A    between atoms: C_14  and  C_15
REMARK    6  A    between atoms: C_18  and  C_19
REMARK    7  A    between atoms: C_19  and  N_20
REMARK    8  A    between atoms: N_20  and  C_21
REMARK    9  A    between atoms: C_21  and  C_22
REMARK   10  A    between atoms: C_22  and  C_23
REMARK                            x       y       z     vdW  Elec       q    Type
REMARK                         _______ _______ _______ _____ _____    ______ ____
ROOT
ATOM      1  C   UNL     1      48.716   8.192  12.634  0.00  0.00    +0.000 A 
ATOM      2  C   UNL     1      48.174   6.903  12.547  0.00  0.00    +0.000 A 
ATOM      3  C   UNL     1      46.825   6.724  12.222  0.00  0.00    +0.000 A 
ATOM      4  C   UNL     1      46.000   7.829  11.974  0.00  0.00    +0.000 A 
ATOM      5  C   UNL     1      46.545   9.116  12.058  0.00  0.00    +0.000 A 
ATOM      6  C   UNL     1      47.891   9.295  12.379  0.00  0.00    +0.000 A 
ENDROOT
BRANCH   1   7
ATOM      7  C   UNL     1      50.178   8.392  12.929  0.00  0.00    +0.000 C 
BRANCH   7  10
ATOM      8  C   UNL     1      50.397   7.852  15.312  0.00  0.00    +0.000 C 
ATOM      9  O   UNL     1      49.839   8.902  15.622  0.00  0.00    +0.000 OA
ATOM     10  N   UNL     1      50.610   7.528  14.001  0.00  0.00    +0.000 N 
ATOM     11  H   UNL     1      51.105   6.681  13.756  0.00  0.00    +0.000 HD
BRANCH   8  19
ATOM     12  C   UNL     1      49.068   4.977  16.674  0.00  0.00    +0.000 A 
ATOM     13  N   UNL     1      48.803   3.843  17.354  0.00  0.00    +0.000 NA
ATOM     14  C   UNL     1      49.700   3.422  18.250  0.00  0.00    +0.000 A 
ATOM     15  N   UNL     1      50.854   4.004  18.560  0.00  0.00    +0.000 NA
ATOM     16  C   UNL     1      51.085   5.124  17.853  0.00  0.00    +0.000 A 
ATOM     17  S   UNL     1      52.512   6.000  18.125  0.00  0.00    +0.000 S 
ATOM     18  C   UNL     1      52.082   7.155  16.956  0.00  0.00    +0.000 A 
ATOM     19  C   UNL     1      50.863   6.904  16.337  0.00  0.00    +0.000 A 
ATOM     20  C   UNL     1      50.263   5.688  16.882  0.00  0.00    +0.000 A 
BRANCH  12  22
ATOM     21  C   UNL     1      47.183   4.394  15.423  0.00  0.00    +0.000 C 
ATOM     22  O   UNL     1      48.150   5.395  15.731  0.00  0.00    +0.000 OA
ENDBRANCH  12  22
ENDBRANCH   8  19
ENDBRANCH   7  10
ENDBRANCH   1   7
BRANCH   4  23
ATOM     23  C   UNL     1      44.573   7.638  11.524  0.00  0.00    +0.000 C 
BRANCH  23  24
ATOM     24  N   UNL     1      43.921   6.506  12.189  0.00  0.00    +0.000 NA
ATOM     25  H   UNL     1      43.352   6.875  12.952  0.00  0.00    +0.000 HD
BRANCH  24  26
ATOM     26  C   UNL     1      43.049   5.765  11.261  0.00  0.00    +0.000 C 
BRANCH  26  27
ATOM     27  C   UNL     1      43.278   4.251  11.305  0.00  0.00    +0.000 C 
BRANCH  27  28
ATOM     28  C   UNL     1      44.178   3.770  10.201  0.00  0.00    +0.000 A 
ATOM     29  C   UNL     1      44.840   4.679   9.381  0.00  0.00    +0.000 A 
ATOM     30  C   UNL     1      45.613   4.189   8.333  0.00  0.00    +0.000 A 
ATOM     31  C   UNL     1      45.705   2.816   8.135  0.00  0.00    +0.000 A 
ATOM     32  C   UNL     1      45.027   1.983   9.007  0.00  0.00    +0.000 A 
ATOM     33  N   UNL     1      44.274   2.428  10.035  0.00  0.00    +0.000 NA
ENDBRANCH  27  28
ENDBRANCH  26  27
ENDBRANCH  24  26
ENDBRANCH  23  24
ENDBRANCH   4  23
TORSDOF 9
ENDMDL
MODEL 8
REMARK VINA RESULT:    -6.376      2.506      3.205
REMARK INTER + INTRA:         -11.148
REMARK INTER:                 -10.237
REMARK INTRA:                  -0.911
REMARK UNBOUND:                -1.418
REMARK  Name = 
REMARK  10 active torsions:
REMARK  status: ('A' for Active; 'I' for Inactive)
REMARK    1  A    between atoms: C_1  and  O_2
REMARK    2  A    between atoms: O_2  and  C_3
REMARK    3  A    between atoms: C_10  and  C_11
REMARK    4  A    between atoms: N_13  and  C_14
REMARK    5  A    between atoms: C_14  and  C_15
REMARK    6  A    between atoms: C_18  and  C_19
REMARK    7  A    between atoms: C_19  and  N_20
REMARK    8  A    between atoms: N_20  and  C_21
REMARK    9  A    between atoms: C_21  and  C_22
REMARK   10  A    between atoms: C_22  and  C_23
REMARK                            x       y       z     vdW  Elec       q    Type
REMARK                         _______ _______ _______ _____ _____    ______ ____
ROOT
ATOM      1  C   UNL     1      47.269   8.007  13.776  0.00  0.00    +0.000 A 
ATOM      2  C   UNL     1      47.604   6.656  13.614  0.00  0.00    +0.000 A 
ATOM      3  C   UNL     1      47.033   5.906  12.580  0.00  0.00    +0.000 A 
ATOM      4  C   UNL     1      46.123   6.494  11.692  0.00  0.00    +0.000 A 
ATOM      5  C   UNL     1      45.793   7.845  11.855  0.00  0.00    +0.000 A 
ATOM      6  C   UNL     1      46.365   8.595  12.884  0.00  0.00    +0.000 A 
ENDROOT
BRANCH   1   7
ATOM      7  C   UNL     1      47.921   8.835  14.851  0.00  0.00    +0.000 C 
BRANCH   7  10
ATOM      8  C   UNL     1      48.419   8.669  17.247  0.00  0.00    +0.000 C 
ATOM      9  O   UNL     1      48.616   9.881  17.311  0.00  0.00    +0.000 OA
ATOM     10  N   UNL     1      48.077   8.072  16.066  0.00  0.00    +0.000 N 
ATOM     11  H   UNL     1      47.956   7.069  16.014  0.00  0.00    +0.000 HD
BRANCH   8  19
ATOM     12  C   UNL     1      51.010   6.837  18.595  0.00  0.00    +0.000 A 
ATOM     13  N   UNL     1      51.829   6.062  19.335  0.00  0.00    +0.000 NA
ATOM     14  C   UNL     1      51.330   5.489  20.433  0.00  0.00    +0.000 A 
ATOM     15  N   UNL     1      50.088   5.591  20.895  0.00  0.00    +0.000 NA
ATOM     16  C   UNL     1      49.308   6.379  20.135  0.00  0.00    +0.000 A 
ATOM     17  S   UNL     1      47.686   6.618  20.574  0.00  0.00    +0.000 S 
ATOM     18  C   UNL     1      47.423   7.631  19.236  0.00  0.00    +0.000 A 
ATOM     19  C   UNL     1      48.546   7.812  18.437  0.00  0.00    +0.000 A 
ATOM     20  C   UNL     1      49.673   7.054  18.974  0.00  0.00    +0.000 A 
BRANCH  12  22
ATOM     21  C   UNL     1      51.816   6.525  16.424  0.00  0.00    +0.000 C 
ATOM     22  O   UNL     1      51.536   7.448  17.474  0.00  0.00    +0.000 OA
ENDBRANCH  12  22
ENDBRANCH   8  19
ENDBRANCH   7  10
ENDBRANCH   1   7
BRANCH   4  23
ATOM     23  C   UNL     1      45.583   5.719  10.517  0.00  0.00    +0.000 C 
BRANCH  23  24
ATOM     24  N   UNL     1      44.915   4.478  10.922  0.00  0.00    +0.000 NA
ATOM     25  H   UNL     1      44.272   4.701  11.682  0.00  0.00    +0.000 HD
BRANCH  24  26
ATOM     26  C   UNL     1      44.150   3.890   9.808  0.00  0.00    +0.000 C 
BRANCH  26  27
ATOM     27  C   UNL     1      44.555   2.445   9.501  0.00  0.00    +0.000 C 
BRANCH  27  28
ATOM     28  C   UNL     1      45.586   2.354   8.410  0.00  0.00    +0.000 A 
ATOM     29  C   UNL     1      45.806   3.426   7.552  0.00  0.00    +0.000 A 
ATOM     30  C   UNL     1      46.724   3.274   6.519  0.00  0.00    +0.000 A 
ATOM     31  C   UNL     1      47.397   2.066   6.374  0.00  0.00    +0.000 A 
ATOM     32  C   UNL     1      47.130   1.057   7.282  0.00  0.00    +0.000 A 
ATOM     33  N   UNL     1      46.249   1.176   8.297  0.00  0.00    +0.000 NA
ENDBRANCH  27  28
ENDBRANCH  26  27
ENDBRANCH  24  26
ENDBRANCH  23  24
ENDBRANCH   4  23
TORSDOF 9
ENDMDL
MODEL 9
REMARK VINA RESULT:    -6.249      3.062      7.903
REMARK INTER + INTRA:         -10.955
REMARK INTER:                  -9.378
REMARK INTRA:                  -1.577
REMARK UNBOUND:                -1.418
REMARK  Name = 
REMARK  10 active torsions:
REMARK  status: ('A' for Active; 'I' for Inactive)
REMARK    1  A    between atoms: C_1  and  O_2
REMARK    2  A    between atoms: O_2  and  C_3
REMARK    3  A    between atoms: C_10  and  C_11
REMARK    4  A    between atoms: N_13  and  C_14
REMARK    5  A    between atoms: C_14  and  C_15
REMARK    6  A    between atoms: C_18  and  C_19
REMARK    7  A    between atoms: C_19  and  N_20
REMARK    8  A    between atoms: N_20  and  C_21
REMARK    9  A    between atoms: C_21  and  C_22
REMARK   10  A    between atoms: C_22  and  C_23
REMARK                            x       y       z     vdW  Elec       q    Type
REMARK                         _______ _______ _______ _____ _____    ______ ____
ROOT
ATOM      1  C   UNL     1      48.989   7.784  13.052  0.00  0.00    +0.000 A 
ATOM      2  C   UNL     1      48.381   7.109  14.119  0.00  0.00    +0.000 A 
ATOM      3  C   UNL     1      49.110   6.814  15.276  0.00  0.00    +0.000 A 
ATOM      4  C   UNL     1      50.455   7.192  15.386  0.00  0.00    +0.000 A 
ATOM      5  C   UNL     1      51.058   7.870  14.319  0.00  0.00    +0.000 A 
ATOM      6  C   UNL     1      50.331   8.167  13.167  0.00  0.00    +0.000 A 
ENDROOT
BRANCH   1   7
ATOM      7  C   UNL     1      48.197   8.154  11.827  0.00  0.00    +0.000 C 
BRANCH   7  10
ATOM      8  C   UNL     1      46.152   6.897  11.326  0.00  0.00    +0.000 C 
ATOM      9  O   UNL     1      45.461   7.777  11.835  0.00  0.00    +0.000 OA
ATOM     10  N   UNL     1      47.514   7.003  11.288  0.00  0.00    +0.000 N 
ATOM     11  H   UNL     1      48.076   6.256  10.903  0.00  0.00    +0.000 HD
BRANCH   8  19
ATOM     12  C   UNL     1      44.446   4.210  12.654  0.00  0.00    +0.000 A 
ATOM     13  N   UNL     1      43.753   3.079  12.892  0.00  0.00    +0.000 NA
ATOM     14  C   UNL     1      43.445   2.299  11.853  0.00  0.00    +0.000 A 
ATOM     15  N   UNL     1      43.750   2.511  10.577  0.00  0.00    +0.000 NA
ATOM     16  C   UNL     1      44.432   3.652  10.381  0.00  0.00    +0.000 A 
ATOM     17  S   UNL     1      44.910   4.078   8.810  0.00  0.00    +0.000 S 
ATOM     18  C   UNL     1      45.643   5.505   9.369  0.00  0.00    +0.000 A 
ATOM     19  C   UNL     1      45.541   5.691  10.742  0.00  0.00    +0.000 A 
ATOM     20  C   UNL     1      44.820   4.575  11.349  0.00  0.00    +0.000 A 
BRANCH  12  22
ATOM     21  C   UNL     1      46.026   4.759  14.286  0.00  0.00    +0.000 C 
ATOM     22  O   UNL     1      44.741   5.026  13.729  0.00  0.00    +0.000 OA
ENDBRANCH  12  22
ENDBRANCH   8  19
ENDBRANCH   7  10
ENDBRANCH   1   7
BRANCH   4  23
ATOM     23  C   UNL     1      51.216   6.967  16.668  0.00  0.00    +0.000 C 
BRANCH  23  24
ATOM     24  N   UNL     1      51.681   5.583  16.809  0.00  0.00    +0.000 NA
ATOM     25  H   UNL     1      52.461   5.447  16.166  0.00  0.00    +0.000 HD
BRANCH  24  26
ATOM     26  C   UNL     1      52.143   5.308  18.181  0.00  0.00    +0.000 C 
BRANCH  26  27
ATOM     27  C   UNL     1      51.560   4.014  18.760  0.00  0.00    +0.000 C 
BRANCH  27  28
ATOM     28  C   UNL     1      50.284   3.601  18.080  0.00  0.00    +0.000 A 
ATOM     29  C   UNL     1      50.245   2.466  17.277  0.00  0.00    +0.000 A 
ATOM     30  C   UNL     1      49.059   2.158  16.619  0.00  0.00    +0.000 A 
ATOM     31  C   UNL     1      47.952   2.983  16.781  0.00  0.00    +0.000 A 
ATOM     32  C   UNL     1      48.074   4.083  17.612  0.00  0.00    +0.000 A 
ATOM     33  N   UNL     1      49.208   4.405  18.267  0.00  0.00    +0.000 NA
ENDBRANCH  27  28
ENDBRANCH  26  27
ENDBRANCH  24  26
ENDBRANCH  23  24
ENDBRANCH   4  23
TORSDOF 9
ENDMDL
