MODEL 1
REMARK VINA RESULT:    -8.674      0.000      0.000
REMARK INTER + INTRA:         -13.498
REMARK INTER:                 -12.224
REMARK INTRA:                  -1.274
REMARK UNBOUND:                -1.274
REMARK  Name = 
REMARK  7 active torsions:
REMARK  status: ('A' for Active; 'I' for Inactive)
REMARK    1  A    between atoms: C_2  and  C_20
REMARK    2  A    between atoms: N_3  and  C_4
REMARK    3  A    between atoms: C_4  and  C_5
REMARK    4  A    between atoms: C_8  and  C_9
REMARK    5  A    between atoms: C_9  and  N_10
REMARK    6  A    between atoms: N_10  and  C_11
REMARK    7  A    between atoms: C_11  and  C_12
REMARK                            x       y       z     vdW  Elec       q    Type
REMARK                         _______ _______ _______ _____ _____    ______ ____
ROOT
ATOM      1  C   UNL     1      46.609   7.690  12.803  0.00  0.00    +0.000 C 
ENDROOT
BRANCH   1   2
ATOM      2  C   UNL     1      45.203   7.149  12.472  0.00  0.00    +0.000 C 
ATOM      3  C   UNL     1      44.939   7.042  10.961  0.00  0.00    +0.000 C 
ATOM      4  C   UNL     1      45.649   5.861  10.305  0.00  0.00    +0.000 C 
ATOM      5  C   UNL     1      45.291   4.514  10.957  0.00  0.00    +0.000 C 
ATOM      6  C   UNL     1      45.554   4.587  12.470  0.00  0.00    +0.000 C 
ATOM      7  C   UNL     1      44.939   5.800  13.170  0.00  0.00    +0.000 C 
BRANCH   5   8
ATOM      8  C   UNL     1      43.859   4.030  10.603  0.00  0.00    +0.000 C 
BRANCH   8   9
ATOM      9  N   UNL     1      43.910   3.293   9.338  0.00  0.00    +0.000 NA
ATOM     10  H   UNL     1      44.217   3.913   8.589  0.00  0.00    +0.000 HD
BRANCH   9  11
ATOM     11  C   UNL     1      44.779   2.119   9.360  0.00  0.00    +0.000 C 
BRANCH  11  12
ATOM     12  C   UNL     1      45.758   2.179   8.214  0.00  0.00    +0.000 A 
ATOM     13  C   UNL     1      45.922   3.346   7.456  0.00  0.00    +0.000 A 
ATOM     14  C   UNL     1      46.847   3.382   6.417  0.00  0.00    +0.000 A 
ATOM     15  C   UNL     1      47.583   2.238   6.159  0.00  0.00    +0.000 A 
ATOM     16  N   UNL     1      47.455   1.090   6.859  0.00  0.00    +0.000 NA
ATOM     17  C   UNL     1      46.550   1.088   7.867  0.00  0.00    +0.000 A 
ENDBRANCH  11  12
ENDBRANCH   9  11
ENDBRANCH   8   9
ENDBRANCH   5   8
ENDBRANCH   1   2
BRANCH   1  20
ATOM     18  O   UNL     1      48.967   6.219  13.348  0.00  0.00    +0.000 OA
ATOM     19  C   UNL     1      48.270   6.587  14.284  0.00  0.00    +0.000 C 
ATOM     20  N   UNL     1      47.085   7.275  14.112  0.00  0.00    +0.000 N 
ATOM     21  H   UNL     1      46.557   7.565  14.923  0.00  0.00    +0.000 HD
BRANCH  19  22
ATOM     22  C   UNL     1      48.621   6.308  15.681  0.00  0.00    +0.000 A 
ATOM     23  C   UNL     1      49.312   7.193  16.494  0.00  0.00    +0.000 A 
ATOM     24  S   UNL     1      49.493   6.633  18.099  0.00  0.00    +0.000 S 
ATOM     25  C   UNL     1      48.649   5.194  17.759  0.00  0.00    +0.000 A 
ATOM     26  N   UNL     1      48.424   4.261  18.721  0.00  0.00    +0.000 NA
ATOM     27  C   UNL     1      47.762   3.225  18.313  0.00  0.00    +0.000 A 
ATOM     28  N   UNL     1      47.322   3.037  17.031  0.00  0.00    +0.000 N 
ATOM     29  C   UNL     1      47.613   3.907  16.000  0.00  0.00    +0.000 A 
ATOM     30  O   UNL     1      47.391   3.590  14.839  0.00  0.00    +0.000 OA
ATOM     31  C   UNL     1      48.270   5.125  16.429  0.00  0.00    +0.000 A 
ATOM     32  H   UNL     1      46.874   2.175  16.762  0.00  0.00    +0.000 HD
ENDBRANCH  19  22
ENDBRANCH   1  20
TORSDOF 7
ENDMDL
MODEL 2
REMARK VINA RESULT:    -8.509      2.025      2.780
REMARK INTER + INTRA:         -13.265
REMARK INTER:                 -12.414
REMARK INTRA:                  -0.851
REMARK UNBOUND:                -1.274
REMARK  Name = 
REMARK  7 active torsions:
REMARK  status: ('A' for Active; 'I' for Inactive)
REMARK    1  A    between atoms: C_2  and  C_20
REMARK    2  A    between atoms: N_3  and  C_4
REMARK    3  A    between atoms: C_4  and  C_5
REMARK    4  A    between atoms: C_8  and  C_9
REMARK    5  A    between atoms: C_9  and  N_10
REMARK    6  A    between atoms: N_10  and  C_11
REMARK    7  A    between atoms: C_11  and  C_12
REMARK                            x       y       z     vdW  Elec       q    Type
REMARK                         _______ _______ _______ _____ _____    ______ ____
ROOT
ATOM      1  C   UNL     1      46.038   4.167  14.658  0.00  0.00    +0.000 C 
ENDROOT
BRANCH   1   2
ATOM      2  C   UNL     1      46.032   4.793  13.248  0.00  0.00    +0.000 C 
ATOM      3  C   UNL     1      45.906   3.749  12.126  0.00  0.00    +0.000 C 
ATOM      4  C   UNL     1      44.495   3.182  11.982  0.00  0.00    +0.000 C 
ATOM      5  C   UNL     1      43.436   4.275  11.751  0.00  0.00    +0.000 C 
ATOM      6  C   UNL     1      43.531   5.330  12.865  0.00  0.00    +0.000 C 
ATOM      7  C   UNL     1      44.940   5.872  13.115  0.00  0.00    +0.000 C 
BRANCH   5   8
ATOM      8  C   UNL     1      43.490   4.879  10.323  0.00  0.00    +0.000 C 
BRANCH   8   9
ATOM      9  N   UNL     1      43.951   3.846   9.391  0.00  0.00    +0.000 NA
ATOM     10  H   UNL     1      43.164   3.503   8.840  0.00  0.00    +0.000 HD
BRANCH   9  11
ATOM     11  C   UNL     1      45.005   4.286   8.479  0.00  0.00    +0.000 C 
BRANCH  11  12
ATOM     12  C   UNL     1      45.797   3.097   7.994  0.00  0.00    +0.000 A 
ATOM     13  C   UNL     1      46.744   3.222   6.969  0.00  0.00    +0.000 A 
ATOM     14  C   UNL     1      47.477   2.113   6.555  0.00  0.00    +0.000 A 
ATOM     15  C   UNL     1      47.234   0.901   7.177  0.00  0.00    +0.000 A 
ATOM     16  N   UNL     1      46.327   0.732   8.164  0.00  0.00    +0.000 NA
ATOM     17  C   UNL     1      45.634   1.831   8.548  0.00  0.00    +0.000 A 
ENDBRANCH  11  12
ENDBRANCH   9  11
ENDBRANCH   8   9
ENDBRANCH   5   8
ENDBRANCH   1   2
BRANCH   1  20
ATOM     18  O   UNL     1      46.687   3.245  17.256  0.00  0.00    +0.000 OA
ATOM     19  C   UNL     1      47.455   4.013  16.692  0.00  0.00    +0.000 C 
ATOM     20  N   UNL     1      47.203   4.543  15.442  0.00  0.00    +0.000 N 
ATOM     21  H   UNL     1      47.880   5.163  15.020  0.00  0.00    +0.000 HD
BRANCH  19  22
ATOM     22  C   UNL     1      48.709   4.461  17.307  0.00  0.00    +0.000 A 
ATOM     23  C   UNL     1      48.890   5.719  17.861  0.00  0.00    +0.000 A 
ATOM     24  S   UNL     1      50.424   5.922  18.588  0.00  0.00    +0.000 S 
ATOM     25  C   UNL     1      50.891   4.334  18.190  0.00  0.00    +0.000 A 
ATOM     26  N   UNL     1      52.108   3.845  18.545  0.00  0.00    +0.000 NA
ATOM     27  C   UNL     1      52.317   2.619  18.180  0.00  0.00    +0.000 A 
ATOM     28  N   UNL     1      51.425   1.852  17.482  0.00  0.00    +0.000 N 
ATOM     29  C   UNL     1      50.222   2.338  17.012  0.00  0.00    +0.000 A 
ATOM     30  O   UNL     1      49.561   1.690  16.210  0.00  0.00    +0.000 OA
ATOM     31  C   UNL     1      49.906   3.673  17.477  0.00  0.00    +0.000 A 
ATOM     32  H   UNL     1      51.677   0.929  17.166  0.00  0.00    +0.000 HD
ENDBRANCH  19  22
ENDBRANCH   1  20
TORSDOF 7
ENDMDL
MODEL 3
REMARK VINA RESULT:    -7.928      1.110      1.727
REMARK INTER + INTRA:         -12.447
REMARK INTER:                 -11.517
REMARK INTRA:                  -0.929
REMARK UNBOUND:                -1.274
REMARK  Name = 
REMARK  7 active torsions:
REMARK  status: ('A' for Active; 'I' for Inactive)
REMARK    1  A    between atoms: C_2  and  C_20
REMARK    2  A    between atoms: N_3  and  C_4
REMARK    3  A    between atoms: C_4  and  C_5
REMARK    4  A    between atoms: C_8  and  C_9
REMARK    5  A    between atoms: C_9  and  N_10
REMARK    6  A    between atoms: N_10  and  C_11
REMARK    7  A    between atoms: C_11  and  C_12
REMARK                            x       y       z     vdW  Elec       q    Type
REMARK                         _______ _______ _______ _____ _____    ______ ____
ROOT
ATOM      1  C   UNL     1      46.506   7.027  12.733  0.00  0.00    +0.000 C 
ENDROOT
BRANCH   1   2
ATOM      2  C   UNL     1      46.348   5.611  12.142  0.00  0.00    +0.000 C 
ATOM      3  C   UNL     1      45.643   4.635  13.098  0.00  0.00    +0.000 C 
ATOM      4  C   UNL     1      44.136   4.864  13.194  0.00  0.00    +0.000 C 
ATOM      5  C   UNL     1      43.436   4.796  11.825  0.00  0.00    +0.000 C 
ATOM      6  C   UNL     1      44.114   5.770  10.849  0.00  0.00    +0.000 C 
ATOM      7  C   UNL     1      45.638   5.647  10.775  0.00  0.00    +0.000 C 
BRANCH   5   8
ATOM      8  C   UNL     1      43.322   3.349  11.274  0.00  0.00    +0.000 C 
BRANCH   8   9
ATOM      9  N   UNL     1      43.773   3.339   9.879  0.00  0.00    +0.000 NA
ATOM     10  H   UNL     1      44.406   4.121   9.716  0.00  0.00    +0.000 HD
BRANCH   9  11
ATOM     11  C   UNL     1      44.438   2.104   9.472  0.00  0.00    +0.000 C 
BRANCH  11  12
ATOM     12  C   UNL     1      45.515   2.408   8.459  0.00  0.00    +0.000 A 
ATOM     13  C   UNL     1      46.426   1.426   8.048  0.00  0.00    +0.000 A 
ATOM     14  C   UNL     1      47.397   1.727   7.096  0.00  0.00    +0.000 A 
ATOM     15  C   UNL     1      47.434   3.013   6.586  0.00  0.00    +0.000 A 
ATOM     16  N   UNL     1      46.581   3.992   6.957  0.00  0.00    +0.000 NA
ATOM     17  C   UNL     1      45.644   3.667   7.881  0.00  0.00    +0.000 A 
ENDBRANCH  11  12
ENDBRANCH   9  11
ENDBRANCH   8   9
ENDBRANCH   5   8
ENDBRANCH   1   2
BRANCH   1  20
ATOM     18  O   UNL     1      49.258   6.711  13.324  0.00  0.00    +0.000 OA
ATOM     19  C   UNL     1      48.474   6.902  14.244  0.00  0.00    +0.000 C 
ATOM     20  N   UNL     1      47.111   7.028  14.055  0.00  0.00    +0.000 N 
ATOM     21  H   UNL     1      46.514   7.197  14.851  0.00  0.00    +0.000 HD
BRANCH  19  22
ATOM     22  C   UNL     1      48.910   6.988  15.642  0.00  0.00    +0.000 A 
ATOM     23  C   UNL     1      49.561   8.087  16.180  0.00  0.00    +0.000 A 
ATOM     24  S   UNL     1      49.861   7.939  17.857  0.00  0.00    +0.000 S 
ATOM     25  C   UNL     1      49.125   6.405  17.916  0.00  0.00    +0.000 A 
ATOM     26  N   UNL     1      49.023   5.714  19.082  0.00  0.00    +0.000 NA
ATOM     27  C   UNL     1      48.432   4.567  18.971  0.00  0.00    +0.000 A 
ATOM     28  N   UNL     1      47.951   4.049  17.800  0.00  0.00    +0.000 N 
ATOM     29  C   UNL     1      48.122   4.667  16.577  0.00  0.00    +0.000 A 
ATOM     30  O   UNL     1      47.874   4.068  15.538  0.00  0.00    +0.000 OA
ATOM     31  C   UNL     1      48.694   5.995  16.667  0.00  0.00    +0.000 A 
ATOM     32  H   UNL     1      47.565   3.118  17.768  0.00  0.00    +0.000 HD
ENDBRANCH  19  22
ENDBRANCH   1  20
TORSDOF 7
ENDMDL
MODEL 4
REMARK VINA RESULT:    -7.603      1.874      2.478
REMARK INTER + INTRA:         -11.989
REMARK INTER:                 -10.737
REMARK INTRA:                  -1.251
REMARK UNBOUND:                -1.274
REMARK  Name = 
REMARK  7 active torsions:
REMARK  status: ('A' for Active; 'I' for Inactive)
REMARK    1  A    between atoms: C_2  and  C_20
REMARK    2  A    between atoms: N_3  and  C_4
REMARK    3  A    between atoms: C_4  and  C_5
REMARK    4  A    between atoms: C_8  and  C_9
REMARK    5  A    between atoms: C_9  and  N_10
REMARK    6  A    between atoms: N_10  and  C_11
REMARK    7  A    between atoms: C_11  and  C_12
REMARK                            x       y       z     vdW  Elec       q    Type
REMARK                         _______ _______ _______ _____ _____    ______ ____
ROOT
ATOM      1  C   UNL     1      45.664   7.488  12.927  0.00  0.00    +0.000 C 
ENDROOT
BRANCH   1   2
ATOM      2  C   UNL     1      45.430   5.963  12.894  0.00  0.00    +0.000 C 
ATOM      3  C   UNL     1      43.941   5.583  12.889  0.00  0.00    +0.000 C 
ATOM      4  C   UNL     1      43.262   5.809  11.540  0.00  0.00    +0.000 C 
ATOM      5  C   UNL     1      43.960   5.060  10.390  0.00  0.00    +0.000 C 
ATOM      6  C   UNL     1      45.452   5.429  10.364  0.00  0.00    +0.000 C 
ATOM      7  C   UNL     1      46.167   5.305  11.711  0.00  0.00    +0.000 C 
BRANCH   5   8
ATOM      8  C   UNL     1      43.703   3.529  10.421  0.00  0.00    +0.000 C 
BRANCH   8   9
ATOM      9  N   UNL     1      44.028   2.970   9.105  0.00  0.00    +0.000 NA
ATOM     10  H   UNL     1      44.349   3.713   8.485  0.00  0.00    +0.000 HD
BRANCH   9  11
ATOM     11  C   UNL     1      45.037   1.914   9.134  0.00  0.00    +0.000 C 
BRANCH  11  12
ATOM     12  C   UNL     1      45.988   2.077   7.974  0.00  0.00    +0.000 A 
ATOM     13  C   UNL     1      45.947   3.211   7.152  0.00  0.00    +0.000 A 
ATOM     14  C   UNL     1      46.850   3.347   6.101  0.00  0.00    +0.000 A 
ATOM     15  C   UNL     1      47.770   2.334   5.896  0.00  0.00    +0.000 A 
ATOM     16  N   UNL     1      47.843   1.221   6.659  0.00  0.00    +0.000 NA
ATOM     17  C   UNL     1      46.955   1.121   7.677  0.00  0.00    +0.000 A 
ENDBRANCH  11  12
ENDBRANCH   9  11
ENDBRANCH   8   9
ENDBRANCH   5   8
ENDBRANCH   1   2
BRANCH   1  20
ATOM     18  O   UNL     1      48.290   8.156  12.102  0.00  0.00    +0.000 OA
ATOM     19  C   UNL     1      48.009   8.220  13.292  0.00  0.00    +0.000 C 
ATOM     20  N   UNL     1      46.767   7.876  13.789  0.00  0.00    +0.000 N 
ATOM     21  H   UNL     1      46.589   7.961  14.779  0.00  0.00    +0.000 HD
BRANCH  19  22
ATOM     22  C   UNL     1      48.980   8.645  14.305  0.00  0.00    +0.000 A 
ATOM     23  C   UNL     1      49.625   9.872  14.288  0.00  0.00    +0.000 A 
ATOM     24  S   UNL     1      50.629  10.126  15.649  0.00  0.00    +0.000 S 
ATOM     25  C   UNL     1      50.228   8.608  16.305  0.00  0.00    +0.000 A 
ATOM     26  N   UNL     1      50.736   8.195  17.496  0.00  0.00    +0.000 NA
ATOM     27  C   UNL     1      50.334   7.021  17.869  0.00  0.00    +0.000 A 
ATOM     28  N   UNL     1      49.484   6.225  17.152  0.00  0.00    +0.000 N 
ATOM     29  C   UNL     1      49.023   6.558  15.894  0.00  0.00    +0.000 A 
ATOM     30  O   UNL     1      48.450   5.726  15.202  0.00  0.00    +0.000 OA
ATOM     31  C   UNL     1      49.372   7.901  15.478  0.00  0.00    +0.000 A 
ATOM     32  H   UNL     1      49.265   5.292  17.464  0.00  0.00    +0.000 HD
ENDBRANCH  19  22
ENDBRANCH   1  20
TORSDOF 7
ENDMDL
MODEL 5
REMARK VINA RESULT:    -7.548      1.605      2.374
REMARK INTER + INTRA:         -11.911
REMARK INTER:                 -10.808
REMARK INTRA:                  -1.103
REMARK UNBOUND:                -1.274
REMARK  Name = 
REMARK  7 active torsions:
REMARK  status: ('A' for Active; 'I' for Inactive)
REMARK    1  A    between atoms: C_2  and  C_20
REMARK    2  A    between atoms: N_3  and  C_4
REMARK    3  A    between atoms: C_4  and  C_5
REMARK    4  A    between atoms: C_8  and  C_9
REMARK    5  A    between atoms: C_9  and  N_10
REMARK    6  A    between atoms: N_10  and  C_11
REMARK    7  A    between atoms: C_11  and  C_12
REMARK                            x       y       z     vdW  Elec       q    Type
REMARK                         _______ _______ _______ _____ _____    ______ ____
ROOT
ATOM      1  C   UNL     1      46.876   7.305  13.087  0.00  0.00    +0.000 C 
ENDROOT
BRANCH   1   2
ATOM      2  C   UNL     1      45.436   6.964  12.653  0.00  0.00    +0.000 C 
ATOM      3  C   UNL     1      45.240   7.010  11.128  0.00  0.00    +0.000 C 
ATOM      4  C   UNL     1      45.842   5.807  10.405  0.00  0.00    +0.000 C 
ATOM      5  C   UNL     1      45.296   4.465  10.926  0.00  0.00    +0.000 C 
ATOM      6  C   UNL     1      45.487   4.387  12.449  0.00  0.00    +0.000 C 
ATOM      7  C   UNL     1      44.981   5.606  13.222  0.00  0.00    +0.000 C 
BRANCH   5   8
ATOM      8  C   UNL     1      43.838   4.187  10.471  0.00  0.00    +0.000 C 
BRANCH   8   9
ATOM      9  N   UNL     1      43.870   3.315   9.294  0.00  0.00    +0.000 NA
ATOM     10  H   UNL     1      44.113   3.861   8.467  0.00  0.00    +0.000 HD
BRANCH   9  11
ATOM     11  C   UNL     1      44.795   2.190   9.403  0.00  0.00    +0.000 C 
BRANCH  11  12
ATOM     12  C   UNL     1      45.747   2.190   8.232  0.00  0.00    +0.000 A 
ATOM     13  C   UNL     1      45.886   3.312   7.405  0.00  0.00    +0.000 A 
ATOM     14  C   UNL     1      46.787   3.293   6.344  0.00  0.00    +0.000 A 
ATOM     15  C   UNL     1      47.524   2.140   6.135  0.00  0.00    +0.000 A 
ATOM     16  N   UNL     1      47.419   1.033   6.902  0.00  0.00    +0.000 NA
ATOM     17  C   UNL     1      46.538   1.085   7.929  0.00  0.00    +0.000 A 
ENDBRANCH  11  12
ENDBRANCH   9  11
ENDBRANCH   8   9
ENDBRANCH   5   8
ENDBRANCH   1   2
BRANCH   1  20
ATOM     18  O   UNL     1      49.458   6.698  14.080  0.00  0.00    +0.000 OA
ATOM     19  C   UNL     1      48.495   6.586  14.828  0.00  0.00    +0.000 C 
ATOM     20  N   UNL     1      47.197   6.823  14.420  0.00  0.00    +0.000 N 
ATOM     21  H   UNL     1      46.443   6.727  15.085  0.00  0.00    +0.000 HD
BRANCH  19  22
ATOM     22  C   UNL     1      48.632   6.164  16.226  0.00  0.00    +0.000 A 
ATOM     23  C   UNL     1      48.442   4.862  16.661  0.00  0.00    +0.000 A 
ATOM     24  S   UNL     1      48.762   4.653  18.327  0.00  0.00    +0.000 S 
ATOM     25  C   UNL     1      49.171   6.295  18.518  0.00  0.00    +0.000 A 
ATOM     26  N   UNL     1      49.567   6.790  19.719  0.00  0.00    +0.000 NA
ATOM     27  C   UNL     1      49.852   8.054  19.707  0.00  0.00    +0.000 A 
ATOM     28  N   UNL     1      49.760   8.862  18.606  0.00  0.00    +0.000 N 
ATOM     29  C   UNL     1      49.267   8.427  17.393  0.00  0.00    +0.000 A 
ATOM     30  O   UNL     1      48.997   9.230  16.509  0.00  0.00    +0.000 OA
ATOM     31  C   UNL     1      49.025   6.999  17.336  0.00  0.00    +0.000 A 
ATOM     32  H   UNL     1      49.928   9.853  18.679  0.00  0.00    +0.000 HD
ENDBRANCH  19  22
ENDBRANCH   1  20
TORSDOF 7
ENDMDL
MODEL 6
REMARK VINA RESULT:    -7.142      1.858      2.523
REMARK INTER + INTRA:         -11.338
REMARK INTER:                 -10.363
REMARK INTRA:                  -0.975
REMARK UNBOUND:                -1.274
REMARK  Name = 
REMARK  7 active torsions:
REMARK  status: ('A' for Active; 'I' for Inactive)
REMARK    1  A    between atoms: C_2  and  C_20
REMARK    2  A    between atoms: N_3  and  C_4
REMARK    3  A    between atoms: C_4  and  C_5
REMARK    4  A    between atoms: C_8  and  C_9
REMARK    5  A    between atoms: C_9  and  N_10
REMARK    6  A    between atoms: N_10  and  C_11
REMARK    7  A    between atoms: C_11  and  C_12
REMARK                            x       y       z     vdW  Elec       q    Type
REMARK                         _______ _______ _______ _____ _____    ______ ____
ROOT
ATOM      1  C   UNL     1      47.704   8.086  13.939  0.00  0.00    +0.000 C 
ENDROOT
BRANCH   1   2
ATOM      2  C   UNL     1      47.851   6.871  13.001  0.00  0.00    +0.000 C 
ATOM      3  C   UNL     1      47.128   5.618  13.521  0.00  0.00    +0.000 C 
ATOM      4  C   UNL     1      45.612   5.681  13.354  0.00  0.00    +0.000 C 
ATOM      5  C   UNL     1      45.183   5.919  11.895  0.00  0.00    +0.000 C 
ATOM      6  C   UNL     1      45.884   7.174  11.350  0.00  0.00    +0.000 C 
ATOM      7  C   UNL     1      47.398   7.208  11.567  0.00  0.00    +0.000 C 
BRANCH   5   8
ATOM      8  C   UNL     1      45.371   4.668  10.996  0.00  0.00    +0.000 C 
BRANCH   8   9
ATOM      9  N   UNL     1      45.194   5.062   9.596  0.00  0.00    +0.000 NA
ATOM     10  H   UNL     1      46.102   5.261   9.176  0.00  0.00    +0.000 HD
BRANCH   9  11
ATOM     11  C   UNL     1      44.506   4.069   8.774  0.00  0.00    +0.000 C 
BRANCH  11  12
ATOM     12  C   UNL     1      45.501   3.081   8.216  0.00  0.00    +0.000 A 
ATOM     13  C   UNL     1      46.455   3.466   7.265  0.00  0.00    +0.000 A 
ATOM     14  C   UNL     1      47.376   2.540   6.783  0.00  0.00    +0.000 A 
ATOM     15  C   UNL     1      47.310   1.244   7.264  0.00  0.00    +0.000 A 
ATOM     16  N   UNL     1      46.405   0.826   8.176  0.00  0.00    +0.000 NA
ATOM     17  C   UNL     1      45.526   1.752   8.630  0.00  0.00    +0.000 A 
ENDBRANCH  11  12
ENDBRANCH   9  11
ENDBRANCH   8   9
ENDBRANCH   5   8
ENDBRANCH   1   2
BRANCH   1  20
ATOM     18  O   UNL     1      48.973   9.717  15.876  0.00  0.00    +0.000 OA
ATOM     19  C   UNL     1      48.522   8.632  16.220  0.00  0.00    +0.000 C 
ATOM     20  N   UNL     1      47.922   7.755  15.337  0.00  0.00    +0.000 N 
ATOM     21  H   UNL     1      47.556   6.879  15.680  0.00  0.00    +0.000 HD
BRANCH  19  22
ATOM     22  C   UNL     1      48.600   8.152  17.604  0.00  0.00    +0.000 A 
ATOM     23  C   UNL     1      48.162   8.881  18.699  0.00  0.00    +0.000 A 
ATOM     24  S   UNL     1      48.294   8.027  20.174  0.00  0.00    +0.000 S 
ATOM     25  C   UNL     1      48.934   6.656  19.395  0.00  0.00    +0.000 A 
ATOM     26  N   UNL     1      49.255   5.533  20.090  0.00  0.00    +0.000 NA
ATOM     27  C   UNL     1      49.723   4.570  19.359  0.00  0.00    +0.000 A 
ATOM     28  N   UNL     1      49.911   4.640  18.006  0.00  0.00    +0.000 N 
ATOM     29  C   UNL     1      49.695   5.791  17.275  0.00  0.00    +0.000 A 
ATOM     30  O   UNL     1      50.084   5.873  16.117  0.00  0.00    +0.000 OA
ATOM     31  C   UNL     1      49.083   6.862  18.035  0.00  0.00    +0.000 A 
ATOM     32  H   UNL     1      50.346   3.881  17.506  0.00  0.00    +0.000 HD
ENDBRANCH  19  22
ENDBRANCH   1  20
TORSDOF 7
ENDMDL
MODEL 7
REMARK VINA RESULT:    -6.961      3.335      4.192
REMARK INTER + INTRA:         -11.084
REMARK INTER:                 -10.292
REMARK INTRA:                  -0.792
REMARK UNBOUND:                -1.274
REMARK  Name = 
REMARK  7 active torsions:
REMARK  status: ('A' for Active; 'I' for Inactive)
REMARK    1  A    between atoms: C_2  and  C_20
REMARK    2  A    between atoms: N_3  and  C_4
REMARK    3  A    between atoms: C_4  and  C_5
REMARK    4  A    between atoms: C_8  and  C_9
REMARK    5  A    between atoms: C_9  and  N_10
REMARK    6  A    between atoms: N_10  and  C_11
REMARK    7  A    between atoms: C_11  and  C_12
REMARK                            x       y       z     vdW  Elec       q    Type
REMARK                         _______ _______ _______ _____ _____    ______ ____
ROOT
ATOM      1  C   UNL     1      45.438   7.529  12.311  0.00  0.00    +0.000 C 
ENDROOT
BRANCH   1   2
ATOM      2  C   UNL     1      45.631   6.003  12.427  0.00  0.00    +0.000 C 
ATOM      3  C   UNL     1      44.462   5.301  13.138  0.00  0.00    +0.000 C 
ATOM      4  C   UNL     1      43.214   5.170  12.267  0.00  0.00    +0.000 C 
ATOM      5  C   UNL     1      43.488   4.439  10.941  0.00  0.00    +0.000 C 
ATOM      6  C   UNL     1      44.648   5.126  10.202  0.00  0.00    +0.000 C 
ATOM      7  C   UNL     1      45.898   5.363  11.051  0.00  0.00    +0.000 C 
BRANCH   5   8
ATOM      8  C   UNL     1      43.691   2.911  11.123  0.00  0.00    +0.000 C 
BRANCH   8   9
ATOM      9  N   UNL     1      44.868   2.497  10.355  0.00  0.00    +0.000 NA
ATOM     10  H   UNL     1      45.455   1.887  10.925  0.00  0.00    +0.000 HD
BRANCH   9  11
ATOM     11  C   UNL     1      44.558   1.811   9.102  0.00  0.00    +0.000 C 
BRANCH  11  12
ATOM     12  C   UNL     1      45.677   2.017   8.110  0.00  0.00    +0.000 A 
ATOM     13  C   UNL     1      45.741   3.167   7.312  0.00  0.00    +0.000 A 
ATOM     14  C   UNL     1      46.796   3.342   6.421  0.00  0.00    +0.000 A 
ATOM     15  C   UNL     1      47.759   2.351   6.347  0.00  0.00    +0.000 A 
ATOM     16  N   UNL     1      47.735   1.224   7.092  0.00  0.00    +0.000 NA
ATOM     17  C   UNL     1      46.699   1.086   7.954  0.00  0.00    +0.000 A 
ENDBRANCH  11  12
ENDBRANCH   9  11
ENDBRANCH   8   9
ENDBRANCH   5   8
ENDBRANCH   1   2
BRANCH   1  20
ATOM     18  O   UNL     1      46.982   8.843  14.289  0.00  0.00    +0.000 OA
ATOM     19  C   UNL     1      47.388   8.829  13.134  0.00  0.00    +0.000 C 
ATOM     20  N   UNL     1      46.684   8.246  12.098  0.00  0.00    +0.000 N 
ATOM     21  H   UNL     1      47.075   8.253  11.168  0.00  0.00    +0.000 HD
BRANCH  19  22
ATOM     22  C   UNL     1      48.655   9.454  12.740  0.00  0.00    +0.000 A 
ATOM     23  C   UNL     1      48.741  10.616  11.990  0.00  0.00    +0.000 A 
ATOM     24  S   UNL     1      50.347  11.158  11.766  0.00  0.00    +0.000 S 
ATOM     25  C   UNL     1      50.976   9.859  12.668  0.00  0.00    +0.000 A 
ATOM     26  N   UNL     1      52.312   9.730  12.886  0.00  0.00    +0.000 NA
ATOM     27  C   UNL     1      52.638   8.697  13.596  0.00  0.00    +0.000 A 
ATOM     28  N   UNL     1      51.752   7.780  14.091  0.00  0.00    +0.000 N 
ATOM     29  C   UNL     1      50.400   7.813  13.811  0.00  0.00    +0.000 A 
ATOM     30  O   UNL     1      49.685   6.859  14.087  0.00  0.00    +0.000 OA
ATOM     31  C   UNL     1      49.978   9.003  13.099  0.00  0.00    +0.000 A 
ATOM     32  H   UNL     1      52.076   6.959  14.576  0.00  0.00    +0.000 HD
ENDBRANCH  19  22
ENDBRANCH   1  20
TORSDOF 7
ENDMDL
MODEL 8
REMARK VINA RESULT:    -6.918      2.037      2.938
REMARK INTER + INTRA:         -11.023
REMARK INTER:                 -10.797
REMARK INTRA:                  -0.226
REMARK UNBOUND:                -1.274
REMARK  Name = 
REMARK  7 active torsions:
REMARK  status: ('A' for Active; 'I' for Inactive)
REMARK    1  A    between atoms: C_2  and  C_20
REMARK    2  A    between atoms: N_3  and  C_4
REMARK    3  A    between atoms: C_4  and  C_5
REMARK    4  A    between atoms: C_8  and  C_9
REMARK    5  A    between atoms: C_9  and  N_10
REMARK    6  A    between atoms: N_10  and  C_11
REMARK    7  A    between atoms: C_11  and  C_12
REMARK                            x       y       z     vdW  Elec       q    Type
REMARK                         _______ _______ _______ _____ _____    ______ ____
ROOT
ATOM      1  C   UNL     1      46.704   5.833  14.157  0.00  0.00    +0.000 C 
ENDROOT
BRANCH   1   2
ATOM      2  C   UNL     1      46.490   5.100  12.817  0.00  0.00    +0.000 C 
ATOM      3  C   UNL     1      45.477   3.948  12.917  0.00  0.00    +0.000 C 
ATOM      4  C   UNL     1      44.027   4.422  12.994  0.00  0.00    +0.000 C 
ATOM      5  C   UNL     1      43.630   5.319  11.809  0.00  0.00    +0.000 C 
ATOM      6  C   UNL     1      44.622   6.487  11.690  0.00  0.00    +0.000 C 
ATOM      7  C   UNL     1      46.096   6.079  11.695  0.00  0.00    +0.000 C 
BRANCH   5   8
ATOM      8  C   UNL     1      43.447   4.528  10.486  0.00  0.00    +0.000 C 
BRANCH   8   9
ATOM      9  N   UNL     1      44.747   4.418   9.818  0.00  0.00    +0.000 NA
ATOM     10  H   UNL     1      45.287   3.661  10.237  0.00  0.00    +0.000 HD
BRANCH   9  11
ATOM     11  C   UNL     1      44.666   4.193   8.377  0.00  0.00    +0.000 C 
BRANCH  11  12
ATOM     12  C   UNL     1      45.642   3.118   7.966  0.00  0.00    +0.000 A 
ATOM     13  C   UNL     1      46.691   3.388   7.078  0.00  0.00    +0.000 A 
ATOM     14  C   UNL     1      47.591   2.383   6.732  0.00  0.00    +0.000 A 
ATOM     15  C   UNL     1      47.409   1.127   7.283  0.00  0.00    +0.000 A 
ATOM     16  N   UNL     1      46.409   0.820   8.138  0.00  0.00    +0.000 NA
ATOM     17  C   UNL     1      45.554   1.820   8.459  0.00  0.00    +0.000 A 
ENDBRANCH  11  12
ENDBRANCH   9  11
ENDBRANCH   8   9
ENDBRANCH   5   8
ENDBRANCH   1   2
BRANCH   1  20
ATOM     18  O   UNL     1      46.274   3.984  16.259  0.00  0.00    +0.000 OA
ATOM     19  C   UNL     1      47.423   4.295  15.971  0.00  0.00    +0.000 C 
ATOM     20  N   UNL     1      47.726   5.217  14.987  0.00  0.00    +0.000 N 
ATOM     21  H   UNL     1      48.692   5.425  14.784  0.00  0.00    +0.000 HD
BRANCH  19  22
ATOM     22  C   UNL     1      48.586   3.732  16.663  0.00  0.00    +0.000 A 
ATOM     23  C   UNL     1      48.949   2.396  16.601  0.00  0.00    +0.000 A 
ATOM     24  S   UNL     1      50.402   2.051  17.433  0.00  0.00    +0.000 S 
ATOM     25  C   UNL     1      50.594   3.678  17.898  0.00  0.00    +0.000 A 
ATOM     26  N   UNL     1      51.666   4.083  18.628  0.00  0.00    +0.000 NA
ATOM     27  C   UNL     1      51.678   5.350  18.898  0.00  0.00    +0.000 A 
ATOM     28  N   UNL     1      50.709   6.237  18.517  0.00  0.00    +0.000 N 
ATOM     29  C   UNL     1      49.554   5.855  17.864  0.00  0.00    +0.000 A 
ATOM     30  O   UNL     1      48.622   6.639  17.740  0.00  0.00    +0.000 OA
ATOM     31  C   UNL     1      49.543   4.463  17.459  0.00  0.00    +0.000 A 
ATOM     32  H   UNL     1      50.741   7.198  18.820  0.00  0.00    +0.000 HD
ENDBRANCH  19  22
ENDBRANCH   1  20
TORSDOF 7
ENDMDL
MODEL 9
REMARK VINA RESULT:    -6.793      3.512      7.760
REMARK INTER + INTRA:         -10.847
REMARK INTER:                  -9.135
REMARK INTRA:                  -1.712
REMARK UNBOUND:                -1.274
REMARK  Name = 
REMARK  7 active torsions:
REMARK  status: ('A' for Active; 'I' for Inactive)
REMARK    1  A    between atoms: C_2  and  C_20
REMARK    2  A    between atoms: N_3  and  C_4
REMARK    3  A    between atoms: C_4  and  C_5
REMARK    4  A    between atoms: C_8  and  C_9
REMARK    5  A    between atoms: C_9  and  N_10
REMARK    6  A    between atoms: N_10  and  C_11
REMARK    7  A    between atoms: C_11  and  C_12
REMARK                            x       y       z     vdW  Elec       q    Type
REMARK                         _______ _______ _______ _____ _____    ______ ____
ROOT
ATOM      1  C   UNL     1      48.356   8.281  14.113  0.00  0.00    +0.000 C 
ENDROOT
BRANCH   1   2
ATOM      2  C   UNL     1      49.284   7.187  14.680  0.00  0.00    +0.000 C 
ATOM      3  C   UNL     1      50.678   7.716  15.055  0.00  0.00    +0.000 C 
ATOM      4  C   UNL     1      50.690   8.527  16.349  0.00  0.00    +0.000 C 
ATOM      5  C   UNL     1      50.128   7.743  17.548  0.00  0.00    +0.000 C 
ATOM      6  C   UNL     1      48.727   7.209  17.206  0.00  0.00    +0.000 C 
ATOM      7  C   UNL     1      48.635   6.461  15.875  0.00  0.00    +0.000 C 
BRANCH   5   8
ATOM      8  C   UNL     1      51.097   6.646  18.063  0.00  0.00    +0.000 C 
BRANCH   8   9
ATOM      9  N   UNL     1      50.376   5.782  19.002  0.00  0.00    +0.000 NA
ATOM     10  H   UNL     1      49.375   5.827  18.814  0.00  0.00    +0.000 HD
BRANCH   9  11
ATOM     11  C   UNL     1      50.796   4.382  18.974  0.00  0.00    +0.000 C 
BRANCH  11  12
ATOM     12  C   UNL     1      49.887   3.589  18.067  0.00  0.00    +0.000 A 
ATOM     13  C   UNL     1      48.495   3.737  18.120  0.00  0.00    +0.000 A 
ATOM     14  C   UNL     1      47.681   3.009  17.256  0.00  0.00    +0.000 A 
ATOM     15  C   UNL     1      48.288   2.143  16.362  0.00  0.00    +0.000 A 
ATOM     16  N   UNL     1      49.624   1.964  16.280  0.00  0.00    +0.000 NA
ATOM     17  C   UNL     1      50.390   2.691  17.130  0.00  0.00    +0.000 A 
ENDBRANCH  11  12
ENDBRANCH   9  11
ENDBRANCH   8   9
ENDBRANCH   5   8
ENDBRANCH   1   2
BRANCH   1  20
ATOM     18  O   UNL     1      47.880   7.046  11.609  0.00  0.00    +0.000 OA
ATOM     19  C   UNL     1      46.957   7.138  12.407  0.00  0.00    +0.000 C 
ATOM     20  N   UNL     1      47.086   7.758  13.635  0.00  0.00    +0.000 N 
ATOM     21  H   UNL     1      46.293   7.793  14.259  0.00  0.00    +0.000 HD
BRANCH  19  22
ATOM     22  C   UNL     1      45.616   6.618  12.121  0.00  0.00    +0.000 A 
ATOM     23  C   UNL     1      44.588   7.384  11.594  0.00  0.00    +0.000 A 
ATOM     24  S   UNL     1      43.168   6.484  11.279  0.00  0.00    +0.000 S 
ATOM     25  C   UNL     1      43.886   5.043  11.833  0.00  0.00    +0.000 A 
ATOM     26  N   UNL     1      43.209   3.865  11.816  0.00  0.00    +0.000 NA
ATOM     27  C   UNL     1      43.888   2.854  12.261  0.00  0.00    +0.000 A 
ATOM     28  N   UNL     1      45.171   2.924  12.730  0.00  0.00    +0.000 N 
ATOM     29  C   UNL     1      45.861   4.113  12.860  0.00  0.00    +0.000 A 
ATOM     30  O   UNL     1      46.912   4.155  13.485  0.00  0.00    +0.000 OA
ATOM     31  C   UNL     1      45.175   5.254  12.288  0.00  0.00    +0.000 A 
ATOM     32  H   UNL     1      45.619   2.114  13.128  0.00  0.00    +0.000 HD
ENDBRANCH  19  22
ENDBRANCH   1  20
TORSDOF 7
ENDMDL
