MODEL 1
REMARK VINA RESULT:    -7.323      0.000      0.000
REMARK INTER + INTRA:         -10.903
REMARK INTER:                 -10.106
REMARK INTRA:                  -0.797
REMARK UNBOUND:                -0.797
REMARK  Name = 
REMARK  8 active torsions:
REMARK  status: ('A' for Active; 'I' for Inactive)
REMARK    1  A    between atoms: C_1  and  C_2
REMARK    2  A    between atoms: C_2  and  O_3
REMARK    3  A    between atoms: C_5  and  O_6
REMARK    4  A    between atoms: O_6  and  C_7
REMARK    5  A    between atoms: C_11  and  C_12
REMARK    6  A    between atoms: C_12  and  C_13
REMARK    7  A    between atoms: C_13  and  N_14
REMARK    8  A    between atoms: C_19  and  C_20
REMARK                            x       y       z     vdW  Elec       q    Type
REMARK                         _______ _______ _______ _____ _____    ______ ____
ROOT
ATOM      1  C   UNL     1      45.684   8.663  12.898  0.00  0.00    +0.000 C 
ENDROOT
BRANCH   1   6
ATOM      2  C   UNL     1      49.012   7.065  13.998  0.00  0.00    +0.000 A 
ATOM      3  C   UNL     1      49.853   7.475  12.968  0.00  0.00    +0.000 A 
ATOM      4  C   UNL     1      49.366   8.324  11.974  0.00  0.00    +0.000 A 
ATOM      5  C   UNL     1      48.027   8.729  11.983  0.00  0.00    +0.000 A 
ATOM      6  C   UNL     1      47.152   8.275  12.978  0.00  0.00    +0.000 A 
ATOM      7  C   UNL     1      47.674   7.454  13.995  0.00  0.00    +0.000 A 
BRANCH   2   8
ATOM      8  O   UNL     1      49.405   6.276  15.054  0.00  0.00    +0.000 OA
BRANCH   8  12
ATOM      9  C   UNL     1      47.820   2.981  17.759  0.00  0.00    +0.000 C 
ATOM     10  C   UNL     1      47.638   4.432  17.347  0.00  0.00    +0.000 C 
ATOM     11  C   UNL     1      47.594   4.657  15.818  0.00  0.00    +0.000 C 
ATOM     12  C   UNL     1      48.405   5.959  16.048  0.00  0.00    +0.000 C 
ATOM     13  C   UNL     1      48.924   5.306  17.353  0.00  0.00    +0.000 C 
BRANCH  10  14
ATOM     14  O   UNL     1      46.526   5.000  18.075  0.00  0.00    +0.000 OA
ATOM     15  H   UNL     1      46.843   5.860  18.402  0.00  0.00    +0.000 HD
ENDBRANCH  10  14
ENDBRANCH   8  12
ENDBRANCH   2   8
ENDBRANCH   1   6
BRANCH   1  16
ATOM     16  C   UNL     1      44.836   7.686  12.082  0.00  0.00    +0.000 C 
BRANCH  16  17
ATOM     17  N   UNL     1      44.249   6.607  12.882  0.00  0.00    +0.000 N 
ATOM     18  C   UNL     1      44.159   5.416  12.121  0.00  0.00    +0.000 A 
ATOM     19  C   UNL     1      43.618   4.256  12.688  0.00  0.00    +0.000 A 
ATOM     20  N   UNL     1      43.500   3.073  12.030  0.00  0.00    +0.000 NA
ATOM     21  C   UNL     1      43.967   3.081  10.754  0.00  0.00    +0.000 A 
ATOM     22  C   UNL     1      44.515   4.215  10.182  0.00  0.00    +0.000 A 
ATOM     23  N   UNL     1      44.624   5.393  10.852  0.00  0.00    +0.000 NA
ATOM     24  H   UNL     1      43.321   6.843  13.229  0.00  0.00    +0.000 HD
BRANCH  22  25
ATOM     25  C   UNL     1      45.002   4.186   8.776  0.00  0.00    +0.000 C 
ATOM     26  N   UNL     1      44.382   3.303   7.935  0.00  0.00    +0.000 N 
ATOM     27  O   UNL     1      45.911   4.909   8.388  0.00  0.00    +0.000 OA
ATOM     28  H   UNL     1      43.629   2.711   8.272  0.00  0.00    +0.000 HD
ATOM     29  H   UNL     1      44.680   3.242   6.972  0.00  0.00    +0.000 HD
ENDBRANCH  22  25
ENDBRANCH  16  17
ENDBRANCH   1  16
TORSDOF 7
ENDMDL
MODEL 2
REMARK VINA RESULT:    -7.319      2.802      7.579
REMARK INTER + INTRA:         -10.897
REMARK INTER:                 -10.249
REMARK INTRA:                  -0.648
REMARK UNBOUND:                -0.797
REMARK  Name = 
REMARK  8 active torsions:
REMARK  status: ('A' for Active; 'I' for Inactive)
REMARK    1  A    between atoms: C_1  and  C_2
REMARK    2  A    between atoms: C_2  and  O_3
REMARK    3  A    between atoms: C_5  and  O_6
REMARK    4  A    between atoms: O_6  and  C_7
REMARK    5  A    between atoms: C_11  and  C_12
REMARK    6  A    between atoms: C_12  and  C_13
REMARK    7  A    between atoms: C_13  and  N_14
REMARK    8  A    between atoms: C_19  and  C_20
REMARK                            x       y       z     vdW  Elec       q    Type
REMARK                         _______ _______ _______ _____ _____    ______ ____
ROOT
ATOM      1  C   UNL     1      45.649   6.805  11.842  0.00  0.00    +0.000 C 
ENDROOT
BRANCH   1   6
ATOM      2  C   UNL     1      44.369   3.445  10.459  0.00  0.00    +0.000 A 
ATOM      3  C   UNL     1      43.538   3.034  11.496  0.00  0.00    +0.000 A 
ATOM      4  C   UNL     1      43.333   3.872  12.592  0.00  0.00    +0.000 A 
ATOM      5  C   UNL     1      43.993   5.102  12.674  0.00  0.00    +0.000 A 
ATOM      6  C   UNL     1      44.881   5.504  11.668  0.00  0.00    +0.000 A 
ATOM      7  C   UNL     1      45.040   4.663  10.551  0.00  0.00    +0.000 A 
BRANCH   2   8
ATOM      8  O   UNL     1      44.596   2.722   9.310  0.00  0.00    +0.000 OA
BRANCH   8  12
ATOM      9  C   UNL     1      46.717   2.392   5.302  0.00  0.00    +0.000 C 
ATOM     10  C   UNL     1      46.883   2.808   6.753  0.00  0.00    +0.000 C 
ATOM     11  C   UNL     1      46.383   1.759   7.775  0.00  0.00    +0.000 C 
ATOM     12  C   UNL     1      45.852   2.937   8.632  0.00  0.00    +0.000 C 
ATOM     13  C   UNL     1      45.786   3.754   7.318  0.00  0.00    +0.000 C 
BRANCH  10  14
ATOM     14  O   UNL     1      48.237   3.265   6.969  0.00  0.00    +0.000 OA
ATOM     15  H   UNL     1      48.340   3.324   7.934  0.00  0.00    +0.000 HD
ENDBRANCH  10  14
ENDBRANCH   8  12
ENDBRANCH   2   8
ENDBRANCH   1   6
BRANCH   1  16
ATOM     16  C   UNL     1      47.164   6.616  11.921  0.00  0.00    +0.000 C 
BRANCH  16  17
ATOM     17  N   UNL     1      47.826   7.550  12.837  0.00  0.00    +0.000 N 
ATOM     18  C   UNL     1      48.036   6.944  14.100  0.00  0.00    +0.000 A 
ATOM     19  C   UNL     1      48.649   7.663  15.134  0.00  0.00    +0.000 A 
ATOM     20  N   UNL     1      48.892   7.156  16.371  0.00  0.00    +0.000 NA
ATOM     21  C   UNL     1      48.506   5.864  16.544  0.00  0.00    +0.000 A 
ATOM     22  C   UNL     1      47.910   5.136  15.529  0.00  0.00    +0.000 A 
ATOM     23  N   UNL     1      47.670   5.658  14.297  0.00  0.00    +0.000 NA
ATOM     24  H   UNL     1      47.289   8.405  12.972  0.00  0.00    +0.000 HD
BRANCH  22  25
ATOM     25  C   UNL     1      47.487   3.728  15.764  0.00  0.00    +0.000 C 
ATOM     26  N   UNL     1      46.924   3.457  16.981  0.00  0.00    +0.000 N 
ATOM     27  O   UNL     1      47.637   2.856  14.919  0.00  0.00    +0.000 OA
ATOM     28  H   UNL     1      46.806   4.192  17.671  0.00  0.00    +0.000 HD
ATOM     29  H   UNL     1      46.626   2.515  17.190  0.00  0.00    +0.000 HD
ENDBRANCH  22  25
ENDBRANCH  16  17
ENDBRANCH   1  16
TORSDOF 7
ENDMDL
MODEL 3
REMARK VINA RESULT:    -6.968      3.205      6.985
REMARK INTER + INTRA:         -10.412
REMARK INTER:                  -9.521
REMARK INTRA:                  -0.891
REMARK UNBOUND:                -0.797
REMARK  Name = 
REMARK  8 active torsions:
REMARK  status: ('A' for Active; 'I' for Inactive)
REMARK    1  A    between atoms: C_1  and  C_2
REMARK    2  A    between atoms: C_2  and  O_3
REMARK    3  A    between atoms: C_5  and  O_6
REMARK    4  A    between atoms: O_6  and  C_7
REMARK    5  A    between atoms: C_11  and  C_12
REMARK    6  A    between atoms: C_12  and  C_13
REMARK    7  A    between atoms: C_13  and  N_14
REMARK    8  A    between atoms: C_19  and  C_20
REMARK                            x       y       z     vdW  Elec       q    Type
REMARK                         _______ _______ _______ _____ _____    ______ ____
ROOT
ATOM      1  C   UNL     1      49.647   7.667  14.493  0.00  0.00    +0.000 C 
ENDROOT
BRANCH   1   6
ATOM      2  C   UNL     1      46.461   6.241  12.862  0.00  0.00    +0.000 A 
ATOM      3  C   UNL     1      45.662   7.378  12.809  0.00  0.00    +0.000 A 
ATOM      4  C   UNL     1      46.179   8.606  13.222  0.00  0.00    +0.000 A 
ATOM      5  C   UNL     1      47.478   8.692  13.730  0.00  0.00    +0.000 A 
ATOM      6  C   UNL     1      48.275   7.545  13.848  0.00  0.00    +0.000 A 
ATOM      7  C   UNL     1      47.750   6.325  13.386  0.00  0.00    +0.000 A 
BRANCH   2   8
ATOM      8  O   UNL     1      46.070   4.995  12.429  0.00  0.00    +0.000 OA
BRANCH   8  12
ATOM      9  C   UNL     1      45.593   3.500   8.160  0.00  0.00    +0.000 C 
ATOM     10  C   UNL     1      44.900   4.239   9.292  0.00  0.00    +0.000 C 
ATOM     11  C   UNL     1      45.750   5.363   9.931  0.00  0.00    +0.000 C 
ATOM     12  C   UNL     1      45.166   4.940  11.304  0.00  0.00    +0.000 C 
ATOM     13  C   UNL     1      44.936   3.541  10.681  0.00  0.00    +0.000 C 
BRANCH  10  14
ATOM     14  O   UNL     1      43.582   4.647   8.862  0.00  0.00    +0.000 OA
ATOM     15  H   UNL     1      43.209   5.147   9.608  0.00  0.00    +0.000 HD
ENDBRANCH  10  14
ENDBRANCH   8  12
ENDBRANCH   2   8
ENDBRANCH   1   6
BRANCH   1  16
ATOM     16  C   UNL     1      49.608   7.667  16.021  0.00  0.00    +0.000 C 
BRANCH  16  17
ATOM     17  N   UNL     1      50.702   6.910  16.637  0.00  0.00    +0.000 N 
ATOM     18  C   UNL     1      50.280   5.596  16.956  0.00  0.00    +0.000 A 
ATOM     19  C   UNL     1      51.166   4.698  17.563  0.00  0.00    +0.000 A 
ATOM     20  N   UNL     1      50.845   3.421  17.897  0.00  0.00    +0.000 NA
ATOM     21  C   UNL     1      49.575   3.052  17.582  0.00  0.00    +0.000 A 
ATOM     22  C   UNL     1      48.690   3.922  16.972  0.00  0.00    +0.000 A 
ATOM     23  N   UNL     1      49.025   5.199  16.646  0.00  0.00    +0.000 NA
ATOM     24  H   UNL     1      51.051   7.354  17.484  0.00  0.00    +0.000 HD
BRANCH  22  25
ATOM     25  C   UNL     1      47.302   3.485  16.657  0.00  0.00    +0.000 C 
ATOM     26  N   UNL     1      46.886   3.665  15.366  0.00  0.00    +0.000 N 
ATOM     27  O   UNL     1      46.568   2.993  17.504  0.00  0.00    +0.000 OA
ATOM     28  H   UNL     1      47.507   4.074  14.675  0.00  0.00    +0.000 HD
ATOM     29  H   UNL     1      45.950   3.389  15.104  0.00  0.00    +0.000 HD
ENDBRANCH  22  25
ENDBRANCH  16  17
ENDBRANCH   1  16
TORSDOF 7
ENDMDL
MODEL 4
REMARK VINA RESULT:    -6.936      1.654      2.620
REMARK INTER + INTRA:         -10.368
REMARK INTER:                  -9.423
REMARK INTRA:                  -0.945
REMARK UNBOUND:                -0.797
REMARK  Name = 
REMARK  8 active torsions:
REMARK  status: ('A' for Active; 'I' for Inactive)
REMARK    1  A    between atoms: C_1  and  C_2
REMARK    2  A    between atoms: C_2  and  O_3
REMARK    3  A    between atoms: C_5  and  O_6
REMARK    4  A    between atoms: O_6  and  C_7
REMARK    5  A    between atoms: C_11  and  C_12
REMARK    6  A    between atoms: C_12  and  C_13
REMARK    7  A    between atoms: C_13  and  N_14
REMARK    8  A    between atoms: C_19  and  C_20
REMARK                            x       y       z     vdW  Elec       q    Type
REMARK                         _______ _______ _______ _____ _____    ______ ____
ROOT
ATOM      1  C   UNL     1      43.602   6.221  12.151  0.00  0.00    +0.000 C 
ENDROOT
BRANCH   1   6
ATOM      2  C   UNL     1      47.128   5.756  13.633  0.00  0.00    +0.000 A 
ATOM      3  C   UNL     1      47.645   7.040  13.489  0.00  0.00    +0.000 A 
ATOM      4  C   UNL     1      46.833   8.060  12.993  0.00  0.00    +0.000 A 
ATOM      5  C   UNL     1      45.519   7.790  12.598  0.00  0.00    +0.000 A 
ATOM      6  C   UNL     1      45.003   6.490  12.678  0.00  0.00    +0.000 A 
ATOM      7  C   UNL     1      45.824   5.485  13.222  0.00  0.00    +0.000 A 
BRANCH   2   8
ATOM      8  O   UNL     1      47.823   4.693  14.162  0.00  0.00    +0.000 OA
BRANCH   8  12
ATOM      9  C   UNL     1      48.724   3.122  18.334  0.00  0.00    +0.000 C 
ATOM     10  C   UNL     1      47.633   3.294  17.290  0.00  0.00    +0.000 C 
ATOM     11  C   UNL     1      48.030   2.819  15.873  0.00  0.00    +0.000 C 
ATOM     12  C   UNL     1      47.248   4.036  15.313  0.00  0.00    +0.000 C 
ATOM     13  C   UNL     1      47.495   4.718  16.681  0.00  0.00    +0.000 C 
BRANCH  10  14
ATOM     14  O   UNL     1      46.398   2.735  17.792  0.00  0.00    +0.000 OA
ATOM     15  H   UNL     1      46.072   3.376  18.447  0.00  0.00    +0.000 HD
ENDBRANCH  10  14
ENDBRANCH   8  12
ENDBRANCH   2   8
ENDBRANCH   1   6
BRANCH   1  16
ATOM     16  C   UNL     1      43.584   5.501  10.803  0.00  0.00    +0.000 C 
BRANCH  16  17
ATOM     17  N   UNL     1      43.394   4.052  10.913  0.00  0.00    +0.000 N 
ATOM     18  C   UNL     1      44.216   3.370   9.982  0.00  0.00    +0.000 A 
ATOM     19  C   UNL     1      44.188   1.973   9.907  0.00  0.00    +0.000 A 
ATOM     20  N   UNL     1      44.947   1.242   9.048  0.00  0.00    +0.000 NA
ATOM     21  C   UNL     1      45.769   1.974   8.250  0.00  0.00    +0.000 A 
ATOM     22  C   UNL     1      45.817   3.355   8.319  0.00  0.00    +0.000 A 
ATOM     23  N   UNL     1      45.050   4.072   9.182  0.00  0.00    +0.000 NA
ATOM     24  H   UNL     1      42.427   3.775  10.757  0.00  0.00    +0.000 HD
BRANCH  22  25
ATOM     25  C   UNL     1      46.720   4.121   7.417  0.00  0.00    +0.000 C 
ATOM     26  N   UNL     1      46.986   3.555   6.200  0.00  0.00    +0.000 N 
ATOM     27  O   UNL     1      47.205   5.196   7.744  0.00  0.00    +0.000 OA
ATOM     28  H   UNL     1      46.576   2.663   5.943  0.00  0.00    +0.000 HD
ATOM     29  H   UNL     1      47.599   4.034   5.554  0.00  0.00    +0.000 HD
ENDBRANCH  22  25
ENDBRANCH  16  17
ENDBRANCH   1  16
TORSDOF 7
ENDMDL
MODEL 5
REMARK VINA RESULT:    -6.764      3.534      7.141
REMARK INTER + INTRA:         -10.130
REMARK INTER:                  -9.565
REMARK INTRA:                  -0.565
REMARK UNBOUND:                -0.797
REMARK  Name = 
REMARK  8 active torsions:
REMARK  status: ('A' for Active; 'I' for Inactive)
REMARK    1  A    between atoms: C_1  and  C_2
REMARK    2  A    between atoms: C_2  and  O_3
REMARK    3  A    between atoms: C_5  and  O_6
REMARK    4  A    between atoms: O_6  and  C_7
REMARK    5  A    between atoms: C_11  and  C_12
REMARK    6  A    between atoms: C_12  and  C_13
REMARK    7  A    between atoms: C_13  and  N_14
REMARK    8  A    between atoms: C_19  and  C_20
REMARK                            x       y       z     vdW  Elec       q    Type
REMARK                         _______ _______ _______ _____ _____    ______ ____
ROOT
ATOM      1  C   UNL     1      48.196   7.456  13.848  0.00  0.00    +0.000 C 
ENDROOT
BRANCH   1   6
ATOM      2  C   UNL     1      44.958   5.627  12.842  0.00  0.00    +0.000 A 
ATOM      3  C   UNL     1      44.352   6.588  12.040  0.00  0.00    +0.000 A 
ATOM      4  C   UNL     1      45.021   7.781  11.764  0.00  0.00    +0.000 A 
ATOM      5  C   UNL     1      46.277   8.033  12.325  0.00  0.00    +0.000 A 
ATOM      6  C   UNL     1      46.874   7.102  13.185  0.00  0.00    +0.000 A 
ATOM      7  C   UNL     1      46.201   5.888  13.416  0.00  0.00    +0.000 A 
BRANCH   2   8
ATOM      8  O   UNL     1      44.411   4.398  13.131  0.00  0.00    +0.000 OA
BRANCH   8  12
ATOM      9  C   UNL     1      44.556   3.842   8.620  0.00  0.00    +0.000 C 
ATOM     10  C   UNL     1      44.482   3.112   9.950  0.00  0.00    +0.000 C 
ATOM     11  C   UNL     1      43.403   3.656  10.914  0.00  0.00    +0.000 C 
ATOM     12  C   UNL     1      44.404   3.413  12.074  0.00  0.00    +0.000 C 
ATOM     13  C   UNL     1      45.529   3.539  11.018  0.00  0.00    +0.000 C 
BRANCH  10  14
ATOM     14  O   UNL     1      44.418   1.688   9.712  0.00  0.00    +0.000 OA
ATOM     15  H   UNL     1      43.525   1.419   9.986  0.00  0.00    +0.000 HD
ENDBRANCH  10  14
ENDBRANCH   8  12
ENDBRANCH   2   8
ENDBRANCH   1   6
BRANCH   1  16
ATOM     16  C   UNL     1      48.650   6.436  14.892  0.00  0.00    +0.000 C 
BRANCH  16  17
ATOM     17  N   UNL     1      48.240   6.772  16.259  0.00  0.00    +0.000 N 
ATOM     18  C   UNL     1      48.474   5.680  17.131  0.00  0.00    +0.000 A 
ATOM     19  C   UNL     1      48.146   5.779  18.488  0.00  0.00    +0.000 A 
ATOM     20  N   UNL     1      48.341   4.782  19.392  0.00  0.00    +0.000 NA
ATOM     21  C   UNL     1      48.906   3.655  18.884  0.00  0.00    +0.000 A 
ATOM     22  C   UNL     1      49.246   3.545  17.548  0.00  0.00    +0.000 A 
ATOM     23  N   UNL     1      49.042   4.549  16.654  0.00  0.00    +0.000 NA
ATOM     24  H   UNL     1      47.256   7.029  16.316  0.00  0.00    +0.000 HD
BRANCH  22  25
ATOM     25  C   UNL     1      49.849   2.287  17.027  0.00  0.00    +0.000 C 
ATOM     26  N   UNL     1      50.843   1.730  17.785  0.00  0.00    +0.000 N 
ATOM     27  O   UNL     1      49.482   1.777  15.977  0.00  0.00    +0.000 OA
ATOM     28  H   UNL     1      51.135   2.165  18.654  0.00  0.00    +0.000 HD
ATOM     29  H   UNL     1      51.287   0.879  17.471  0.00  0.00    +0.000 HD
ENDBRANCH  22  25
ENDBRANCH  16  17
ENDBRANCH   1  16
TORSDOF 7
ENDMDL
MODEL 6
REMARK VINA RESULT:    -6.636      3.990      6.854
REMARK INTER + INTRA:          -9.955
REMARK INTER:                  -9.210
REMARK INTRA:                  -0.744
REMARK UNBOUND:                -0.797
REMARK  Name = 
REMARK  8 active torsions:
REMARK  status: ('A' for Active; 'I' for Inactive)
REMARK    1  A    between atoms: C_1  and  C_2
REMARK    2  A    between atoms: C_2  and  O_3
REMARK    3  A    between atoms: C_5  and  O_6
REMARK    4  A    between atoms: O_6  and  C_7
REMARK    5  A    between atoms: C_11  and  C_12
REMARK    6  A    between atoms: C_12  and  C_13
REMARK    7  A    between atoms: C_13  and  N_14
REMARK    8  A    between atoms: C_19  and  C_20
REMARK                            x       y       z     vdW  Elec       q    Type
REMARK                         _______ _______ _______ _____ _____    ______ ____
ROOT
ATOM      1  C   UNL     1      50.800   7.867  14.866  0.00  0.00    +0.000 C 
ENDROOT
BRANCH   1   6
ATOM      2  C   UNL     1      47.589   6.795  13.027  0.00  0.00    +0.000 A 
ATOM      3  C   UNL     1      47.794   7.377  11.780  0.00  0.00    +0.000 A 
ATOM      4  C   UNL     1      48.993   8.038  11.515  0.00  0.00    +0.000 A 
ATOM      5  C   UNL     1      49.970   8.159  12.508  0.00  0.00    +0.000 A 
ATOM      6  C   UNL     1      49.754   7.633  13.788  0.00  0.00    +0.000 A 
ATOM      7  C   UNL     1      48.556   6.932  14.022  0.00  0.00    +0.000 A 
BRANCH   2   8
ATOM      8  O   UNL     1      46.470   6.074  13.375  0.00  0.00    +0.000 OA
BRANCH   8  12
ATOM      9  C   UNL     1      43.225   3.419  11.612  0.00  0.00    +0.000 C 
ATOM     10  C   UNL     1      43.840   4.808  11.570  0.00  0.00    +0.000 C 
ATOM     11  C   UNL     1      45.382   4.816  11.447  0.00  0.00    +0.000 C 
ATOM     12  C   UNL     1      45.391   6.027  12.416  0.00  0.00    +0.000 C 
ATOM     13  C   UNL     1      44.031   5.508  12.945  0.00  0.00    +0.000 C 
BRANCH  10  14
ATOM     14  O   UNL     1      43.150   5.607  10.582  0.00  0.00    +0.000 OA
ATOM     15  H   UNL     1      43.015   6.475  11.000  0.00  0.00    +0.000 HD
ENDBRANCH  10  14
ENDBRANCH   8  12
ENDBRANCH   2   8
ENDBRANCH   1   6
BRANCH   1  16
ATOM     16  C   UNL     1      50.875   6.746  15.902  0.00  0.00    +0.000 C 
BRANCH  16  17
ATOM     17  N   UNL     1      50.010   6.962  17.065  0.00  0.00    +0.000 N 
ATOM     18  C   UNL     1      49.549   5.725  17.580  0.00  0.00    +0.000 A 
ATOM     19  C   UNL     1      48.698   5.697  18.691  0.00  0.00    +0.000 A 
ATOM     20  N   UNL     1      48.215   4.556  19.250  0.00  0.00    +0.000 NA
ATOM     21  C   UNL     1      48.634   3.408  18.654  0.00  0.00    +0.000 A 
ATOM     22  C   UNL     1      49.484   3.418  17.562  0.00  0.00    +0.000 A 
ATOM     23  N   UNL     1      49.956   4.568  17.012  0.00  0.00    +0.000 NA
ATOM     24  H   UNL     1      49.203   7.544  16.845  0.00  0.00    +0.000 HD
BRANCH  22  25
ATOM     25  C   UNL     1      49.908   2.139  16.929  0.00  0.00    +0.000 C 
ATOM     26  N   UNL     1      50.889   1.437  17.574  0.00  0.00    +0.000 N 
ATOM     27  O   UNL     1      49.412   1.736  15.885  0.00  0.00    +0.000 OA
ATOM     28  H   UNL     1      51.290   1.785  18.439  0.00  0.00    +0.000 HD
ATOM     29  H   UNL     1      51.215   0.565  17.180  0.00  0.00    +0.000 HD
ENDBRANCH  22  25
ENDBRANCH  16  17
ENDBRANCH   1  16
TORSDOF 7
ENDMDL
MODEL 7
REMARK VINA RESULT:    -6.505      2.876      6.562
REMARK INTER + INTRA:          -9.774
REMARK INTER:                  -8.864
REMARK INTRA:                  -0.910
REMARK UNBOUND:                -0.797
REMARK  Name = 
REMARK  8 active torsions:
REMARK  status: ('A' for Active; 'I' for Inactive)
REMARK    1  A    between atoms: C_1  and  C_2
REMARK    2  A    between atoms: C_2  and  O_3
REMARK    3  A    between atoms: C_5  and  O_6
REMARK    4  A    between atoms: O_6  and  C_7
REMARK    5  A    between atoms: C_11  and  C_12
REMARK    6  A    between atoms: C_12  and  C_13
REMARK    7  A    between atoms: C_13  and  N_14
REMARK    8  A    between atoms: C_19  and  C_20
REMARK                            x       y       z     vdW  Elec       q    Type
REMARK                         _______ _______ _______ _____ _____    ______ ____
ROOT
ATOM      1  C   UNL     1      48.582   7.983  12.617  0.00  0.00    +0.000 C 
ENDROOT
BRANCH   1   6
ATOM      2  C   UNL     1      45.260   6.047  12.867  0.00  0.00    +0.000 A 
ATOM      3  C   UNL     1      44.388   6.945  12.260  0.00  0.00    +0.000 A 
ATOM      4  C   UNL     1      44.884   8.124  11.705  0.00  0.00    +0.000 A 
ATOM      5  C   UNL     1      46.245   8.430  11.795  0.00  0.00    +0.000 A 
ATOM      6  C   UNL     1      47.128   7.568  12.459  0.00  0.00    +0.000 A 
ATOM      7  C   UNL     1      46.614   6.363  12.973  0.00  0.00    +0.000 A 
BRANCH   2   8
ATOM      8  O   UNL     1      44.885   4.834  13.396  0.00  0.00    +0.000 OA
BRANCH   8  12
ATOM      9  C   UNL     1      44.465   3.824   8.981  0.00  0.00    +0.000 C 
ATOM     10  C   UNL     1      44.279   3.289  10.392  0.00  0.00    +0.000 C 
ATOM     11  C   UNL     1      43.511   4.242  11.336  0.00  0.00    +0.000 C 
ATOM     12  C   UNL     1      44.480   3.806  12.465  0.00  0.00    +0.000 C 
ATOM     13  C   UNL     1      45.494   3.460  11.347  0.00  0.00    +0.000 C 
BRANCH  10  14
ATOM     14  O   UNL     1      43.753   1.945  10.328  0.00  0.00    +0.000 OA
ATOM     15  H   UNL     1      43.032   1.979   9.676  0.00  0.00    +0.000 HD
ENDBRANCH  10  14
ENDBRANCH   8  12
ENDBRANCH   2   8
ENDBRANCH   1   6
BRANCH   1  16
ATOM     16  C   UNL     1      49.397   7.036  13.499  0.00  0.00    +0.000 C 
BRANCH  16  17
ATOM     17  N   UNL     1      49.787   7.621  14.785  0.00  0.00    +0.000 N 
ATOM     18  C   UNL     1      49.243   6.872  15.858  0.00  0.00    +0.000 A 
ATOM     19  C   UNL     1      49.483   7.259  17.181  0.00  0.00    +0.000 A 
ATOM     20  N   UNL     1      49.004   6.595  18.266  0.00  0.00    +0.000 NA
ATOM     21  C   UNL     1      48.268   5.489  17.978  0.00  0.00    +0.000 A 
ATOM     22  C   UNL     1      48.031   5.086  16.676  0.00  0.00    +0.000 A 
ATOM     23  N   UNL     1      48.514   5.762  15.600  0.00  0.00    +0.000 NA
ATOM     24  H   UNL     1      49.484   8.589  14.878  0.00  0.00    +0.000 HD
BRANCH  22  25
ATOM     25  C   UNL     1      47.207   3.877  16.402  0.00  0.00    +0.000 C 
ATOM     26  N   UNL     1      47.090   3.505  15.091  0.00  0.00    +0.000 N 
ATOM     27  O   UNL     1      46.658   3.248  17.298  0.00  0.00    +0.000 OA
ATOM     28  H   UNL     1      47.552   4.036  14.360  0.00  0.00    +0.000 HD
ATOM     29  H   UNL     1      46.536   2.694  14.853  0.00  0.00    +0.000 HD
ENDBRANCH  22  25
ENDBRANCH  16  17
ENDBRANCH   1  16
TORSDOF 7
ENDMDL
MODEL 8
REMARK VINA RESULT:    -6.350      3.950      5.795
REMARK INTER + INTRA:          -9.559
REMARK INTER:                  -8.902
REMARK INTRA:                  -0.657
REMARK UNBOUND:                -0.797
REMARK  Name = 
REMARK  8 active torsions:
REMARK  status: ('A' for Active; 'I' for Inactive)
REMARK    1  A    between atoms: C_1  and  C_2
REMARK    2  A    between atoms: C_2  and  O_3
REMARK    3  A    between atoms: C_5  and  O_6
REMARK    4  A    between atoms: O_6  and  C_7
REMARK    5  A    between atoms: C_11  and  C_12
REMARK    6  A    between atoms: C_12  and  C_13
REMARK    7  A    between atoms: C_13  and  N_14
REMARK    8  A    between atoms: C_19  and  C_20
REMARK                            x       y       z     vdW  Elec       q    Type
REMARK                         _______ _______ _______ _____ _____    ______ ____
ROOT
ATOM      1  C   UNL     1      47.166   4.094  17.377  0.00  0.00    +0.000 C 
ENDROOT
BRANCH   1   6
ATOM      2  C   UNL     1      50.921   4.043  18.240  0.00  0.00    +0.000 A 
ATOM      3  C   UNL     1      50.916   4.692  19.470  0.00  0.00    +0.000 A 
ATOM      4  C   UNL     1      49.704   5.068  20.049  0.00  0.00    +0.000 A 
ATOM      5  C   UNL     1      48.498   4.837  19.379  0.00  0.00    +0.000 A 
ATOM      6  C   UNL     1      48.490   4.241  18.111  0.00  0.00    +0.000 A 
ATOM      7  C   UNL     1      49.720   3.831  17.565  0.00  0.00    +0.000 A 
BRANCH   2   8
ATOM      8  O   UNL     1      52.053   3.581  17.608  0.00  0.00    +0.000 OA
BRANCH   8  12
ATOM      9  C   UNL     1      54.406  -0.188  16.642  0.00  0.00    +0.000 C 
ATOM     10  C   UNL     1      53.834   0.653  17.770  0.00  0.00    +0.000 C 
ATOM     11  C   UNL     1      52.353   1.054  17.576  0.00  0.00    +0.000 C 
ATOM     12  C   UNL     1      52.710   2.433  18.188  0.00  0.00    +0.000 C 
ATOM     13  C   UNL     1      54.163   2.171  17.720  0.00  0.00    +0.000 C 
BRANCH  10  14
ATOM     14  O   UNL     1      54.128   0.019  19.036  0.00  0.00    +0.000 OA
ATOM     15  H   UNL     1      53.746  -0.874  18.973  0.00  0.00    +0.000 HD
ENDBRANCH  10  14
ENDBRANCH   8  12
ENDBRANCH   2   8
ENDBRANCH   1   6
BRANCH   1  16
ATOM     16  C   UNL     1      47.318   3.966  15.861  0.00  0.00    +0.000 C 
BRANCH  16  17
ATOM     17  N   UNL     1      47.506   5.251  15.179  0.00  0.00    +0.000 N 
ATOM     18  C   UNL     1      46.795   5.272  13.953  0.00  0.00    +0.000 A 
ATOM     19  C   UNL     1      46.841   6.404  13.131  0.00  0.00    +0.000 A 
ATOM     20  N   UNL     1      46.186   6.508  11.945  0.00  0.00    +0.000 NA
ATOM     21  C   UNL     1      45.449   5.418  11.603  0.00  0.00    +0.000 A 
ATOM     22  C   UNL     1      45.384   4.296  12.409  0.00  0.00    +0.000 A 
ATOM     23  N   UNL     1      46.047   4.205  13.592  0.00  0.00    +0.000 NA
ATOM     24  H   UNL     1      48.487   5.449  14.989  0.00  0.00    +0.000 HD
BRANCH  22  25
ATOM     25  C   UNL     1      44.577   3.117  11.991  0.00  0.00    +0.000 C 
ATOM     26  N   UNL     1      44.844   2.607  10.750  0.00  0.00    +0.000 N 
ATOM     27  O   UNL     1      43.717   2.629  12.713  0.00  0.00    +0.000 OA
ATOM     28  H   UNL     1      45.560   3.023  10.163  0.00  0.00    +0.000 HD
ATOM     29  H   UNL     1      44.319   1.810  10.419  0.00  0.00    +0.000 HD
ENDBRANCH  22  25
ENDBRANCH  16  17
ENDBRANCH   1  16
TORSDOF 7
ENDMDL
MODEL 9
REMARK VINA RESULT:    -6.325      3.306      6.301
REMARK INTER + INTRA:          -9.525
REMARK INTER:                  -8.238
REMARK INTRA:                  -1.287
REMARK UNBOUND:                -0.797
REMARK  Name = 
REMARK  8 active torsions:
REMARK  status: ('A' for Active; 'I' for Inactive)
REMARK    1  A    between atoms: C_1  and  C_2
REMARK    2  A    between atoms: C_2  and  O_3
REMARK    3  A    between atoms: C_5  and  O_6
REMARK    4  A    between atoms: O_6  and  C_7
REMARK    5  A    between atoms: C_11  and  C_12
REMARK    6  A    between atoms: C_12  and  C_13
REMARK    7  A    between atoms: C_13  and  N_14
REMARK    8  A    between atoms: C_19  and  C_20
REMARK                            x       y       z     vdW  Elec       q    Type
REMARK                         _______ _______ _______ _____ _____    ______ ____
ROOT
ATOM      1  C   UNL     1      48.641   9.247  15.905  0.00  0.00    +0.000 C 
ENDROOT
BRANCH   1   6
ATOM      2  C   UNL     1      47.531   7.588  12.610  0.00  0.00    +0.000 A 
ATOM      3  C   UNL     1      48.718   7.627  11.884  0.00  0.00    +0.000 A 
ATOM      4  C   UNL     1      49.880   8.110  12.485  0.00  0.00    +0.000 A 
ATOM      5  C   UNL     1      49.850   8.597  13.795  0.00  0.00    +0.000 A 
ATOM      6  C   UNL     1      48.650   8.623  14.518  0.00  0.00    +0.000 A 
ATOM      7  C   UNL     1      47.499   8.091  13.909  0.00  0.00    +0.000 A 
BRANCH   2   8
ATOM      8  O   UNL     1      46.344   7.081  12.133  0.00  0.00    +0.000 OA
BRANCH   8  12
ATOM      9  C   UNL     1      43.243   3.780  11.726  0.00  0.00    +0.000 C 
ATOM     10  C   UNL     1      44.681   4.079  12.114  0.00  0.00    +0.000 C 
ATOM     11  C   UNL     1      44.841   5.265  13.093  0.00  0.00    +0.000 C 
ATOM     12  C   UNL     1      46.115   5.665  12.305  0.00  0.00    +0.000 C 
ATOM     13  C   UNL     1      45.498   4.923  11.094  0.00  0.00    +0.000 C 
BRANCH  10  14
ATOM     14  O   UNL     1      45.329   2.856  12.532  0.00  0.00    +0.000 OA
ATOM     15  H   UNL     1      45.199   2.231  11.799  0.00  0.00    +0.000 HD
ENDBRANCH  10  14
ENDBRANCH   8  12
ENDBRANCH   2   8
ENDBRANCH   1   6
BRANCH   1  16
ATOM     16  C   UNL     1      48.527   8.224  17.036  0.00  0.00    +0.000 C 
BRANCH  16  17
ATOM     17  N   UNL     1      49.810   7.628  17.420  0.00  0.00    +0.000 N 
ATOM     18  C   UNL     1      49.733   6.214  17.383  0.00  0.00    +0.000 A 
ATOM     19  C   UNL     1      50.846   5.438  17.724  0.00  0.00    +0.000 A 
ATOM     20  N   UNL     1      50.859   4.079  17.710  0.00  0.00    +0.000 NA
ATOM     21  C   UNL     1      49.691   3.502  17.319  0.00  0.00    +0.000 A 
ATOM     22  C   UNL     1      48.585   4.255  16.968  0.00  0.00    +0.000 A 
ATOM     23  N   UNL     1      48.587   5.614  16.990  0.00  0.00    +0.000 NA
ATOM     24  H   UNL     1      50.105   7.913  18.352  0.00  0.00    +0.000 HD
BRANCH  22  25
ATOM     25  C   UNL     1      47.320   3.585  16.559  0.00  0.00    +0.000 C 
ATOM     26  N   UNL     1      47.094   3.481  15.214  0.00  0.00    +0.000 N 
ATOM     27  O   UNL     1      46.520   3.152  17.379  0.00  0.00    +0.000 OA
ATOM     28  H   UNL     1      47.768   3.844  14.547  0.00  0.00    +0.000 HD
ATOM     29  H   UNL     1      46.246   3.039  14.886  0.00  0.00    +0.000 HD
ENDBRANCH  22  25
ENDBRANCH  16  17
ENDBRANCH   1  16
TORSDOF 7
ENDMDL
