MODEL 1
REMARK VINA RESULT:    -7.385      0.000      0.000
REMARK INTER + INTRA:          -9.704
REMARK INTER:                  -9.544
REMARK INTRA:                  -0.159
REMARK UNBOUND:                -0.159
REMARK  Name = 
REMARK  6 active torsions:
REMARK  status: ('A' for Active; 'I' for Inactive)
REMARK    1  A    between atoms: C_1  and  C_2
REMARK    2  A    between atoms: C_2  and  O_3
REMARK    3  A    between atoms: C_2  and  C_15
REMARK    4  A    between atoms: O_3  and  C_4
REMARK    5  A    between atoms: C_7  and  C_8
REMARK    6  A    between atoms: C_11  and  C_12
REMARK                            x       y       z     vdW  Elec       q    Type
REMARK                         _______ _______ _______ _____ _____    ______ ____
ROOT
ATOM      1  C   UNL     1      44.409   3.825   9.174  0.00  0.00    +0.000 A 
ATOM      2  C   UNL     1      44.435   2.556   9.752  0.00  0.00    +0.000 A 
ATOM      3  C   UNL     1      45.247   1.546   9.223  0.00  0.00    +0.000 A 
ATOM      4  C   UNL     1      46.028   1.785   8.079  0.00  0.00    +0.000 A 
ATOM      5  C   UNL     1      45.969   3.049   7.467  0.00  0.00    +0.000 A 
ATOM      6  C   UNL     1      45.157   4.060   8.022  0.00  0.00    +0.000 A 
ENDROOT
BRANCH   4   7
ATOM      7  C   UNL     1      46.942   0.731   7.566  0.00  0.00    +0.000 C 
ATOM      8  N   UNL     1      46.527  -0.568   7.651  0.00  0.00    +0.000 N 
ATOM      9  O   UNL     1      48.033   1.003   7.090  0.00  0.00    +0.000 OA
ATOM     10  H   UNL     1      45.595  -0.857   7.908  0.00  0.00    +0.000 HD
ATOM     11  H   UNL     1      47.140  -1.264   7.242  0.00  0.00    +0.000 HD
ENDBRANCH   4   7
BRANCH   5  12
ATOM     12  C   UNL     1      46.670   3.365   6.251  0.00  0.00    +0.000 C 
ATOM     13  N   UNL     1      47.140   3.617   5.222  0.00  0.00    +0.000 NA
ENDBRANCH   5  12
BRANCH   1  14
ATOM     14  O   UNL     1      43.605   4.740   9.802  0.00  0.00    +0.000 OA
BRANCH  14  16
ATOM     15  C   UNL     1      42.280   5.474  11.723  0.00  0.00    +0.000 C 
ATOM     16  C   UNL     1      43.496   4.679  11.235  0.00  0.00    +0.000 C 
BRANCH  16  17
ATOM     17  C   UNL     1      44.737   5.270  11.876  0.00  0.00    +0.000 A 
ATOM     18  C   UNL     1      45.515   6.206  11.181  0.00  0.00    +0.000 A 
ATOM     19  C   UNL     1      46.720   6.649  11.719  0.00  0.00    +0.000 A 
ATOM     20  C   UNL     1      47.111   6.143  12.946  0.00  0.00    +0.000 A 
ATOM     21  N   UNL     1      46.385   5.254  13.656  0.00  0.00    +0.000 NA
ATOM     22  C   UNL     1      45.219   4.838  13.108  0.00  0.00    +0.000 A 
ENDBRANCH  16  17
ENDBRANCH  14  16
ENDBRANCH   1  14
TORSDOF 5
ENDMDL
MODEL 2
REMARK VINA RESULT:    -6.958      2.860      6.882
REMARK INTER + INTRA:          -9.151
REMARK INTER:                  -8.411
REMARK INTRA:                  -0.740
REMARK UNBOUND:                -0.159
REMARK  Name = 
REMARK  6 active torsions:
REMARK  status: ('A' for Active; 'I' for Inactive)
REMARK    1  A    between atoms: C_1  and  C_2
REMARK    2  A    between atoms: C_2  and  O_3
REMARK    3  A    between atoms: C_2  and  C_15
REMARK    4  A    between atoms: O_3  and  C_4
REMARK    5  A    between atoms: C_7  and  C_8
REMARK    6  A    between atoms: C_11  and  C_12
REMARK                            x       y       z     vdW  Elec       q    Type
REMARK                         _______ _______ _______ _____ _____    ______ ____
ROOT
ATOM      1  C   UNL     1      45.974   5.257  12.695  0.00  0.00    +0.000 A 
ATOM      2  C   UNL     1      47.207   5.198  13.344  0.00  0.00    +0.000 A 
ATOM      3  C   UNL     1      47.829   6.363  13.807  0.00  0.00    +0.000 A 
ATOM      4  C   UNL     1      47.234   7.619  13.597  0.00  0.00    +0.000 A 
ATOM      5  C   UNL     1      46.013   7.687  12.904  0.00  0.00    +0.000 A 
ATOM      6  C   UNL     1      45.394   6.502  12.458  0.00  0.00    +0.000 A 
ENDROOT
BRANCH   4   7
ATOM      7  C   UNL     1      47.864   8.844  14.155  0.00  0.00    +0.000 C 
ATOM      8  N   UNL     1      47.554   9.192  15.440  0.00  0.00    +0.000 N 
ATOM      9  O   UNL     1      48.628   9.531  13.496  0.00  0.00    +0.000 OA
ATOM     10  H   UNL     1      47.039   8.609  16.083  0.00  0.00    +0.000 HD
ATOM     11  H   UNL     1      48.040   9.997  15.819  0.00  0.00    +0.000 HD
ENDBRANCH   4   7
BRANCH   5  12
ATOM     12  C   UNL     1      45.367   8.930  12.574  0.00  0.00    +0.000 C 
ATOM     13  N   UNL     1      44.892   9.922  12.211  0.00  0.00    +0.000 NA
ENDBRANCH   5  12
BRANCH   1  14
ATOM     14  O   UNL     1      45.448   4.049  12.321  0.00  0.00    +0.000 OA
BRANCH  14  16
ATOM     15  C   UNL     1      43.348   2.955  11.706  0.00  0.00    +0.000 C 
ATOM     16  C   UNL     1      44.373   4.042  11.365  0.00  0.00    +0.000 C 
BRANCH  16  17
ATOM     17  C   UNL     1      44.914   3.764   9.975  0.00  0.00    +0.000 A 
ATOM     18  C   UNL     1      45.056   2.444   9.522  0.00  0.00    +0.000 A 
ATOM     19  C   UNL     1      45.672   2.189   8.300  0.00  0.00    +0.000 A 
ATOM     20  C   UNL     1      46.127   3.267   7.562  0.00  0.00    +0.000 A 
ATOM     21  N   UNL     1      45.996   4.552   7.953  0.00  0.00    +0.000 NA
ATOM     22  C   UNL     1      45.396   4.771   9.146  0.00  0.00    +0.000 A 
ENDBRANCH  16  17
ENDBRANCH  14  16
ENDBRANCH   1  14
TORSDOF 5
ENDMDL
MODEL 3
REMARK VINA RESULT:    -6.864      2.195      6.212
REMARK INTER + INTRA:          -9.029
REMARK INTER:                  -9.495
REMARK INTRA:                   0.465
REMARK UNBOUND:                -0.159
REMARK  Name = 
REMARK  6 active torsions:
REMARK  status: ('A' for Active; 'I' for Inactive)
REMARK    1  A    between atoms: C_1  and  C_2
REMARK    2  A    between atoms: C_2  and  O_3
REMARK    3  A    between atoms: C_2  and  C_15
REMARK    4  A    between atoms: O_3  and  C_4
REMARK    5  A    between atoms: C_7  and  C_8
REMARK    6  A    between atoms: C_11  and  C_12
REMARK                            x       y       z     vdW  Elec       q    Type
REMARK                         _______ _______ _______ _____ _____    ______ ____
ROOT
ATOM      1  C   UNL     1      44.907   5.600  11.483  0.00  0.00    +0.000 A 
ATOM      2  C   UNL     1      45.364   6.918  11.468  0.00  0.00    +0.000 A 
ATOM      3  C   UNL     1      46.435   7.313  12.279  0.00  0.00    +0.000 A 
ATOM      4  C   UNL     1      47.049   6.393  13.146  0.00  0.00    +0.000 A 
ATOM      5  C   UNL     1      46.561   5.076  13.198  0.00  0.00    +0.000 A 
ATOM      6  C   UNL     1      45.491   4.692  12.364  0.00  0.00    +0.000 A 
ENDROOT
BRANCH   4   7
ATOM      7  C   UNL     1      48.231   6.801  13.949  0.00  0.00    +0.000 C 
ATOM      8  N   UNL     1      48.005   7.403  15.155  0.00  0.00    +0.000 N 
ATOM      9  O   UNL     1      49.372   6.617  13.553  0.00  0.00    +0.000 OA
ATOM     10  H   UNL     1      47.104   7.469  15.603  0.00  0.00    +0.000 HD
ATOM     11  H   UNL     1      48.825   7.619  15.711  0.00  0.00    +0.000 HD
ENDBRANCH   4   7
BRANCH   5  12
ATOM     12  C   UNL     1      47.072   4.086  14.108  0.00  0.00    +0.000 C 
ATOM     13  N   UNL     1      47.512   3.231  14.755  0.00  0.00    +0.000 NA
ENDBRANCH   5  12
BRANCH   1  14
ATOM     14  O   UNL     1      43.878   5.325  10.621  0.00  0.00    +0.000 OA
BRANCH  14  16
ATOM     15  C   UNL     1      43.614   3.054  11.489  0.00  0.00    +0.000 C 
ATOM     16  C   UNL     1      43.651   3.954  10.249  0.00  0.00    +0.000 C 
BRANCH  16  17
ATOM     17  C   UNL     1      44.768   3.469   9.345  0.00  0.00    +0.000 A 
ATOM     18  C   UNL     1      45.407   4.359   8.470  0.00  0.00    +0.000 A 
ATOM     19  C   UNL     1      46.341   3.885   7.552  0.00  0.00    +0.000 A 
ATOM     20  C   UNL     1      46.612   2.529   7.539  0.00  0.00    +0.000 A 
ATOM     21  N   UNL     1      46.032   1.640   8.374  0.00  0.00    +0.000 NA
ATOM     22  C   UNL     1      45.126   2.128   9.255  0.00  0.00    +0.000 A 
ENDBRANCH  16  17
ENDBRANCH  14  16
ENDBRANCH   1  14
TORSDOF 5
ENDMDL
MODEL 4
REMARK VINA RESULT:    -6.590      4.414      6.934
REMARK INTER + INTRA:          -8.675
REMARK INTER:                  -8.002
REMARK INTRA:                  -0.673
REMARK UNBOUND:                -0.159
REMARK  Name = 
REMARK  6 active torsions:
REMARK  status: ('A' for Active; 'I' for Inactive)
REMARK    1  A    between atoms: C_1  and  C_2
REMARK    2  A    between atoms: C_2  and  O_3
REMARK    3  A    between atoms: C_2  and  C_15
REMARK    4  A    between atoms: O_3  and  C_4
REMARK    5  A    between atoms: C_7  and  C_8
REMARK    6  A    between atoms: C_11  and  C_12
REMARK                            x       y       z     vdW  Elec       q    Type
REMARK                         _______ _______ _______ _____ _____    ______ ____
ROOT
ATOM      1  C   UNL     1      47.525   5.335  14.523  0.00  0.00    +0.000 A 
ATOM      2  C   UNL     1      47.899   6.336  13.627  0.00  0.00    +0.000 A 
ATOM      3  C   UNL     1      47.212   6.509  12.419  0.00  0.00    +0.000 A 
ATOM      4  C   UNL     1      46.151   5.654  12.075  0.00  0.00    +0.000 A 
ATOM      5  C   UNL     1      45.800   4.616  12.954  0.00  0.00    +0.000 A 
ATOM      6  C   UNL     1      46.493   4.466  14.173  0.00  0.00    +0.000 A 
ENDROOT
BRANCH   4   7
ATOM      7  C   UNL     1      45.380   5.890  10.826  0.00  0.00    +0.000 C 
ATOM      8  N   UNL     1      44.225   6.616  10.917  0.00  0.00    +0.000 N 
ATOM      9  O   UNL     1      45.750   5.449   9.749  0.00  0.00    +0.000 OA
ATOM     10  H   UNL     1      43.927   7.118  11.740  0.00  0.00    +0.000 HD
ATOM     11  H   UNL     1      43.748   6.813  10.044  0.00  0.00    +0.000 HD
ENDBRANCH   4   7
BRANCH   5  12
ATOM     12  C   UNL     1      44.781   3.645  12.654  0.00  0.00    +0.000 C 
ATOM     13  N   UNL     1      43.890   2.944  12.418  0.00  0.00    +0.000 NA
ENDBRANCH   5  12
BRANCH   1  14
ATOM     14  O   UNL     1      48.247   5.287  15.685  0.00  0.00    +0.000 OA
BRANCH  14  16
ATOM     15  C   UNL     1      47.379   4.923  17.943  0.00  0.00    +0.000 C 
ATOM     16  C   UNL     1      47.907   4.281  16.656  0.00  0.00    +0.000 C 
BRANCH  16  17
ATOM     17  C   UNL     1      49.135   3.460  17.005  0.00  0.00    +0.000 A 
ATOM     18  C   UNL     1      50.232   4.062  17.638  0.00  0.00    +0.000 A 
ATOM     19  C   UNL     1      51.403   3.338  17.840  0.00  0.00    +0.000 A 
ATOM     20  C   UNL     1      51.442   2.026  17.405  0.00  0.00    +0.000 A 
ATOM     21  N   UNL     1      50.404   1.403  16.806  0.00  0.00    +0.000 NA
ATOM     22  C   UNL     1      49.278   2.131  16.620  0.00  0.00    +0.000 A 
ENDBRANCH  16  17
ENDBRANCH  14  16
ENDBRANCH   1  14
TORSDOF 5
ENDMDL
MODEL 5
REMARK VINA RESULT:    -6.532      2.697      7.106
REMARK INTER + INTRA:          -8.601
REMARK INTER:                  -7.929
REMARK INTRA:                  -0.672
REMARK UNBOUND:                -0.159
REMARK  Name = 
REMARK  6 active torsions:
REMARK  status: ('A' for Active; 'I' for Inactive)
REMARK    1  A    between atoms: C_1  and  C_2
REMARK    2  A    between atoms: C_2  and  O_3
REMARK    3  A    between atoms: C_2  and  C_15
REMARK    4  A    between atoms: O_3  and  C_4
REMARK    5  A    between atoms: C_7  and  C_8
REMARK    6  A    between atoms: C_11  and  C_12
REMARK                            x       y       z     vdW  Elec       q    Type
REMARK                         _______ _______ _______ _____ _____    ______ ____
ROOT
ATOM      1  C   UNL     1      46.001   5.185  12.726  0.00  0.00    +0.000 A 
ATOM      2  C   UNL     1      45.503   6.422  12.319  0.00  0.00    +0.000 A 
ATOM      3  C   UNL     1      46.087   7.612  12.772  0.00  0.00    +0.000 A 
ATOM      4  C   UNL     1      47.166   7.578  13.672  0.00  0.00    +0.000 A 
ATOM      5  C   UNL     1      47.640   6.334  14.120  0.00  0.00    +0.000 A 
ATOM      6  C   UNL     1      47.051   5.146  13.642  0.00  0.00    +0.000 A 
ENDROOT
BRANCH   4   7
ATOM      7  C   UNL     1      47.827   8.842  14.091  0.00  0.00    +0.000 C 
ATOM      8  N   UNL     1      47.516   9.346  15.323  0.00  0.00    +0.000 N 
ATOM      9  O   UNL     1      48.617   9.426  13.365  0.00  0.00    +0.000 OA
ATOM     10  H   UNL     1      46.979   8.856  16.023  0.00  0.00    +0.000 HD
ATOM     11  H   UNL     1      48.022  10.176  15.611  0.00  0.00    +0.000 HD
ENDBRANCH   4   7
BRANCH   5  12
ATOM     12  C   UNL     1      48.687   6.200  15.098  0.00  0.00    +0.000 C 
ATOM     13  N   UNL     1      49.524   6.198  15.899  0.00  0.00    +0.000 NA
ENDBRANCH   5  12
BRANCH   1  14
ATOM     14  O   UNL     1      45.371   4.093  12.189  0.00  0.00    +0.000 OA
BRANCH  14  16
ATOM     15  C   UNL     1      43.129   3.524  11.394  0.00  0.00    +0.000 C 
ATOM     16  C   UNL     1      44.418   4.310  11.133  0.00  0.00    +0.000 C 
BRANCH  16  17
ATOM     17  C   UNL     1      44.995   3.845   9.809  0.00  0.00    +0.000 A 
ATOM     18  C   UNL     1      45.091   2.476   9.519  0.00  0.00    +0.000 A 
ATOM     19  C   UNL     1      45.737   2.052   8.362  0.00  0.00    +0.000 A 
ATOM     20  C   UNL     1      46.268   3.014   7.521  0.00  0.00    +0.000 A 
ATOM     21  N   UNL     1      46.184   4.341   7.753  0.00  0.00    +0.000 NA
ATOM     22  C   UNL     1      45.553   4.726   8.888  0.00  0.00    +0.000 A 
ENDBRANCH  16  17
ENDBRANCH  14  16
ENDBRANCH   1  14
TORSDOF 5
ENDMDL
MODEL 6
REMARK VINA RESULT:    -6.487      2.987      6.840
REMARK INTER + INTRA:          -8.543
REMARK INTER:                  -7.777
REMARK INTRA:                  -0.766
REMARK UNBOUND:                -0.159
REMARK  Name = 
REMARK  6 active torsions:
REMARK  status: ('A' for Active; 'I' for Inactive)
REMARK    1  A    between atoms: C_1  and  C_2
REMARK    2  A    between atoms: C_2  and  O_3
REMARK    3  A    between atoms: C_2  and  C_15
REMARK    4  A    between atoms: O_3  and  C_4
REMARK    5  A    between atoms: C_7  and  C_8
REMARK    6  A    between atoms: C_11  and  C_12
REMARK                            x       y       z     vdW  Elec       q    Type
REMARK                         _______ _______ _______ _____ _____    ______ ____
ROOT
ATOM      1  C   UNL     1      45.963   6.289  12.047  0.00  0.00    +0.000 A 
ATOM      2  C   UNL     1      45.153   7.339  12.481  0.00  0.00    +0.000 A 
ATOM      3  C   UNL     1      45.667   8.635  12.603  0.00  0.00    +0.000 A 
ATOM      4  C   UNL     1      47.019   8.896  12.320  0.00  0.00    +0.000 A 
ATOM      5  C   UNL     1      47.849   7.832  11.928  0.00  0.00    +0.000 A 
ATOM      6  C   UNL     1      47.311   6.535  11.795  0.00  0.00    +0.000 A 
ENDROOT
BRANCH   4   7
ATOM      7  C   UNL     1      47.539  10.287  12.383  0.00  0.00    +0.000 C 
ATOM      8  N   UNL     1      48.013  10.737  13.583  0.00  0.00    +0.000 N 
ATOM      9  O   UNL     1      47.540  11.017  11.403  0.00  0.00    +0.000 OA
ATOM     10  H   UNL     1      48.164  10.155  14.394  0.00  0.00    +0.000 HD
ATOM     11  H   UNL     1      48.417  11.667  13.587  0.00  0.00    +0.000 HD
ENDBRANCH   4   7
BRANCH   5  12
ATOM     12  C   UNL     1      49.260   7.985  11.693  0.00  0.00    +0.000 C 
ATOM     13  N   UNL     1      50.400   8.002  11.486  0.00  0.00    +0.000 NA
ENDBRANCH   5  12
BRANCH   1  14
ATOM     14  O   UNL     1      45.339   5.075  11.932  0.00  0.00    +0.000 OA
BRANCH  14  16
ATOM     15  C   UNL     1      43.127   4.158  11.433  0.00  0.00    +0.000 C 
ATOM     16  C   UNL     1      44.349   4.915  10.901  0.00  0.00    +0.000 C 
BRANCH  16  17
ATOM     17  C   UNL     1      44.927   4.124   9.743  0.00  0.00    +0.000 A 
ATOM     18  C   UNL     1      44.901   2.722   9.759  0.00  0.00    +0.000 A 
ATOM     19  C   UNL     1      45.547   2.001   8.758  0.00  0.00    +0.000 A 
ATOM     20  C   UNL     1      46.199   2.707   7.763  0.00  0.00    +0.000 A 
ATOM     21  N   UNL     1      46.235   4.055   7.701  0.00  0.00    +0.000 NA
ATOM     22  C   UNL     1      45.601   4.731   8.688  0.00  0.00    +0.000 A 
ENDBRANCH  16  17
ENDBRANCH  14  16
ENDBRANCH   1  14
TORSDOF 5
ENDMDL
MODEL 7
REMARK VINA RESULT:    -6.442      4.136      6.453
REMARK INTER + INTRA:          -8.485
REMARK INTER:                  -7.933
REMARK INTRA:                  -0.552
REMARK UNBOUND:                -0.159
REMARK  Name = 
REMARK  6 active torsions:
REMARK  status: ('A' for Active; 'I' for Inactive)
REMARK    1  A    between atoms: C_1  and  C_2
REMARK    2  A    between atoms: C_2  and  O_3
REMARK    3  A    between atoms: C_2  and  C_15
REMARK    4  A    between atoms: O_3  and  C_4
REMARK    5  A    between atoms: C_7  and  C_8
REMARK    6  A    between atoms: C_11  and  C_12
REMARK                            x       y       z     vdW  Elec       q    Type
REMARK                         _______ _______ _______ _____ _____    ______ ____
ROOT
ATOM      1  C   UNL     1      47.124   5.426  13.300  0.00  0.00    +0.000 A 
ATOM      2  C   UNL     1      46.913   6.502  12.439  0.00  0.00    +0.000 A 
ATOM      3  C   UNL     1      45.770   6.561  11.633  0.00  0.00    +0.000 A 
ATOM      4  C   UNL     1      44.829   5.517  11.655  0.00  0.00    +0.000 A 
ATOM      5  C   UNL     1      45.060   4.409  12.487  0.00  0.00    +0.000 A 
ATOM      6  C   UNL     1      46.209   4.374  13.304  0.00  0.00    +0.000 A 
ENDROOT
BRANCH   4   7
ATOM      7  C   UNL     1      43.583   5.621  10.852  0.00  0.00    +0.000 C 
ATOM      8  N   UNL     1      42.645   6.535  11.244  0.00  0.00    +0.000 N 
ATOM      9  O   UNL     1      43.387   4.914   9.875  0.00  0.00    +0.000 OA
ATOM     10  H   UNL     1      42.792   7.238  11.953  0.00  0.00    +0.000 HD
ATOM     11  H   UNL     1      41.831   6.629  10.647  0.00  0.00    +0.000 HD
ENDBRANCH   4   7
BRANCH   5  12
ATOM     12  C   UNL     1      44.196   3.260  12.521  0.00  0.00    +0.000 C 
ATOM     13  N   UNL     1      43.416   2.403  12.553  0.00  0.00    +0.000 NA
ENDBRANCH   5  12
BRANCH   1  14
ATOM     14  O   UNL     1      48.258   5.498  14.064  0.00  0.00    +0.000 OA
BRANCH  14  16
ATOM     15  C   UNL     1      49.244   7.149  15.577  0.00  0.00    +0.000 C 
ATOM     16  C   UNL     1      48.160   6.085  15.374  0.00  0.00    +0.000 C 
BRANCH  16  17
ATOM     17  C   UNL     1      48.339   5.017  16.437  0.00  0.00    +0.000 A 
ATOM     18  C   UNL     1      47.427   3.957  16.536  0.00  0.00    +0.000 A 
ATOM     19  C   UNL     1      47.521   3.053  17.591  0.00  0.00    +0.000 A 
ATOM     20  C   UNL     1      48.532   3.234  18.517  0.00  0.00    +0.000 A 
ATOM     21  N   UNL     1      49.440   4.231  18.450  0.00  0.00    +0.000 NA
ATOM     22  C   UNL     1      49.324   5.097  17.416  0.00  0.00    +0.000 A 
ENDBRANCH  16  17
ENDBRANCH  14  16
ENDBRANCH   1  14
TORSDOF 5
ENDMDL
MODEL 8
REMARK VINA RESULT:    -5.857      4.345      6.542
REMARK INTER + INTRA:          -7.728
REMARK INTER:                  -7.029
REMARK INTRA:                  -0.699
REMARK UNBOUND:                -0.159
REMARK  Name = 
REMARK  6 active torsions:
REMARK  status: ('A' for Active; 'I' for Inactive)
REMARK    1  A    between atoms: C_1  and  C_2
REMARK    2  A    between atoms: C_2  and  O_3
REMARK    3  A    between atoms: C_2  and  C_15
REMARK    4  A    between atoms: O_3  and  C_4
REMARK    5  A    between atoms: C_7  and  C_8
REMARK    6  A    between atoms: C_11  and  C_12
REMARK                            x       y       z     vdW  Elec       q    Type
REMARK                         _______ _______ _______ _____ _____    ______ ____
ROOT
ATOM      1  C   UNL     1      47.253   5.796  13.373  0.00  0.00    +0.000 A 
ATOM      2  C   UNL     1      46.598   4.566  13.352  0.00  0.00    +0.000 A 
ATOM      3  C   UNL     1      45.369   4.421  12.696  0.00  0.00    +0.000 A 
ATOM      4  C   UNL     1      44.760   5.524  12.073  0.00  0.00    +0.000 A 
ATOM      5  C   UNL     1      45.395   6.775  12.132  0.00  0.00    +0.000 A 
ATOM      6  C   UNL     1      46.640   6.900  12.783  0.00  0.00    +0.000 A 
ENDROOT
BRANCH   4   7
ATOM      7  C   UNL     1      43.492   5.346  11.318  0.00  0.00    +0.000 C 
ATOM      8  N   UNL     1      43.578   4.948  10.013  0.00  0.00    +0.000 N 
ATOM      9  O   UNL     1      42.403   5.553  11.831  0.00  0.00    +0.000 OA
ATOM     10  H   UNL     1      44.426   4.634   9.564  0.00  0.00    +0.000 HD
ATOM     11  H   UNL     1      42.701   4.776   9.536  0.00  0.00    +0.000 HD
ENDBRANCH   4   7
BRANCH   5  12
ATOM     12  C   UNL     1      44.814   7.976  11.593  0.00  0.00    +0.000 C 
ATOM     13  N   UNL     1      44.262   8.882  11.125  0.00  0.00    +0.000 NA
ENDBRANCH   5  12
BRANCH   1  14
ATOM     14  O   UNL     1      48.465   5.806  14.013  0.00  0.00    +0.000 OA
BRANCH  14  16
ATOM     15  C   UNL     1      49.789   7.563  15.081  0.00  0.00    +0.000 C 
ATOM     16  C   UNL     1      48.599   6.606  15.201  0.00  0.00    +0.000 C 
BRANCH  16  17
ATOM     17  C   UNL     1      48.830   5.712  16.405  0.00  0.00    +0.000 A 
ATOM     18  C   UNL     1      50.078   5.697  17.047  0.00  0.00    +0.000 A 
ATOM     19  C   UNL     1      50.325   4.785  18.068  0.00  0.00    +0.000 A 
ATOM     20  C   UNL     1      49.312   3.912  18.422  0.00  0.00    +0.000 A 
ATOM     21  N   UNL     1      48.093   3.903  17.843  0.00  0.00    +0.000 NA
ATOM     22  C   UNL     1      47.880   4.800  16.851  0.00  0.00    +0.000 A 
ENDBRANCH  16  17
ENDBRANCH  14  16
ENDBRANCH   1  14
TORSDOF 5
ENDMDL
MODEL 9
REMARK VINA RESULT:    -5.716      4.166      7.670
REMARK INTER + INTRA:          -7.547
REMARK INTER:                  -7.155
REMARK INTRA:                  -0.392
REMARK UNBOUND:                -0.159
REMARK  Name = 
REMARK  6 active torsions:
REMARK  status: ('A' for Active; 'I' for Inactive)
REMARK    1  A    between atoms: C_1  and  C_2
REMARK    2  A    between atoms: C_2  and  O_3
REMARK    3  A    between atoms: C_2  and  C_15
REMARK    4  A    between atoms: O_3  and  C_4
REMARK    5  A    between atoms: C_7  and  C_8
REMARK    6  A    between atoms: C_11  and  C_12
REMARK                            x       y       z     vdW  Elec       q    Type
REMARK                         _______ _______ _______ _____ _____    ______ ____
ROOT
ATOM      1  C   UNL     1      47.778   6.237  13.420  0.00  0.00    +0.000 A 
ATOM      2  C   UNL     1      48.674   7.178  13.927  0.00  0.00    +0.000 A 
ATOM      3  C   UNL     1      49.144   7.082  15.242  0.00  0.00    +0.000 A 
ATOM      4  C   UNL     1      48.695   6.050  16.085  0.00  0.00    +0.000 A 
ATOM      5  C   UNL     1      47.758   5.127  15.592  0.00  0.00    +0.000 A 
ATOM      6  C   UNL     1      47.307   5.230  14.260  0.00  0.00    +0.000 A 
ENDROOT
BRANCH   4   7
ATOM      7  C   UNL     1      49.254   5.912  17.456  0.00  0.00    +0.000 C 
ATOM      8  N   UNL     1      48.654   6.617  18.462  0.00  0.00    +0.000 N 
ATOM      9  O   UNL     1      50.220   5.203  17.688  0.00  0.00    +0.000 OA
ATOM     10  H   UNL     1      47.781   7.115  18.372  0.00  0.00    +0.000 HD
ATOM     11  H   UNL     1      49.014   6.461  19.397  0.00  0.00    +0.000 HD
ENDBRANCH   4   7
BRANCH   5  12
ATOM     12  C   UNL     1      47.183   4.085  16.401  0.00  0.00    +0.000 C 
ATOM     13  N   UNL     1      46.783   3.281  17.133  0.00  0.00    +0.000 NA
ENDBRANCH   5  12
BRANCH   1  14
ATOM     14  O   UNL     1      47.419   6.415  12.110  0.00  0.00    +0.000 OA
BRANCH  14  16
ATOM     15  C   UNL     1      45.750   7.998  12.941  0.00  0.00    +0.000 C 
ATOM     16  C   UNL     1      46.143   7.018  11.831  0.00  0.00    +0.000 C 
BRANCH  16  17
ATOM     17  C   UNL     1      45.071   5.948  11.743  0.00  0.00    +0.000 A 
ATOM     18  C   UNL     1      44.988   5.120  10.614  0.00  0.00    +0.000 A 
ATOM     19  C   UNL     1      43.927   4.229  10.480  0.00  0.00    +0.000 A 
ATOM     20  C   UNL     1      42.977   4.189  11.485  0.00  0.00    +0.000 A 
ATOM     21  N   UNL     1      43.027   4.956  12.594  0.00  0.00    +0.000 NA
ATOM     22  C   UNL     1      44.068   5.816  12.698  0.00  0.00    +0.000 A 
ENDBRANCH  16  17
ENDBRANCH  14  16
ENDBRANCH   1  14
TORSDOF 5
ENDMDL
