MODEL 1
REMARK VINA RESULT:    -6.319      0.000      0.000
REMARK INTER + INTRA:          -8.793
REMARK INTER:                  -7.982
REMARK INTRA:                  -0.812
REMARK UNBOUND:                -0.812
REMARK  Name = 
REMARK  8 active torsions:
REMARK  status: ('A' for Active; 'I' for Inactive)
REMARK    1  A    between atoms: C_1  and  C_2
REMARK    2  A    between atoms: C_2  and  C_3
REMARK    3  A    between atoms: C_2  and  C_4
REMARK    4  A    between atoms: C_2  and  C_5
REMARK    5  A    between atoms: C_10  and  C_11
REMARK    6  A    between atoms: C_11  and  O_13
REMARK    7  A    between atoms: N_16  and  C_17
REMARK    8  A    between atoms: C_17  and  C_18
REMARK                            x       y       z     vdW  Elec       q    Type
REMARK                         _______ _______ _______ _____ _____    ______ ____
ROOT
ATOM      1  C   UNL     1      47.982   6.530  14.235  0.00  0.00    +0.000 A 
ATOM      2  N   UNL     1      47.733   5.250  14.479  0.00  0.00    +0.000 NA
ATOM      3  C   UNL     1      46.880   4.820  13.526  0.00  0.00    +0.000 A 
ATOM      4  N   UNL     1      46.302   3.599  13.508  0.00  0.00    +0.000 NA
ATOM      5  C   UNL     1      45.421   3.410  12.504  0.00  0.00    +0.000 A 
ATOM      6  C   UNL     1      45.141   4.326  11.498  0.00  0.00    +0.000 A 
ATOM      7  C   UNL     1      45.763   5.585  11.522  0.00  0.00    +0.000 A 
ATOM      8  C   UNL     1      46.637   5.809  12.590  0.00  0.00    +0.000 A 
ATOM      9  N   UNL     1      47.404   6.892  13.021  0.00  0.00    +0.000 N 
ENDROOT
BRANCH   1  11
ATOM     10  C   UNL     1      50.277   7.378  14.771  0.00  0.00    +0.000 C 
ATOM     11  C   UNL     1      48.814   7.333  15.240  0.00  0.00    +0.000 C 
ATOM     12  C   UNL     1      48.780   6.575  16.599  0.00  0.00    +0.000 C 
ATOM     13  C   UNL     1      48.307   8.747  15.535  0.00  0.00    +0.000 C 
ENDBRANCH   1  11
BRANCH   6  14
ATOM     14  C   UNL     1      44.137   4.039  10.455  0.00  0.00    +0.000 C 
ATOM     15  O   UNL     1      43.873   2.899  10.109  0.00  0.00    +0.000 OA
BRANCH  14  16
ATOM     16  O   UNL     1      43.525   5.123   9.936  0.00  0.00    +0.000 OA
ATOM     17  H   UNL     1      43.123   5.028   9.052  0.00  0.00    +0.000 HD
ENDBRANCH  14  16
ENDBRANCH   6  14
BRANCH   9  18
ATOM     18  C   UNL     1      47.409   8.170  12.315  0.00  0.00    +0.000 C 
BRANCH  18  19
ATOM     19  C   UNL     1      48.749   8.630  11.798  0.00  0.00    +0.000 A 
ATOM     20  C   UNL     1      49.180   9.960  11.739  0.00  0.00    +0.000 A 
ATOM     21  C   UNL     1      50.485  10.251  11.339  0.00  0.00    +0.000 A 
ATOM     22  C   UNL     1      51.317   9.205  10.976  0.00  0.00    +0.000 A 
ATOM     23  N   UNL     1      50.921   7.918  10.952  0.00  0.00    +0.000 NA
ATOM     24  C   UNL     1      49.655   7.664  11.354  0.00  0.00    +0.000 A 
ENDBRANCH  18  19
ENDBRANCH   9  18
TORSDOF 5
ENDMDL
MODEL 2
REMARK VINA RESULT:    -6.103      1.881      4.444
REMARK INTER + INTRA:          -8.520
REMARK INTER:                  -7.730
REMARK INTRA:                  -0.790
REMARK UNBOUND:                -0.812
REMARK  Name = 
REMARK  8 active torsions:
REMARK  status: ('A' for Active; 'I' for Inactive)
REMARK    1  A    between atoms: C_1  and  C_2
REMARK    2  A    between atoms: C_2  and  C_3
REMARK    3  A    between atoms: C_2  and  C_4
REMARK    4  A    between atoms: C_2  and  C_5
REMARK    5  A    between atoms: C_10  and  C_11
REMARK    6  A    between atoms: C_11  and  O_13
REMARK    7  A    between atoms: N_16  and  C_17
REMARK    8  A    between atoms: C_17  and  C_18
REMARK                            x       y       z     vdW  Elec       q    Type
REMARK                         _______ _______ _______ _____ _____    ______ ____
ROOT
ATOM      1  C   UNL     1      46.574   7.910  12.405  0.00  0.00    +0.000 A 
ATOM      2  N   UNL     1      45.341   8.067  11.941  0.00  0.00    +0.000 NA
ATOM      3  C   UNL     1      44.806   6.835  11.806  0.00  0.00    +0.000 A 
ATOM      4  N   UNL     1      43.603   6.579  11.247  0.00  0.00    +0.000 NA
ATOM      5  C   UNL     1      43.300   5.269  11.142  0.00  0.00    +0.000 A 
ATOM      6  C   UNL     1      44.083   4.223  11.616  0.00  0.00    +0.000 A 
ATOM      7  C   UNL     1      45.324   4.507  12.209  0.00  0.00    +0.000 A 
ATOM      8  C   UNL     1      45.669   5.861  12.273  0.00  0.00    +0.000 A 
ATOM      9  N   UNL     1      46.785   6.569  12.718  0.00  0.00    +0.000 N 
ENDROOT
BRANCH   1  11
ATOM     10  C   UNL     1      47.814   9.382  14.009  0.00  0.00    +0.000 C 
ATOM     11  C   UNL     1      47.486   9.134  12.527  0.00  0.00    +0.000 C 
ATOM     12  C   UNL     1      46.695  10.370  12.009  0.00  0.00    +0.000 C 
ATOM     13  C   UNL     1      48.773   9.083  11.700  0.00  0.00    +0.000 C 
ENDBRANCH   1  11
BRANCH   6  14
ATOM     14  C   UNL     1      43.680   2.816  11.429  0.00  0.00    +0.000 C 
ATOM     15  O   UNL     1      43.641   2.296  10.325  0.00  0.00    +0.000 OA
BRANCH  14  16
ATOM     16  O   UNL     1      43.384   2.149  12.564  0.00  0.00    +0.000 OA
ATOM     17  H   UNL     1      44.091   1.606  12.959  0.00  0.00    +0.000 HD
ENDBRANCH  14  16
ENDBRANCH   6  14
BRANCH   9  18
ATOM     18  C   UNL     1      47.962   5.901  13.269  0.00  0.00    +0.000 C 
BRANCH  18  19
ATOM     19  C   UNL     1      47.888   5.539  14.731  0.00  0.00    +0.000 A 
ATOM     20  C   UNL     1      47.160   4.471  15.264  0.00  0.00    +0.000 A 
ATOM     21  C   UNL     1      47.256   4.173  16.625  0.00  0.00    +0.000 A 
ATOM     22  C   UNL     1      48.054   4.974  17.424  0.00  0.00    +0.000 A 
ATOM     23  N   UNL     1      48.716   6.053  16.965  0.00  0.00    +0.000 NA
ATOM     24  C   UNL     1      48.614   6.311  15.642  0.00  0.00    +0.000 A 
ENDBRANCH  18  19
ENDBRANCH   9  18
TORSDOF 5
ENDMDL
MODEL 3
REMARK VINA RESULT:    -6.012      1.490      2.260
REMARK INTER + INTRA:          -8.406
REMARK INTER:                  -7.868
REMARK INTRA:                  -0.538
REMARK UNBOUND:                -0.812
REMARK  Name = 
REMARK  8 active torsions:
REMARK  status: ('A' for Active; 'I' for Inactive)
REMARK    1  A    between atoms: C_1  and  C_2
REMARK    2  A    between atoms: C_2  and  C_3
REMARK    3  A    between atoms: C_2  and  C_4
REMARK    4  A    between atoms: C_2  and  C_5
REMARK    5  A    between atoms: C_10  and  C_11
REMARK    6  A    between atoms: C_11  and  O_13
REMARK    7  A    between atoms: N_16  and  C_17
REMARK    8  A    between atoms: C_17  and  C_18
REMARK                            x       y       z     vdW  Elec       q    Type
REMARK                         _______ _______ _______ _____ _____    ______ ____
ROOT
ATOM      1  C   UNL     1      47.655   4.664  15.259  0.00  0.00    +0.000 A 
ATOM      2  N   UNL     1      47.176   3.513  14.806  0.00  0.00    +0.000 NA
ATOM      3  C   UNL     1      46.528   3.778  13.652  0.00  0.00    +0.000 A 
ATOM      4  N   UNL     1      45.805   2.875  12.954  0.00  0.00    +0.000 NA
ATOM      5  C   UNL     1      45.176   3.375  11.872  0.00  0.00    +0.000 A 
ATOM      6  C   UNL     1      45.280   4.684  11.416  0.00  0.00    +0.000 A 
ATOM      7  C   UNL     1      46.048   5.607  12.144  0.00  0.00    +0.000 A 
ATOM      8  C   UNL     1      46.661   5.108  13.298  0.00  0.00    +0.000 A 
ATOM      9  N   UNL     1      47.445   5.662  14.310  0.00  0.00    +0.000 N 
ENDROOT
BRANCH   1  11
ATOM     10  C   UNL     1      48.764   3.283  17.031  0.00  0.00    +0.000 C 
ATOM     11  C   UNL     1      48.324   4.703  16.637  0.00  0.00    +0.000 C 
ATOM     12  C   UNL     1      47.256   5.167  17.671  0.00  0.00    +0.000 C 
ATOM     13  C   UNL     1      49.495   5.679  16.775  0.00  0.00    +0.000 C 
ENDBRANCH   1  11
BRANCH   6  14
ATOM     14  C   UNL     1      44.528   5.148  10.233  0.00  0.00    +0.000 C 
ATOM     15  O   UNL     1      43.308   5.191  10.219  0.00  0.00    +0.000 OA
BRANCH  14  16
ATOM     16  O   UNL     1      45.288   5.537   9.189  0.00  0.00    +0.000 OA
ATOM     17  H   UNL     1      46.255   5.458   9.287  0.00  0.00    +0.000 HD
ENDBRANCH  14  16
ENDBRANCH   6  14
BRANCH   9  18
ATOM     18  C   UNL     1      47.801   7.078  14.331  0.00  0.00    +0.000 C 
BRANCH  18  19
ATOM     19  C   UNL     1      49.002   7.466  13.505  0.00  0.00    +0.000 A 
ATOM     20  C   UNL     1      49.091   7.368  12.113  0.00  0.00    +0.000 A 
ATOM     21  C   UNL     1      50.218   7.860  11.452  0.00  0.00    +0.000 A 
ATOM     22  C   UNL     1      51.242   8.408  12.204  0.00  0.00    +0.000 A 
ATOM     23  N   UNL     1      51.227   8.459  13.550  0.00  0.00    +0.000 NA
ATOM     24  C   UNL     1      50.119   7.986  14.164  0.00  0.00    +0.000 A 
ENDBRANCH  18  19
ENDBRANCH   9  18
TORSDOF 5
ENDMDL
MODEL 4
REMARK VINA RESULT:    -5.950      3.481      5.652
REMARK INTER + INTRA:          -8.327
REMARK INTER:                  -7.507
REMARK INTRA:                  -0.820
REMARK UNBOUND:                -0.812
REMARK  Name = 
REMARK  8 active torsions:
REMARK  status: ('A' for Active; 'I' for Inactive)
REMARK    1  A    between atoms: C_1  and  C_2
REMARK    2  A    between atoms: C_2  and  C_3
REMARK    3  A    between atoms: C_2  and  C_4
REMARK    4  A    between atoms: C_2  and  C_5
REMARK    5  A    between atoms: C_10  and  C_11
REMARK    6  A    between atoms: C_11  and  O_13
REMARK    7  A    between atoms: N_16  and  C_17
REMARK    8  A    between atoms: C_17  and  C_18
REMARK                            x       y       z     vdW  Elec       q    Type
REMARK                         _______ _______ _______ _____ _____    ______ ____
ROOT
ATOM      1  C   UNL     1      45.252   4.568  12.451  0.00  0.00    +0.000 A 
ATOM      2  N   UNL     1      45.293   3.984  13.642  0.00  0.00    +0.000 NA
ATOM      3  C   UNL     1      46.303   4.554  14.332  0.00  0.00    +0.000 A 
ATOM      4  N   UNL     1      46.731   4.143  15.545  0.00  0.00    +0.000 NA
ATOM      5  C   UNL     1      47.806   4.807  16.016  0.00  0.00    +0.000 A 
ATOM      6  C   UNL     1      48.424   5.882  15.389  0.00  0.00    +0.000 A 
ATOM      7  C   UNL     1      47.957   6.308  14.135  0.00  0.00    +0.000 A 
ATOM      8  C   UNL     1      46.875   5.589  13.615  0.00  0.00    +0.000 A 
ATOM      9  N   UNL     1      46.149   5.634  12.426  0.00  0.00    +0.000 N 
ENDROOT
BRANCH   1  11
ATOM     10  C   UNL     1      43.244   5.102  11.053  0.00  0.00    +0.000 C 
ATOM     11  C   UNL     1      44.291   4.028  11.388  0.00  0.00    +0.000 C 
ATOM     12  C   UNL     1      43.536   2.813  12.002  0.00  0.00    +0.000 C 
ATOM     13  C   UNL     1      44.948   3.509  10.106  0.00  0.00    +0.000 C 
ENDBRANCH   1  11
BRANCH   6  14
ATOM     14  C   UNL     1      49.617   6.528  15.970  0.00  0.00    +0.000 C 
ATOM     15  O   UNL     1      49.747   6.682  17.174  0.00  0.00    +0.000 OA
BRANCH  14  16
ATOM     16  O   UNL     1      50.553   6.909  15.077  0.00  0.00    +0.000 OA
ATOM     17  H   UNL     1      50.304   6.890  14.134  0.00  0.00    +0.000 HD
ENDBRANCH  14  16
ENDBRANCH   6  14
BRANCH   9  18
ATOM     18  C   UNL     1      46.458   6.584  11.361  0.00  0.00    +0.000 C 
BRANCH  18  19
ATOM     19  C   UNL     1      46.030   8.009  11.608  0.00  0.00    +0.000 A 
ATOM     20  C   UNL     1      46.867   9.039  12.051  0.00  0.00    +0.000 A 
ATOM     21  C   UNL     1      46.378  10.343  12.140  0.00  0.00    +0.000 A 
ATOM     22  C   UNL     1      45.053  10.579  11.815  0.00  0.00    +0.000 A 
ATOM     23  N   UNL     1      44.195   9.606  11.451  0.00  0.00    +0.000 NA
ATOM     24  C   UNL     1      44.699   8.354  11.362  0.00  0.00    +0.000 A 
ENDBRANCH  18  19
ENDBRANCH   9  18
TORSDOF 5
ENDMDL
MODEL 5
REMARK VINA RESULT:    -5.818      3.259      5.903
REMARK INTER + INTRA:          -8.160
REMARK INTER:                  -7.229
REMARK INTRA:                  -0.931
REMARK UNBOUND:                -0.812
REMARK  Name = 
REMARK  8 active torsions:
REMARK  status: ('A' for Active; 'I' for Inactive)
REMARK    1  A    between atoms: C_1  and  C_2
REMARK    2  A    between atoms: C_2  and  C_3
REMARK    3  A    between atoms: C_2  and  C_4
REMARK    4  A    between atoms: C_2  and  C_5
REMARK    5  A    between atoms: C_10  and  C_11
REMARK    6  A    between atoms: C_11  and  O_13
REMARK    7  A    between atoms: N_16  and  C_17
REMARK    8  A    between atoms: C_17  and  C_18
REMARK                            x       y       z     vdW  Elec       q    Type
REMARK                         _______ _______ _______ _____ _____    ______ ____
ROOT
ATOM      1  C   UNL     1      48.250   7.660  14.021  0.00  0.00    +0.000 A 
ATOM      2  N   UNL     1      48.672   7.976  15.238  0.00  0.00    +0.000 NA
ATOM      3  C   UNL     1      48.494   6.887  16.016  0.00  0.00    +0.000 A 
ATOM      4  N   UNL     1      48.697   6.858  17.351  0.00  0.00    +0.000 NA
ATOM      5  C   UNL     1      48.382   5.687  17.942  0.00  0.00    +0.000 A 
ATOM      6  C   UNL     1      47.950   4.544  17.279  0.00  0.00    +0.000 A 
ATOM      7  C   UNL     1      47.759   4.586  15.888  0.00  0.00    +0.000 A 
ATOM      8  C   UNL     1      48.032   5.814  15.276  0.00  0.00    +0.000 A 
ATOM      9  N   UNL     1      47.937   6.304  13.974  0.00  0.00    +0.000 N 
ENDROOT
BRANCH   1  11
ATOM     10  C   UNL     1      49.146   8.380  11.795  0.00  0.00    +0.000 C 
ATOM     11  C   UNL     1      48.195   8.750  12.945  0.00  0.00    +0.000 C 
ATOM     12  C   UNL     1      48.719  10.071  13.579  0.00  0.00    +0.000 C 
ATOM     13  C   UNL     1      46.801   9.069  12.400  0.00  0.00    +0.000 C 
ENDBRANCH   1  11
BRANCH   6  14
ATOM     14  C   UNL     1      47.601   3.314  18.016  0.00  0.00    +0.000 C 
ATOM     15  O   UNL     1      46.775   2.520  17.595  0.00  0.00    +0.000 OA
BRANCH  14  16
ATOM     16  O   UNL     1      48.275   3.128  19.170  0.00  0.00    +0.000 OA
ATOM     17  H   UNL     1      48.102   3.758  19.894  0.00  0.00    +0.000 HD
ENDBRANCH  14  16
ENDBRANCH   6  14
BRANCH   9  18
ATOM     18  C   UNL     1      47.452   5.483  12.868  0.00  0.00    +0.000 C 
BRANCH  18  19
ATOM     19  C   UNL     1      45.992   5.107  12.919  0.00  0.00    +0.000 A 
ATOM     20  C   UNL     1      44.926   6.011  12.951  0.00  0.00    +0.000 A 
ATOM     21  C   UNL     1      43.613   5.540  12.889  0.00  0.00    +0.000 A 
ATOM     22  C   UNL     1      43.400   4.173  12.831  0.00  0.00    +0.000 A 
ATOM     23  N   UNL     1      44.395   3.266  12.869  0.00  0.00    +0.000 NA
ATOM     24  C   UNL     1      45.657   3.750  12.917  0.00  0.00    +0.000 A 
ENDBRANCH  18  19
ENDBRANCH   9  18
TORSDOF 5
ENDMDL
MODEL 6
REMARK VINA RESULT:    -5.667      3.304      5.188
REMARK INTER + INTRA:          -7.970
REMARK INTER:                  -7.204
REMARK INTRA:                  -0.766
REMARK UNBOUND:                -0.812
REMARK  Name = 
REMARK  8 active torsions:
REMARK  status: ('A' for Active; 'I' for Inactive)
REMARK    1  A    between atoms: C_1  and  C_2
REMARK    2  A    between atoms: C_2  and  C_3
REMARK    3  A    between atoms: C_2  and  C_4
REMARK    4  A    between atoms: C_2  and  C_5
REMARK    5  A    between atoms: C_10  and  C_11
REMARK    6  A    between atoms: C_11  and  O_13
REMARK    7  A    between atoms: N_16  and  C_17
REMARK    8  A    between atoms: C_17  and  C_18
REMARK                            x       y       z     vdW  Elec       q    Type
REMARK                         _______ _______ _______ _____ _____    ______ ____
ROOT
ATOM      1  C   UNL     1      45.628   4.730  12.356  0.00  0.00    +0.000 A 
ATOM      2  N   UNL     1      45.948   3.594  12.962  0.00  0.00    +0.000 NA
ATOM      3  C   UNL     1      46.735   3.910  14.012  0.00  0.00    +0.000 A 
ATOM      4  N   UNL     1      47.357   3.008  14.802  0.00  0.00    +0.000 NA
ATOM      5  C   UNL     1      48.158   3.546  15.744  0.00  0.00    +0.000 A 
ATOM      6  C   UNL     1      48.317   4.905  15.983  0.00  0.00    +0.000 A 
ATOM      7  C   UNL     1      47.650   5.830  15.163  0.00  0.00    +0.000 A 
ATOM      8  C   UNL     1      46.859   5.280  14.149  0.00  0.00    +0.000 A 
ATOM      9  N   UNL     1      46.089   5.806  13.112  0.00  0.00    +0.000 N 
ENDROOT
BRANCH   1  11
ATOM     10  C   UNL     1      44.736   3.219  10.568  0.00  0.00    +0.000 C 
ATOM     11  C   UNL     1      44.852   4.678  11.036  0.00  0.00    +0.000 C 
ATOM     12  C   UNL     1      45.680   5.450   9.967  0.00  0.00    +0.000 C 
ATOM     13  C   UNL     1      43.472   5.340  11.056  0.00  0.00    +0.000 C 
ENDBRANCH   1  11
BRANCH   6  14
ATOM     14  C   UNL     1      49.241   5.400  17.022  0.00  0.00    +0.000 C 
ATOM     15  O   UNL     1      50.450   5.418  16.857  0.00  0.00    +0.000 OA
BRANCH  14  16
ATOM     16  O   UNL     1      48.648   5.848  18.149  0.00  0.00    +0.000 OA
ATOM     17  H   UNL     1      47.881   5.345  18.479  0.00  0.00    +0.000 HD
ENDBRANCH  14  16
ENDBRANCH   6  14
BRANCH   9  18
ATOM     18  C   UNL     1      45.974   7.243  12.879  0.00  0.00    +0.000 C 
BRANCH  18  19
ATOM     19  C   UNL     1      47.239   7.943  12.451  0.00  0.00    +0.000 A 
ATOM     20  C   UNL     1      48.322   7.334  11.808  0.00  0.00    +0.000 A 
ATOM     21  C   UNL     1      49.394   8.110  11.366  0.00  0.00    +0.000 A 
ATOM     22  C   UNL     1      49.371   9.473  11.607  0.00  0.00    +0.000 A 
ATOM     23  N   UNL     1      48.383  10.089  12.283  0.00  0.00    +0.000 NA
ATOM     24  C   UNL     1      47.351   9.315  12.691  0.00  0.00    +0.000 A 
ENDBRANCH  18  19
ENDBRANCH   9  18
TORSDOF 5
ENDMDL
MODEL 7
REMARK VINA RESULT:    -5.449      3.144      6.013
REMARK INTER + INTRA:          -7.695
REMARK INTER:                  -7.300
REMARK INTRA:                  -0.395
REMARK UNBOUND:                -0.812
REMARK  Name = 
REMARK  8 active torsions:
REMARK  status: ('A' for Active; 'I' for Inactive)
REMARK    1  A    between atoms: C_1  and  C_2
REMARK    2  A    between atoms: C_2  and  C_3
REMARK    3  A    between atoms: C_2  and  C_4
REMARK    4  A    between atoms: C_2  and  C_5
REMARK    5  A    between atoms: C_10  and  C_11
REMARK    6  A    between atoms: C_11  and  O_13
REMARK    7  A    between atoms: N_16  and  C_17
REMARK    8  A    between atoms: C_17  and  C_18
REMARK                            x       y       z     vdW  Elec       q    Type
REMARK                         _______ _______ _______ _____ _____    ______ ____
ROOT
ATOM      1  C   UNL     1      45.248   8.746  11.855  0.00  0.00    +0.000 A 
ATOM      2  N   UNL     1      46.425   8.913  12.445  0.00  0.00    +0.000 NA
ATOM      3  C   UNL     1      46.729   7.752  13.063  0.00  0.00    +0.000 A 
ATOM      4  N   UNL     1      47.796   7.570  13.870  0.00  0.00    +0.000 NA
ATOM      5  C   UNL     1      47.864   6.352  14.446  0.00  0.00    +0.000 A 
ATOM      6  C   UNL     1      46.983   5.303  14.212  0.00  0.00    +0.000 A 
ATOM      7  C   UNL     1      45.887   5.503  13.357  0.00  0.00    +0.000 A 
ATOM      8  C   UNL     1      45.780   6.782  12.798  0.00  0.00    +0.000 A 
ATOM      9  N   UNL     1      44.858   7.414  11.965  0.00  0.00    +0.000 N 
ENDROOT
BRANCH   1  11
ATOM     10  C   UNL     1      45.583  11.100  11.064  0.00  0.00    +0.000 C 
ATOM     11  C   UNL     1      44.572   9.948  11.188  0.00  0.00    +0.000 C 
ATOM     12  C   UNL     1      43.426  10.430  12.125  0.00  0.00    +0.000 C 
ATOM     13  C   UNL     1      43.918   9.669   9.833  0.00  0.00    +0.000 C 
ENDBRANCH   1  11
BRANCH   6  14
ATOM     14  C   UNL     1      47.122   4.012  14.913  0.00  0.00    +0.000 C 
ATOM     15  O   UNL     1      46.945   3.907  16.116  0.00  0.00    +0.000 OA
BRANCH  14  16
ATOM     16  O   UNL     1      47.436   2.964  14.123  0.00  0.00    +0.000 OA
ATOM     17  H   UNL     1      47.993   2.264  14.512  0.00  0.00    +0.000 HD
ENDBRANCH  14  16
ENDBRANCH   6  14
BRANCH   9  18
ATOM     18  C   UNL     1      43.663   6.735  11.470  0.00  0.00    +0.000 C 
BRANCH  18  19
ATOM     19  C   UNL     1      43.882   5.362  10.886  0.00  0.00    +0.000 A 
ATOM     20  C   UNL     1      44.801   5.048   9.880  0.00  0.00    +0.000 A 
ATOM     21  C   UNL     1      44.987   3.719   9.497  0.00  0.00    +0.000 A 
ATOM     22  C   UNL     1      44.223   2.739  10.107  0.00  0.00    +0.000 A 
ATOM     23  N   UNL     1      43.278   3.004  11.030  0.00  0.00    +0.000 NA
ATOM     24  C   UNL     1      43.127   4.299  11.390  0.00  0.00    +0.000 A 
ENDBRANCH  18  19
ENDBRANCH   9  18
TORSDOF 5
ENDMDL
MODEL 8
REMARK VINA RESULT:    -5.221      2.715      3.999
REMARK INTER + INTRA:          -7.406
REMARK INTER:                  -6.465
REMARK INTRA:                  -0.940
REMARK UNBOUND:                -0.812
REMARK  Name = 
REMARK  8 active torsions:
REMARK  status: ('A' for Active; 'I' for Inactive)
REMARK    1  A    between atoms: C_1  and  C_2
REMARK    2  A    between atoms: C_2  and  C_3
REMARK    3  A    between atoms: C_2  and  C_4
REMARK    4  A    between atoms: C_2  and  C_5
REMARK    5  A    between atoms: C_10  and  C_11
REMARK    6  A    between atoms: C_11  and  O_13
REMARK    7  A    between atoms: N_16  and  C_17
REMARK    8  A    between atoms: C_17  and  C_18
REMARK                            x       y       z     vdW  Elec       q    Type
REMARK                         _______ _______ _______ _____ _____    ______ ____
ROOT
ATOM      1  C   UNL     1      48.205   5.005  16.200  0.00  0.00    +0.000 A 
ATOM      2  N   UNL     1      47.239   4.174  15.831  0.00  0.00    +0.000 NA
ATOM      3  C   UNL     1      46.731   4.642  14.672  0.00  0.00    +0.000 A 
ATOM      4  N   UNL     1      45.649   4.129  14.046  0.00  0.00    +0.000 NA
ATOM      5  C   UNL     1      45.267   4.801  12.942  0.00  0.00    +0.000 A 
ATOM      6  C   UNL     1      45.931   5.894  12.398  0.00  0.00    +0.000 A 
ATOM      7  C   UNL     1      47.064   6.406  13.051  0.00  0.00    +0.000 A 
ATOM      8  C   UNL     1      47.434   5.746  14.228  0.00  0.00    +0.000 A 
ATOM      9  N   UNL     1      48.427   5.937  15.188  0.00  0.00    +0.000 N 
ENDROOT
BRANCH   1  11
ATOM     10  C   UNL     1      50.404   4.793  17.381  0.00  0.00    +0.000 C 
ATOM     11  C   UNL     1      48.878   4.809  17.562  0.00  0.00    +0.000 C 
ATOM     12  C   UNL     1      48.455   3.414  18.105  0.00  0.00    +0.000 C 
ATOM     13  C   UNL     1      48.483   5.818  18.644  0.00  0.00    +0.000 C 
ENDBRANCH   1  11
BRANCH   6  14
ATOM     14  C   UNL     1      45.419   6.585  11.198  0.00  0.00    +0.000 C 
ATOM     15  O   UNL     1      44.918   7.696  11.256  0.00  0.00    +0.000 OA
BRANCH  14  16
ATOM     16  O   UNL     1      45.568   5.907  10.041  0.00  0.00    +0.000 OA
ATOM     17  H   UNL     1      44.899   6.058   9.347  0.00  0.00    +0.000 HD
ENDBRANCH  14  16
ENDBRANCH   6  14
BRANCH   9  18
ATOM     18  C   UNL     1      49.384   7.037  15.110  0.00  0.00    +0.000 C 
BRANCH  18  19
ATOM     19  C   UNL     1      49.208   8.136  16.127  0.00  0.00    +0.000 A 
ATOM     20  C   UNL     1      48.028   8.856  16.343  0.00  0.00    +0.000 A 
ATOM     21  C   UNL     1      47.958   9.778  17.389  0.00  0.00    +0.000 A 
ATOM     22  C   UNL     1      49.081   9.981  18.172  0.00  0.00    +0.000 A 
ATOM     23  N   UNL     1      50.257   9.361  17.955  0.00  0.00    +0.000 NA
ATOM     24  C   UNL     1      50.294   8.465  16.943  0.00  0.00    +0.000 A 
ENDBRANCH  18  19
ENDBRANCH   9  18
TORSDOF 5
ENDMDL
MODEL 9
REMARK VINA RESULT:    -5.176      3.482      6.343
REMARK INTER + INTRA:          -7.349
REMARK INTER:                  -6.735
REMARK INTRA:                  -0.614
REMARK UNBOUND:                -0.812
REMARK  Name = 
REMARK  8 active torsions:
REMARK  status: ('A' for Active; 'I' for Inactive)
REMARK    1  A    between atoms: C_1  and  C_2
REMARK    2  A    between atoms: C_2  and  C_3
REMARK    3  A    between atoms: C_2  and  C_4
REMARK    4  A    between atoms: C_2  and  C_5
REMARK    5  A    between atoms: C_10  and  C_11
REMARK    6  A    between atoms: C_11  and  O_13
REMARK    7  A    between atoms: N_16  and  C_17
REMARK    8  A    between atoms: C_17  and  C_18
REMARK                            x       y       z     vdW  Elec       q    Type
REMARK                         _______ _______ _______ _____ _____    ______ ____
ROOT
ATOM      1  C   UNL     1      44.635   6.345  11.853  0.00  0.00    +0.000 A 
ATOM      2  N   UNL     1      44.078   7.513  11.561  0.00  0.00    +0.000 NA
ATOM      3  C   UNL     1      45.024   8.460  11.733  0.00  0.00    +0.000 A 
ATOM      4  N   UNL     1      44.803   9.790  11.646  0.00  0.00    +0.000 NA
ATOM      5  C   UNL     1      45.874  10.558  11.931  0.00  0.00    +0.000 A 
ATOM      6  C   UNL     1      47.146  10.083  12.226  0.00  0.00    +0.000 A 
ATOM      7  C   UNL     1      47.364   8.697  12.298  0.00  0.00    +0.000 A 
ATOM      8  C   UNL     1      46.244   7.895  12.055  0.00  0.00    +0.000 A 
ATOM      9  N   UNL     1      46.000   6.522  12.069  0.00  0.00    +0.000 N 
ENDROOT
BRANCH   1  11
ATOM     10  C   UNL     1      44.126   4.177  10.705  0.00  0.00    +0.000 C 
ATOM     11  C   UNL     1      43.759   5.089  11.887  0.00  0.00    +0.000 C 
ATOM     12  C   UNL     1      42.280   5.535  11.693  0.00  0.00    +0.000 C 
ATOM     13  C   UNL     1      43.790   4.297  13.197  0.00  0.00    +0.000 C 
ENDBRANCH   1  11
BRANCH   6  14
ATOM     14  C   UNL     1      48.252  11.003  12.555  0.00  0.00    +0.000 C 
ATOM     15  O   UNL     1      49.083  11.336  11.726  0.00  0.00    +0.000 OA
BRANCH  14  16
ATOM     16  O   UNL     1      48.259  11.459  13.824  0.00  0.00    +0.000 OA
ATOM     17  H   UNL     1      47.938  10.853  14.518  0.00  0.00    +0.000 HD
ENDBRANCH  14  16
ENDBRANCH   6  14
BRANCH   9  18
ATOM     18  C   UNL     1      47.038   5.550  12.399  0.00  0.00    +0.000 C 
BRANCH  18  19
ATOM     19  C   UNL     1      47.331   5.375  13.869  0.00  0.00    +0.000 A 
ATOM     20  C   UNL     1      46.761   4.403  14.696  0.00  0.00    +0.000 A 
ATOM     21  C   UNL     1      47.193   4.273  16.017  0.00  0.00    +0.000 A 
ATOM     22  C   UNL     1      48.162   5.143  16.487  0.00  0.00    +0.000 A 
ATOM     23  N   UNL     1      48.687   6.137  15.745  0.00  0.00    +0.000 NA
ATOM     24  C   UNL     1      48.259   6.232  14.466  0.00  0.00    +0.000 A 
ENDBRANCH  18  19
ENDBRANCH   9  18
TORSDOF 5
ENDMDL
