MODEL 1
REMARK VINA RESULT:    -7.558      0.000      0.000
REMARK INTER + INTRA:         -11.216
REMARK INTER:                 -10.210
REMARK INTRA:                  -1.006
REMARK UNBOUND:                -1.006
REMARK  Name = 
REMARK  6 active torsions:
REMARK  status: ('A' for Active; 'I' for Inactive)
REMARK    1  A    between atoms: C_2  and  C_20
REMARK    2  A    between atoms: N_3  and  C_4
REMARK    3  A    between atoms: C_4  and  C_5
REMARK    4  A    between atoms: C_8  and  C_9
REMARK    5  A    between atoms: C_9  and  N_10
REMARK    6  A    between atoms: C_11  and  C_13
REMARK                            x       y       z     vdW  Elec       q    Type
REMARK                         _______ _______ _______ _____ _____    ______ ____
ROOT
ATOM      1  C   UNL     1      46.749   4.882  14.417  0.00  0.00    +0.000 A 
ATOM      2  C   UNL     1      45.850   4.187  13.598  0.00  0.00    +0.000 A 
ATOM      3  C   UNL     1      45.597   4.613  12.288  0.00  0.00    +0.000 A 
ATOM      4  C   UNL     1      46.255   5.732  11.761  0.00  0.00    +0.000 A 
ATOM      5  C   UNL     1      47.180   6.407  12.570  0.00  0.00    +0.000 A 
ATOM      6  C   UNL     1      47.432   5.981  13.880  0.00  0.00    +0.000 A 
ENDROOT
BRANCH   1   7
ATOM      7  C   UNL     1      46.957   4.470  15.853  0.00  0.00    +0.000 C 
BRANCH   7  10
ATOM      8  O   UNL     1      47.905   4.743  18.422  0.00  0.00    +0.000 OA
ATOM      9  C   UNL     1      48.717   4.471  17.540  0.00  0.00    +0.000 C 
ATOM     10  N   UNL     1      48.349   4.383  16.218  0.00  0.00    +0.000 N 
ATOM     11  H   UNL     1      48.979   3.947  15.552  0.00  0.00    +0.000 HD
BRANCH   9  12
ATOM     12  C   UNL     1      50.135   4.258  17.856  0.00  0.00    +0.000 A 
ATOM     13  C   UNL     1      50.859   5.258  18.491  0.00  0.00    +0.000 A 
ATOM     14  S   UNL     1      52.486   4.843  18.786  0.00  0.00    +0.000 S 
ATOM     15  C   UNL     1      52.267   3.294  18.119  0.00  0.00    +0.000 A 
ATOM     16  N   UNL     1      53.283   2.389  18.100  0.00  0.00    +0.000 NA
ATOM     17  C   UNL     1      52.965   1.240  17.604  0.00  0.00    +0.000 A 
ATOM     18  N   UNL     1      51.725   0.918  17.114  0.00  0.00    +0.000 N 
ATOM     19  C   UNL     1      50.682   1.810  17.072  0.00  0.00    +0.000 A 
ATOM     20  O   UNL     1      49.606   1.515  16.562  0.00  0.00    +0.000 OA
ATOM     21  C   UNL     1      50.979   3.107  17.647  0.00  0.00    +0.000 A 
ATOM     22  H   UNL     1      51.547   0.005  16.723  0.00  0.00    +0.000 HD
ENDBRANCH   9  12
ENDBRANCH   7  10
ENDBRANCH   1   7
BRANCH   4  23
ATOM     23  C   UNL     1      45.958   6.217  10.363  0.00  0.00    +0.000 C 
BRANCH  23  24
ATOM     24  N   UNL     1      45.334   5.190   9.560  0.00  0.00    +0.000 N 
ATOM     25  C   UNL     1      45.925   4.738   8.394  0.00  0.00    +0.000 C 
ATOM     26  O   UNL     1      47.007   5.153   7.988  0.00  0.00    +0.000 OA
ATOM     27  H   UNL     1      44.380   4.922   9.763  0.00  0.00    +0.000 HD
BRANCH  25  28
ATOM     28  C   UNL     1      45.086   3.658   7.665  0.00  0.00    +0.000 C 
ATOM     29  C   UNL     1      45.900   2.624   6.911  0.00  0.00    +0.000 C 
ATOM     30  C   UNL     1      46.324   1.648   7.993  0.00  0.00    +0.000 C 
ATOM     31  C   UNL     1      45.209   1.718   9.025  0.00  0.00    +0.000 C 
ATOM     32  N   UNL     1      44.338   2.844   8.654  0.00  0.00    +0.000 NA
ATOM     33  H   UNL     1      44.114   3.396   9.475  0.00  0.00    +0.000 HD
ENDBRANCH  25  28
ENDBRANCH  23  24
ENDBRANCH   4  23
TORSDOF 6
ENDMDL
MODEL 2
REMARK VINA RESULT:    -7.170      2.777      4.068
REMARK INTER + INTRA:         -10.691
REMARK INTER:                  -9.571
REMARK INTRA:                  -1.120
REMARK UNBOUND:                -1.006
REMARK  Name = 
REMARK  6 active torsions:
REMARK  status: ('A' for Active; 'I' for Inactive)
REMARK    1  A    between atoms: C_2  and  C_20
REMARK    2  A    between atoms: N_3  and  C_4
REMARK    3  A    between atoms: C_4  and  C_5
REMARK    4  A    between atoms: C_8  and  C_9
REMARK    5  A    between atoms: C_9  and  N_10
REMARK    6  A    between atoms: C_11  and  C_13
REMARK                            x       y       z     vdW  Elec       q    Type
REMARK                         _______ _______ _______ _____ _____    ______ ____
ROOT
ATOM      1  C   UNL     1      46.929   4.532  14.317  0.00  0.00    +0.000 A 
ATOM      2  C   UNL     1      46.102   3.755  13.495  0.00  0.00    +0.000 A 
ATOM      3  C   UNL     1      45.569   4.281  12.311  0.00  0.00    +0.000 A 
ATOM      4  C   UNL     1      45.871   5.589  11.911  0.00  0.00    +0.000 A 
ATOM      5  C   UNL     1      46.726   6.354  12.716  0.00  0.00    +0.000 A 
ATOM      6  C   UNL     1      47.258   5.829  13.900  0.00  0.00    +0.000 A 
ENDROOT
BRANCH   1   7
ATOM      7  C   UNL     1      47.433   3.991  15.631  0.00  0.00    +0.000 C 
BRANCH   7  10
ATOM      8  O   UNL     1      49.041   4.024  17.865  0.00  0.00    +0.000 OA
ATOM      9  C   UNL     1      48.190   4.905  17.761  0.00  0.00    +0.000 C 
ATOM     10  N   UNL     1      47.296   4.930  16.716  0.00  0.00    +0.000 N 
ATOM     11  H   UNL     1      46.760   5.773  16.538  0.00  0.00    +0.000 HD
BRANCH   9  12
ATOM     12  C   UNL     1      48.066   5.960  18.774  0.00  0.00    +0.000 A 
ATOM     13  C   UNL     1      47.785   5.623  20.091  0.00  0.00    +0.000 A 
ATOM     14  S   UNL     1      47.680   6.969  21.134  0.00  0.00    +0.000 S 
ATOM     15  C   UNL     1      48.055   8.044  19.870  0.00  0.00    +0.000 A 
ATOM     16  N   UNL     1      48.173   9.380  20.099  0.00  0.00    +0.000 NA
ATOM     17  C   UNL     1      48.502  10.072  19.060  0.00  0.00    +0.000 A 
ATOM     18  N   UNL     1      48.713   9.550  17.809  0.00  0.00    +0.000 N 
ATOM     19  C   UNL     1      48.563   8.216  17.521  0.00  0.00    +0.000 A 
ATOM     20  O   UNL     1      48.689   7.789  16.377  0.00  0.00    +0.000 OA
ATOM     21  C   UNL     1      48.224   7.389  18.662  0.00  0.00    +0.000 A 
ATOM     22  H   UNL     1      48.951  10.150  17.034  0.00  0.00    +0.000 HD
ENDBRANCH   9  12
ENDBRANCH   7  10
ENDBRANCH   1   7
BRANCH   4  23
ATOM     23  C   UNL     1      45.270   6.173  10.656  0.00  0.00    +0.000 C 
BRANCH  23  24
ATOM     24  N   UNL     1      44.840   5.142   9.737  0.00  0.00    +0.000 N 
ATOM     25  C   UNL     1      45.607   4.800   8.639  0.00  0.00    +0.000 C 
ATOM     26  O   UNL     1      46.692   5.321   8.391  0.00  0.00    +0.000 OA
ATOM     27  H   UNL     1      43.895   4.788   9.806  0.00  0.00    +0.000 HD
BRANCH  25  28
ATOM     28  C   UNL     1      44.961   3.696   7.764  0.00  0.00    +0.000 C 
ATOM     29  C   UNL     1      45.945   2.853   6.976  0.00  0.00    +0.000 C 
ATOM     30  C   UNL     1      46.438   1.840   7.993  0.00  0.00    +0.000 C 
ATOM     31  C   UNL     1      45.271   1.667   8.954  0.00  0.00    +0.000 C 
ATOM     32  N   UNL     1      44.278   2.702   8.627  0.00  0.00    +0.000 NA
ATOM     33  H   UNL     1      43.938   3.139   9.477  0.00  0.00    +0.000 HD
ENDBRANCH  25  28
ENDBRANCH  23  24
ENDBRANCH   4  23
TORSDOF 6
ENDMDL
MODEL 3
REMARK VINA RESULT:    -7.082      3.531      9.989
REMARK INTER + INTRA:         -10.572
REMARK INTER:                  -9.769
REMARK INTRA:                  -0.803
REMARK UNBOUND:                -1.006
REMARK  Name = 
REMARK  6 active torsions:
REMARK  status: ('A' for Active; 'I' for Inactive)
REMARK    1  A    between atoms: C_2  and  C_20
REMARK    2  A    between atoms: N_3  and  C_4
REMARK    3  A    between atoms: C_4  and  C_5
REMARK    4  A    between atoms: C_8  and  C_9
REMARK    5  A    between atoms: C_9  and  N_10
REMARK    6  A    between atoms: C_11  and  C_13
REMARK                            x       y       z     vdW  Elec       q    Type
REMARK                         _______ _______ _______ _____ _____    ______ ____
ROOT
ATOM      1  C   UNL     1      48.633   3.366  17.106  0.00  0.00    +0.000 A 
ATOM      2  C   UNL     1      49.267   4.477  17.679  0.00  0.00    +0.000 A 
ATOM      3  C   UNL     1      50.613   4.416  18.061  0.00  0.00    +0.000 A 
ATOM      4  C   UNL     1      51.362   3.249  17.857  0.00  0.00    +0.000 A 
ATOM      5  C   UNL     1      50.737   2.150  17.253  0.00  0.00    +0.000 A 
ATOM      6  C   UNL     1      49.390   2.211  16.872  0.00  0.00    +0.000 A 
ENDROOT
BRANCH   1   7
ATOM      7  C   UNL     1      47.163   3.408  16.773  0.00  0.00    +0.000 C 
BRANCH   7  10
ATOM      8  O   UNL     1      47.196   3.086  14.040  0.00  0.00    +0.000 OA
ATOM      9  C   UNL     1      46.814   4.168  14.483  0.00  0.00    +0.000 C 
ATOM     10  N   UNL     1      46.829   4.446  15.830  0.00  0.00    +0.000 N 
ATOM     11  H   UNL     1      46.311   5.245  16.180  0.00  0.00    +0.000 HD
BRANCH   9  12
ATOM     12  C   UNL     1      46.353   5.234  13.584  0.00  0.00    +0.000 A 
ATOM     13  C   UNL     1      47.214   6.268  13.241  0.00  0.00    +0.000 A 
ATOM     14  S   UNL     1      46.518   7.414  12.187  0.00  0.00    +0.000 S 
ATOM     15  C   UNL     1      45.060   6.542  12.115  0.00  0.00    +0.000 A 
ATOM     16  N   UNL     1      44.031   6.962  11.330  0.00  0.00    +0.000 NA
ATOM     17  C   UNL     1      43.002   6.182  11.338  0.00  0.00    +0.000 A 
ATOM     18  N   UNL     1      42.905   5.025  12.068  0.00  0.00    +0.000 N 
ATOM     19  C   UNL     1      43.899   4.584  12.905  0.00  0.00    +0.000 A 
ATOM     20  O   UNL     1      43.754   3.583  13.600  0.00  0.00    +0.000 OA
ATOM     21  C   UNL     1      45.090   5.409  12.910  0.00  0.00    +0.000 A 
ATOM     22  H   UNL     1      42.063   4.469  12.042  0.00  0.00    +0.000 HD
ENDBRANCH   9  12
ENDBRANCH   7  10
ENDBRANCH   1   7
BRANCH   4  23
ATOM     23  C   UNL     1      52.802   3.166  18.300  0.00  0.00    +0.000 C 
BRANCH  23  24
ATOM     24  N   UNL     1      53.414   1.916  17.907  0.00  0.00    +0.000 N 
ATOM     25  C   UNL     1      54.368   1.308  18.702  0.00  0.00    +0.000 C 
ATOM     26  O   UNL     1      54.731   1.767  19.782  0.00  0.00    +0.000 OA
ATOM     27  H   UNL     1      53.265   1.573  16.968  0.00  0.00    +0.000 HD
BRANCH  25  28
ATOM     28  C   UNL     1      54.920  -0.005  18.092  0.00  0.00    +0.000 C 
ATOM     29  C   UNL     1      55.772  -0.834  19.036  0.00  0.00    +0.000 C 
ATOM     30  C   UNL     1      54.750  -1.583  19.871  0.00  0.00    +0.000 C 
ATOM     31  C   UNL     1      53.549  -1.741  18.950  0.00  0.00    +0.000 C 
ATOM     32  N   UNL     1      53.801  -0.918  17.757  0.00  0.00    +0.000 NA
ATOM     33  H   UNL     1      52.968  -0.391  17.517  0.00  0.00    +0.000 HD
ENDBRANCH  25  28
ENDBRANCH  23  24
ENDBRANCH   4  23
TORSDOF 6
ENDMDL
MODEL 4
REMARK VINA RESULT:    -6.972      3.074      3.819
REMARK INTER + INTRA:         -10.424
REMARK INTER:                  -8.942
REMARK INTRA:                  -1.483
REMARK UNBOUND:                -1.006
REMARK  Name = 
REMARK  6 active torsions:
REMARK  status: ('A' for Active; 'I' for Inactive)
REMARK    1  A    between atoms: C_2  and  C_20
REMARK    2  A    between atoms: N_3  and  C_4
REMARK    3  A    between atoms: C_4  and  C_5
REMARK    4  A    between atoms: C_8  and  C_9
REMARK    5  A    between atoms: C_9  and  N_10
REMARK    6  A    between atoms: C_11  and  C_13
REMARK                            x       y       z     vdW  Elec       q    Type
REMARK                         _______ _______ _______ _____ _____    ______ ____
ROOT
ATOM      1  C   UNL     1      48.125   8.007  13.031  0.00  0.00    +0.000 A 
ATOM      2  C   UNL     1      47.809   6.986  12.126  0.00  0.00    +0.000 A 
ATOM      3  C   UNL     1      46.523   6.886  11.578  0.00  0.00    +0.000 A 
ATOM      4  C   UNL     1      45.532   7.821  11.906  0.00  0.00    +0.000 A 
ATOM      5  C   UNL     1      45.859   8.862  12.785  0.00  0.00    +0.000 A 
ATOM      6  C   UNL     1      47.144   8.960  13.334  0.00  0.00    +0.000 A 
ENDROOT
BRANCH   1   7
ATOM      7  C   UNL     1      49.485   8.063  13.681  0.00  0.00    +0.000 C 
BRANCH   7  10
ATOM      8  O   UNL     1      48.940   8.555  16.334  0.00  0.00    +0.000 OA
ATOM      9  C   UNL     1      49.285   7.417  16.023  0.00  0.00    +0.000 C 
ATOM     10  N   UNL     1      49.644   7.094  14.736  0.00  0.00    +0.000 N 
ATOM     11  H   UNL     1      49.709   6.117  14.466  0.00  0.00    +0.000 HD
BRANCH   9  12
ATOM     12  C   UNL     1      49.362   6.349  17.028  0.00  0.00    +0.000 A 
ATOM     13  C   UNL     1      50.189   6.499  18.133  0.00  0.00    +0.000 A 
ATOM     14  S   UNL     1      50.154   5.168  19.199  0.00  0.00    +0.000 S 
ATOM     15  C   UNL     1      48.995   4.367  18.246  0.00  0.00    +0.000 A 
ATOM     16  N   UNL     1      48.485   3.165  18.626  0.00  0.00    +0.000 NA
ATOM     17  C   UNL     1      47.584   2.692  17.831  0.00  0.00    +0.000 A 
ATOM     18  N   UNL     1      47.154   3.309  16.684  0.00  0.00    +0.000 N 
ATOM     19  C   UNL     1      47.669   4.501  16.238  0.00  0.00    +0.000 A 
ATOM     20  O   UNL     1      47.315   4.992  15.171  0.00  0.00    +0.000 OA
ATOM     21  C   UNL     1      48.664   5.089  17.112  0.00  0.00    +0.000 A 
ATOM     22  H   UNL     1      46.457   2.876  16.097  0.00  0.00    +0.000 HD
ENDBRANCH   9  12
ENDBRANCH   7  10
ENDBRANCH   1   7
BRANCH   4  23
ATOM     23  C   UNL     1      44.135   7.695  11.348  0.00  0.00    +0.000 C 
BRANCH  23  24
ATOM     24  N   UNL     1      43.800   6.322  11.044  0.00  0.00    +0.000 N 
ATOM     25  C   UNL     1      43.380   5.454  12.035  0.00  0.00    +0.000 C 
ATOM     26  O   UNL     1      43.244   5.792  13.208  0.00  0.00    +0.000 OA
ATOM     27  H   UNL     1      44.036   5.951  10.133  0.00  0.00    +0.000 HD
BRANCH  25  28
ATOM     28  C   UNL     1      43.098   4.023  11.511  0.00  0.00    +0.000 C 
ATOM     29  C   UNL     1      43.855   3.647  10.251  0.00  0.00    +0.000 C 
ATOM     30  C   UNL     1      45.227   3.251  10.767  0.00  0.00    +0.000 C 
ATOM     31  C   UNL     1      44.966   2.716  12.167  0.00  0.00    +0.000 C 
ATOM     32  N   UNL     1      43.566   3.021  12.499  0.00  0.00    +0.000 NA
ATOM     33  H   UNL     1      43.504   3.391  13.442  0.00  0.00    +0.000 HD
ENDBRANCH  25  28
ENDBRANCH  23  24
ENDBRANCH   4  23
TORSDOF 6
ENDMDL
MODEL 5
REMARK VINA RESULT:    -6.890      3.565      8.742
REMARK INTER + INTRA:         -10.313
REMARK INTER:                  -9.131
REMARK INTRA:                  -1.182
REMARK UNBOUND:                -1.006
REMARK  Name = 
REMARK  6 active torsions:
REMARK  status: ('A' for Active; 'I' for Inactive)
REMARK    1  A    between atoms: C_2  and  C_20
REMARK    2  A    between atoms: N_3  and  C_4
REMARK    3  A    between atoms: C_4  and  C_5
REMARK    4  A    between atoms: C_8  and  C_9
REMARK    5  A    between atoms: C_9  and  N_10
REMARK    6  A    between atoms: C_11  and  C_13
REMARK                            x       y       z     vdW  Elec       q    Type
REMARK                         _______ _______ _______ _____ _____    ______ ____
ROOT
ATOM      1  C   UNL     1      48.980   7.904  13.312  0.00  0.00    +0.000 A 
ATOM      2  C   UNL     1      48.197   7.279  14.292  0.00  0.00    +0.000 A 
ATOM      3  C   UNL     1      48.703   7.057  15.579  0.00  0.00    +0.000 A 
ATOM      4  C   UNL     1      49.995   7.477  15.922  0.00  0.00    +0.000 A 
ATOM      5  C   UNL     1      50.765   8.133  14.951  0.00  0.00    +0.000 A 
ATOM      6  C   UNL     1      50.259   8.353  13.664  0.00  0.00    +0.000 A 
ENDROOT
BRANCH   1   7
ATOM      7  C   UNL     1      48.463   8.066  11.904  0.00  0.00    +0.000 C 
BRANCH   7  10
ATOM      8  O   UNL     1      45.719   7.884  11.809  0.00  0.00    +0.000 OA
ATOM      9  C   UNL     1      46.369   6.941  11.364  0.00  0.00    +0.000 C 
ATOM     10  N   UNL     1      47.743   6.911  11.432  0.00  0.00    +0.000 N 
ATOM     11  H   UNL     1      48.255   6.239  10.870  0.00  0.00    +0.000 HD
BRANCH   9  12
ATOM     12  C   UNL     1      45.703   5.777  10.766  0.00  0.00    +0.000 A 
ATOM     13  C   UNL     1      45.867   5.506   9.414  0.00  0.00    +0.000 A 
ATOM     14  S   UNL     1      45.028   4.118   8.888  0.00  0.00    +0.000 S 
ATOM     15  C   UNL     1      44.457   3.803  10.459  0.00  0.00    +0.000 A 
ATOM     16  N   UNL     1      43.696   2.706  10.721  0.00  0.00    +0.000 NA
ATOM     17  C   UNL     1      43.367   2.568  11.962  0.00  0.00    +0.000 A 
ATOM     18  N   UNL     1      43.722   3.436  12.964  0.00  0.00    +0.000 N 
ATOM     19  C   UNL     1      44.451   4.578  12.741  0.00  0.00    +0.000 A 
ATOM     20  O   UNL     1      44.691   5.371  13.645  0.00  0.00    +0.000 OA
ATOM     21  C   UNL     1      44.871   4.763  11.366  0.00  0.00    +0.000 A 
ATOM     22  H   UNL     1      43.416   3.279  13.912  0.00  0.00    +0.000 HD
ENDBRANCH   9  12
ENDBRANCH   7  10
ENDBRANCH   1   7
BRANCH   4  23
ATOM     23  C   UNL     1      50.557   7.207  17.296  0.00  0.00    +0.000 C 
BRANCH  23  24
ATOM     24  N   UNL     1      49.974   6.025  17.891  0.00  0.00    +0.000 N 
ATOM     25  C   UNL     1      50.522   4.774  17.676  0.00  0.00    +0.000 C 
ATOM     26  O   UNL     1      51.532   4.592  17.001  0.00  0.00    +0.000 OA
ATOM     27  H   UNL     1      49.065   6.095  18.328  0.00  0.00    +0.000 HD
BRANCH  25  28
ATOM     28  C   UNL     1      49.736   3.637  18.377  0.00  0.00    +0.000 C 
ATOM     29  C   UNL     1      48.229   3.729  18.238  0.00  0.00    +0.000 C 
ATOM     30  C   UNL     1      47.962   3.145  16.863  0.00  0.00    +0.000 C 
ATOM     31  C   UNL     1      49.088   2.143  16.651  0.00  0.00    +0.000 C 
ATOM     32  N   UNL     1      50.056   2.335  17.742  0.00  0.00    +0.000 NA
ATOM     33  H   UNL     1      51.001   2.339  17.372  0.00  0.00    +0.000 HD
ENDBRANCH  25  28
ENDBRANCH  23  24
ENDBRANCH   4  23
TORSDOF 6
ENDMDL
MODEL 6
REMARK VINA RESULT:    -6.877      2.570      3.690
REMARK INTER + INTRA:         -10.296
REMARK INTER:                  -9.228
REMARK INTRA:                  -1.068
REMARK UNBOUND:                -1.006
REMARK  Name = 
REMARK  6 active torsions:
REMARK  status: ('A' for Active; 'I' for Inactive)
REMARK    1  A    between atoms: C_2  and  C_20
REMARK    2  A    between atoms: N_3  and  C_4
REMARK    3  A    between atoms: C_4  and  C_5
REMARK    4  A    between atoms: C_8  and  C_9
REMARK    5  A    between atoms: C_9  and  N_10
REMARK    6  A    between atoms: C_11  and  C_13
REMARK                            x       y       z     vdW  Elec       q    Type
REMARK                         _______ _______ _______ _____ _____    ______ ____
ROOT
ATOM      1  C   UNL     1      47.987   4.431  16.714  0.00  0.00    +0.000 A 
ATOM      2  C   UNL     1      48.635   5.656  16.511  0.00  0.00    +0.000 A 
ATOM      3  C   UNL     1      48.483   6.357  15.308  0.00  0.00    +0.000 A 
ATOM      4  C   UNL     1      47.658   5.860  14.291  0.00  0.00    +0.000 A 
ATOM      5  C   UNL     1      46.982   4.651  14.508  0.00  0.00    +0.000 A 
ATOM      6  C   UNL     1      47.137   3.949  15.710  0.00  0.00    +0.000 A 
ENDROOT
BRANCH   1   7
ATOM      7  C   UNL     1      48.219   3.638  17.976  0.00  0.00    +0.000 C 
BRANCH   7  10
ATOM      8  O   UNL     1      49.641   1.789  16.516  0.00  0.00    +0.000 OA
ATOM      9  C   UNL     1      50.248   2.431  17.371  0.00  0.00    +0.000 C 
ATOM     10  N   UNL     1      49.608   3.325  18.197  0.00  0.00    +0.000 N 
ATOM     11  H   UNL     1      50.157   3.990  18.732  0.00  0.00    +0.000 HD
BRANCH   9  12
ATOM     12  C   UNL     1      51.690   2.244  17.576  0.00  0.00    +0.000 A 
ATOM     13  C   UNL     1      52.222   0.962  17.614  0.00  0.00    +0.000 A 
ATOM     14  S   UNL     1      53.910   0.929  17.854  0.00  0.00    +0.000 S 
ATOM     15  C   UNL     1      53.995   2.628  17.867  0.00  0.00    +0.000 A 
ATOM     16  N   UNL     1      55.189   3.269  17.992  0.00  0.00    +0.000 NA
ATOM     17  C   UNL     1      55.110   4.557  17.943  0.00  0.00    +0.000 A 
ATOM     18  N   UNL     1      53.944   5.263  17.791  0.00  0.00    +0.000 N 
ATOM     19  C   UNL     1      52.712   4.661  17.705  0.00  0.00    +0.000 A 
ATOM     20  O   UNL     1      51.680   5.322  17.642  0.00  0.00    +0.000 OA
ATOM     21  C   UNL     1      52.748   3.213  17.724  0.00  0.00    +0.000 A 
ATOM     22  H   UNL     1      53.950   6.271  17.779  0.00  0.00    +0.000 HD
ENDBRANCH   9  12
ENDBRANCH   7  10
ENDBRANCH   1   7
BRANCH   4  23
ATOM     23  C   UNL     1      47.520   6.593  12.979  0.00  0.00    +0.000 C 
BRANCH  23  24
ATOM     24  N   UNL     1      46.660   5.885  12.057  0.00  0.00    +0.000 N 
ATOM     25  C   UNL     1      45.461   6.432  11.635  0.00  0.00    +0.000 C 
ATOM     26  O   UNL     1      45.070   7.541  11.991  0.00  0.00    +0.000 OA
ATOM     27  H   UNL     1      46.856   4.915  11.851  0.00  0.00    +0.000 HD
BRANCH  25  28
ATOM     28  C   UNL     1      44.675   5.506  10.673  0.00  0.00    +0.000 C 
ATOM     29  C   UNL     1      44.636   4.047  11.086  0.00  0.00    +0.000 C 
ATOM     30  C   UNL     1      43.531   4.002  12.125  0.00  0.00    +0.000 C 
ATOM     31  C   UNL     1      42.581   5.119  11.719  0.00  0.00    +0.000 C 
ATOM     32  N   UNL     1      43.243   5.892  10.657  0.00  0.00    +0.000 NA
ATOM     33  H   UNL     1      43.138   6.886  10.833  0.00  0.00    +0.000 HD
ENDBRANCH  25  28
ENDBRANCH  23  24
ENDBRANCH   4  23
TORSDOF 6
ENDMDL
MODEL 7
REMARK VINA RESULT:    -6.816      3.609      9.521
REMARK INTER + INTRA:         -10.213
REMARK INTER:                  -9.202
REMARK INTRA:                  -1.011
REMARK UNBOUND:                -1.006
REMARK  Name = 
REMARK  6 active torsions:
REMARK  status: ('A' for Active; 'I' for Inactive)
REMARK    1  A    between atoms: C_2  and  C_20
REMARK    2  A    between atoms: N_3  and  C_4
REMARK    3  A    between atoms: C_4  and  C_5
REMARK    4  A    between atoms: C_8  and  C_9
REMARK    5  A    between atoms: C_9  and  N_10
REMARK    6  A    between atoms: C_11  and  C_13
REMARK                            x       y       z     vdW  Elec       q    Type
REMARK                         _______ _______ _______ _____ _____    ______ ____
ROOT
ATOM      1  C   UNL     1      48.683   3.406  17.027  0.00  0.00    +0.000 A 
ATOM      2  C   UNL     1      49.324   4.590  17.416  0.00  0.00    +0.000 A 
ATOM      3  C   UNL     1      50.674   4.584  17.792  0.00  0.00    +0.000 A 
ATOM      4  C   UNL     1      51.418   3.397  17.764  0.00  0.00    +0.000 A 
ATOM      5  C   UNL     1      50.785   2.220  17.342  0.00  0.00    +0.000 A 
ATOM      6  C   UNL     1      49.436   2.226  16.968  0.00  0.00    +0.000 A 
ENDROOT
BRANCH   1   7
ATOM      7  C   UNL     1      47.210   3.401  16.702  0.00  0.00    +0.000 C 
BRANCH   7  10
ATOM      8  O   UNL     1      47.244   3.167  13.960  0.00  0.00    +0.000 OA
ATOM      9  C   UNL     1      46.821   4.217  14.439  0.00  0.00    +0.000 C 
ATOM     10  N   UNL     1      46.831   4.453  15.793  0.00  0.00    +0.000 N 
ATOM     11  H   UNL     1      46.283   5.220  16.170  0.00  0.00    +0.000 HD
BRANCH   9  12
ATOM     12  C   UNL     1      46.313   5.291  13.575  0.00  0.00    +0.000 A 
ATOM     13  C   UNL     1      47.118   6.386  13.289  0.00  0.00    +0.000 A 
ATOM     14  S   UNL     1      46.373   7.533  12.270  0.00  0.00    +0.000 S 
ATOM     15  C   UNL     1      44.969   6.583  12.137  0.00  0.00    +0.000 A 
ATOM     16  N   UNL     1      43.930   6.976  11.352  0.00  0.00    +0.000 NA
ATOM     17  C   UNL     1      42.947   6.139  11.309  0.00  0.00    +0.000 A 
ATOM     18  N   UNL     1      42.906   4.949  11.991  0.00  0.00    +0.000 N 
ATOM     19  C   UNL     1      43.911   4.531  12.828  0.00  0.00    +0.000 A 
ATOM     20  O   UNL     1      43.814   3.496  13.479  0.00  0.00    +0.000 OA
ATOM     21  C   UNL     1      45.053   5.422  12.886  0.00  0.00    +0.000 A 
ATOM     22  H   UNL     1      42.098   4.348  11.928  0.00  0.00    +0.000 HD
ENDBRANCH   9  12
ENDBRANCH   7  10
ENDBRANCH   1   7
BRANCH   4  23
ATOM     23  C   UNL     1      52.862   3.379  18.204  0.00  0.00    +0.000 C 
BRANCH  23  24
ATOM     24  N   UNL     1      53.666   4.312  17.446  0.00  0.00    +0.000 N 
ATOM     25  C   UNL     1      54.139   5.477  18.021  0.00  0.00    +0.000 C 
ATOM     26  O   UNL     1      53.932   5.777  19.194  0.00  0.00    +0.000 OA
ATOM     27  H   UNL     1      53.740   4.192  16.445  0.00  0.00    +0.000 HD
BRANCH  25  28
ATOM     28  C   UNL     1      54.954   6.354  17.037  0.00  0.00    +0.000 C 
ATOM     29  C   UNL     1      54.472   6.311  15.600  0.00  0.00    +0.000 C 
ATOM     30  C   UNL     1      53.304   7.280  15.588  0.00  0.00    +0.000 C 
ATOM     31  C   UNL     1      53.644   8.297  16.668  0.00  0.00    +0.000 C 
ATOM     32  N   UNL     1      54.813   7.785  17.399  0.00  0.00    +0.000 NA
ATOM     33  H   UNL     1      54.672   7.890  18.398  0.00  0.00    +0.000 HD
ENDBRANCH  25  28
ENDBRANCH  23  24
ENDBRANCH   4  23
TORSDOF 6
ENDMDL
MODEL 8
REMARK VINA RESULT:    -6.615      3.484      9.375
REMARK INTER + INTRA:          -9.942
REMARK INTER:                  -8.979
REMARK INTRA:                  -0.963
REMARK UNBOUND:                -1.006
REMARK  Name = 
REMARK  6 active torsions:
REMARK  status: ('A' for Active; 'I' for Inactive)
REMARK    1  A    between atoms: C_2  and  C_20
REMARK    2  A    between atoms: N_3  and  C_4
REMARK    3  A    between atoms: C_4  and  C_5
REMARK    4  A    between atoms: C_8  and  C_9
REMARK    5  A    between atoms: C_9  and  N_10
REMARK    6  A    between atoms: C_11  and  C_13
REMARK                            x       y       z     vdW  Elec       q    Type
REMARK                         _______ _______ _______ _____ _____    ______ ____
ROOT
ATOM      1  C   UNL     1      45.357   4.671  12.490  0.00  0.00    +0.000 A 
ATOM      2  C   UNL     1      45.310   6.019  12.113  0.00  0.00    +0.000 A 
ATOM      3  C   UNL     1      46.167   6.958  12.701  0.00  0.00    +0.000 A 
ATOM      4  C   UNL     1      47.107   6.565  13.662  0.00  0.00    +0.000 A 
ATOM      5  C   UNL     1      47.178   5.210  14.013  0.00  0.00    +0.000 A 
ATOM      6  C   UNL     1      46.320   4.271  13.426  0.00  0.00    +0.000 A 
ENDROOT
BRANCH   1   7
ATOM      7  C   UNL     1      44.378   3.677  11.916  0.00  0.00    +0.000 C 
BRANCH   7  10
ATOM      8  O   UNL     1      44.126   3.949   9.189  0.00  0.00    +0.000 OA
ATOM      9  C   UNL     1      44.845   3.045   9.609  0.00  0.00    +0.000 C 
ATOM     10  N   UNL     1      44.977   2.788  10.953  0.00  0.00    +0.000 N 
ATOM     11  H   UNL     1      45.734   2.193  11.275  0.00  0.00    +0.000 HD
BRANCH   9  12
ATOM     12  C   UNL     1      45.576   2.168   8.684  0.00  0.00    +0.000 A 
ATOM     13  C   UNL     1      45.412   0.792   8.763  0.00  0.00    +0.000 A 
ATOM     14  S   UNL     1      46.330  -0.072   7.614  0.00  0.00    +0.000 S 
ATOM     15  C   UNL     1      46.940   1.366   6.941  0.00  0.00    +0.000 A 
ATOM     16  N   UNL     1      47.771   1.338   5.864  0.00  0.00    +0.000 NA
ATOM     17  C   UNL     1      48.123   2.502   5.431  0.00  0.00    +0.000 A 
ATOM     18  N   UNL     1      47.727   3.693   5.985  0.00  0.00    +0.000 N 
ATOM     19  C   UNL     1      46.925   3.770   7.097  0.00  0.00    +0.000 A 
ATOM     20  O   UNL     1      46.647   4.849   7.613  0.00  0.00    +0.000 OA
ATOM     21  C   UNL     1      46.477   2.489   7.605  0.00  0.00    +0.000 A 
ATOM     22  H   UNL     1      48.054   4.570   5.608  0.00  0.00    +0.000 HD
ENDBRANCH   9  12
ENDBRANCH   7  10
ENDBRANCH   1   7
BRANCH   4  23
ATOM     23  C   UNL     1      48.007   7.579  14.325  0.00  0.00    +0.000 C 
BRANCH  23  24
ATOM     24  N   UNL     1      48.270   7.241  15.706  0.00  0.00    +0.000 N 
ATOM     25  C   UNL     1      49.528   6.839  16.115  0.00  0.00    +0.000 C 
ATOM     26  O   UNL     1      50.489   6.769  15.353  0.00  0.00    +0.000 OA
ATOM     27  H   UNL     1      47.490   7.136  16.341  0.00  0.00    +0.000 HD
BRANCH  25  28
ATOM     28  C   UNL     1      49.597   6.495  17.625  0.00  0.00    +0.000 C 
ATOM     29  C   UNL     1      48.379   5.772  18.167  0.00  0.00    +0.000 C 
ATOM     30  C   UNL     1      48.616   4.327  17.767  0.00  0.00    +0.000 C 
ATOM     31  C   UNL     1      50.131   4.186  17.736  0.00  0.00    +0.000 C 
ATOM     32  N   UNL     1      50.700   5.536  17.875  0.00  0.00    +0.000 NA
ATOM     33  H   UNL     1      51.450   5.668  17.205  0.00  0.00    +0.000 HD
ENDBRANCH  25  28
ENDBRANCH  23  24
ENDBRANCH   4  23
TORSDOF 6
ENDMDL
MODEL 9
REMARK VINA RESULT:    -6.550      3.391      9.262
REMARK INTER + INTRA:          -9.854
REMARK INTER:                  -8.642
REMARK INTRA:                  -1.212
REMARK UNBOUND:                -1.006
REMARK  Name = 
REMARK  6 active torsions:
REMARK  status: ('A' for Active; 'I' for Inactive)
REMARK    1  A    between atoms: C_2  and  C_20
REMARK    2  A    between atoms: N_3  and  C_4
REMARK    3  A    between atoms: C_4  and  C_5
REMARK    4  A    between atoms: C_8  and  C_9
REMARK    5  A    between atoms: C_9  and  N_10
REMARK    6  A    between atoms: C_11  and  C_13
REMARK                            x       y       z     vdW  Elec       q    Type
REMARK                         _______ _______ _______ _____ _____    ______ ____
ROOT
ATOM      1  C   UNL     1      48.243   8.061  13.158  0.00  0.00    +0.000 A 
ATOM      2  C   UNL     1      48.355   9.337  13.724  0.00  0.00    +0.000 A 
ATOM      3  C   UNL     1      48.878   9.507  15.012  0.00  0.00    +0.000 A 
ATOM      4  C   UNL     1      49.322   8.405  15.754  0.00  0.00    +0.000 A 
ATOM      5  C   UNL     1      49.241   7.131  15.174  0.00  0.00    +0.000 A 
ATOM      6  C   UNL     1      48.716   6.962  13.887  0.00  0.00    +0.000 A 
ENDROOT
BRANCH   1   7
ATOM      7  C   UNL     1      47.603   7.874  11.805  0.00  0.00    +0.000 C 
BRANCH   7  10
ATOM      8  O   UNL     1      44.939   7.387  12.296  0.00  0.00    +0.000 OA
ATOM      9  C   UNL     1      45.619   6.458  11.863  0.00  0.00    +0.000 C 
ATOM     10  N   UNL     1      46.972   6.587  11.654  0.00  0.00    +0.000 N 
ATOM     11  H   UNL     1      47.459   5.891  11.098  0.00  0.00    +0.000 HD
BRANCH   9  12
ATOM     12  C   UNL     1      45.019   5.149  11.579  0.00  0.00    +0.000 A 
ATOM     13  C   UNL     1      44.294   4.493  12.565  0.00  0.00    +0.000 A 
ATOM     14  S   UNL     1      43.664   2.989  12.065  0.00  0.00    +0.000 S 
ATOM     15  C   UNL     1      44.298   3.185  10.498  0.00  0.00    +0.000 A 
ATOM     16  N   UNL     1      44.077   2.253   9.532  0.00  0.00    +0.000 NA
ATOM     17  C   UNL     1      44.579   2.550   8.380  0.00  0.00    +0.000 A 
ATOM     18  N   UNL     1      45.292   3.690   8.110  0.00  0.00    +0.000 N 
ATOM     19  C   UNL     1      45.577   4.637   9.063  0.00  0.00    +0.000 A 
ATOM     20  O   UNL     1      46.279   5.611   8.808  0.00  0.00    +0.000 OA
ATOM     21  C   UNL     1      45.009   4.366  10.368  0.00  0.00    +0.000 A 
ATOM     22  H   UNL     1      45.674   3.853   7.190  0.00  0.00    +0.000 HD
ENDBRANCH   9  12
ENDBRANCH   7  10
ENDBRANCH   1   7
BRANCH   4  23
ATOM     23  C   UNL     1      49.851   8.578  17.157  0.00  0.00    +0.000 C 
BRANCH  23  24
ATOM     24  N   UNL     1      49.184   7.703  18.094  0.00  0.00    +0.000 N 
ATOM     25  C   UNL     1      49.788   6.542  18.541  0.00  0.00    +0.000 C 
ATOM     26  O   UNL     1      50.916   6.200  18.197  0.00  0.00    +0.000 OA
ATOM     27  H   UNL     1      48.204   7.855  18.293  0.00  0.00    +0.000 HD
BRANCH  25  28
ATOM     28  C   UNL     1      48.899   5.729  19.517  0.00  0.00    +0.000 C 
ATOM     29  C   UNL     1      47.423   5.716  19.169  0.00  0.00    +0.000 C 
ATOM     30  C   UNL     1      47.321   4.649  18.095  0.00  0.00    +0.000 C 
ATOM     31  C   UNL     1      48.446   3.677  18.418  0.00  0.00    +0.000 C 
ATOM     32  N   UNL     1      49.272   4.295  19.466  0.00  0.00    +0.000 NA
ATOM     33  H   UNL     1      50.256   4.188  19.241  0.00  0.00    +0.000 HD
ENDBRANCH  25  28
ENDBRANCH  23  24
ENDBRANCH   4  23
TORSDOF 6
ENDMDL
