MODEL 1
REMARK VINA RESULT:    -7.459      0.000      0.000
REMARK INTER + INTRA:         -12.370
REMARK INTER:                 -10.730
REMARK INTRA:                  -1.641
REMARK UNBOUND:                -1.641
REMARK  Name = 
REMARK  10 active torsions:
REMARK  status: ('A' for Active; 'I' for Inactive)
REMARK    1  A    between atoms: C_1  and  C_2
REMARK    2  A    between atoms: C_2  and  C_3
REMARK    3  A    between atoms: C_3  and  N_4
REMARK    4  A    between atoms: C_3  and  C_18
REMARK    5  A    between atoms: C_5  and  C_7
REMARK    6  A    between atoms: N_13  and  C_14
REMARK    7  A    between atoms: C_21  and  C_22
REMARK    8  A    between atoms: C_22  and  N_23
REMARK    9  A    between atoms: C_22  and  C_24
REMARK   10  A    between atoms: C_24  and  C_25
REMARK                            x       y       z     vdW  Elec       q    Type
REMARK                         _______ _______ _______ _____ _____    ______ ____
ROOT
ATOM      1  C   UNL     1      46.856   7.993  13.002  0.00  0.00    +0.000 C 
ENDROOT
BRANCH   1   2
ATOM      2  C   UNL     1      46.237   6.737  12.395  0.00  0.00    +0.000 A 
ATOM      3  C   UNL     1      46.394   6.483  11.024  0.00  0.00    +0.000 A 
ATOM      4  C   UNL     1      45.699   5.439  10.404  0.00  0.00    +0.000 A 
ATOM      5  C   UNL     1      44.853   4.598  11.141  0.00  0.00    +0.000 A 
ATOM      6  C   UNL     1      44.736   4.819  12.518  0.00  0.00    +0.000 A 
ATOM      7  C   UNL     1      45.407   5.877  13.131  0.00  0.00    +0.000 A 
BRANCH   5   8
ATOM      8  C   UNL     1      44.059   3.508  10.440  0.00  0.00    +0.000 C 
BRANCH   8   9
ATOM      9  N   UNL     1      43.018   2.993  11.334  0.00  0.00    +0.000 NA
ATOM     10  H   UNL     1      43.374   2.190  11.847  0.00  0.00    +0.000 HD
ATOM     11  H   UNL     1      42.220   2.665  10.796  0.00  0.00    +0.000 HD
ENDBRANCH   8   9
BRANCH   8  12
ATOM     12  C   UNL     1      44.976   2.386   9.898  0.00  0.00    +0.000 C 
BRANCH  12  13
ATOM     13  C   UNL     1      44.902   2.187   8.368  0.00  0.00    +0.000 C 
ATOM     14  C   UNL     1      46.187   1.580   7.812  0.00  0.00    +0.000 C 
ATOM     15  C   UNL     1      47.055   2.795   7.564  0.00  0.00    +0.000 C 
ATOM     16  N   UNL     1      46.125   3.786   7.018  0.00  0.00    +0.000 NA
ATOM     17  C   UNL     1      44.801   3.508   7.596  0.00  0.00    +0.000 C 
ATOM     18  H   UNL     1      46.066   3.656   6.007  0.00  0.00    +0.000 HD
ENDBRANCH  12  13
ENDBRANCH   8  12
ENDBRANCH   5   8
ENDBRANCH   1   2
BRANCH   1  19
ATOM     19  N   UNL     1      47.507   7.676  14.267  0.00  0.00    +0.000 N 
ATOM     20  C   UNL     1      48.839   7.403  14.418  0.00  0.00    +0.000 C 
ATOM     21  O   UNL     1      49.606   7.290  13.470  0.00  0.00    +0.000 OA
ATOM     22  H   UNL     1      47.006   7.970  15.095  0.00  0.00    +0.000 HD
BRANCH  20  23
ATOM     23  C   UNL     1      49.290   7.202  15.810  0.00  0.00    +0.000 A 
ATOM     24  C   UNL     1      50.101   8.149  16.415  0.00  0.00    +0.000 A 
ATOM     25  S   UNL     1      50.529   7.759  18.020  0.00  0.00    +0.000 S 
ATOM     26  C   UNL     1      49.611   6.326  17.978  0.00  0.00    +0.000 A 
ATOM     27  N   UNL     1      49.517   5.523  19.065  0.00  0.00    +0.000 NA
ATOM     28  C   UNL     1      48.786   4.471  18.898  0.00  0.00    +0.000 A 
ATOM     29  N   UNL     1      48.136   4.126  17.730  0.00  0.00    +0.000 N 
ATOM     30  C   UNL     1      47.385   2.893  17.637  0.00  0.00    +0.000 C 
ATOM     31  C   UNL     1      48.228   4.920  16.588  0.00  0.00    +0.000 A 
ATOM     32  O   UNL     1      47.712   4.596  15.525  0.00  0.00    +0.000 OA
ATOM     33  C   UNL     1      49.019   6.128  16.742  0.00  0.00    +0.000 A 
ENDBRANCH  20  23
ENDBRANCH   1  19
BRANCH   1  35
ATOM     34  C   UNL     1      45.219   9.693  11.946  0.00  0.00    +0.000 C 
ATOM     35  C   UNL     1      45.775   9.076  13.227  0.00  0.00    +0.000 C 
ENDBRANCH   1  35
TORSDOF 8
ENDMDL
MODEL 2
REMARK VINA RESULT:    -7.246      2.767      8.479
REMARK INTER + INTRA:         -12.063
REMARK INTER:                 -10.483
REMARK INTRA:                  -1.580
REMARK UNBOUND:                -1.641
REMARK  Name = 
REMARK  10 active torsions:
REMARK  status: ('A' for Active; 'I' for Inactive)
REMARK    1  A    between atoms: C_1  and  C_2
REMARK    2  A    between atoms: C_2  and  C_3
REMARK    3  A    between atoms: C_3  and  N_4
REMARK    4  A    between atoms: C_3  and  C_18
REMARK    5  A    between atoms: C_5  and  C_7
REMARK    6  A    between atoms: N_13  and  C_14
REMARK    7  A    between atoms: C_21  and  C_22
REMARK    8  A    between atoms: C_22  and  N_23
REMARK    9  A    between atoms: C_22  and  C_24
REMARK   10  A    between atoms: C_24  and  C_25
REMARK                            x       y       z     vdW  Elec       q    Type
REMARK                         _______ _______ _______ _____ _____    ______ ____
ROOT
ATOM      1  C   UNL     1      47.485   7.922  12.563  0.00  0.00    +0.000 C 
ENDROOT
BRANCH   1   2
ATOM      2  C   UNL     1      48.075   7.940  13.970  0.00  0.00    +0.000 A 
ATOM      3  C   UNL     1      48.705   6.790  14.471  0.00  0.00    +0.000 A 
ATOM      4  C   UNL     1      49.101   6.715  15.810  0.00  0.00    +0.000 A 
ATOM      5  C   UNL     1      48.911   7.798  16.680  0.00  0.00    +0.000 A 
ATOM      6  C   UNL     1      48.330   8.964  16.169  0.00  0.00    +0.000 A 
ATOM      7  C   UNL     1      47.909   9.029  14.840  0.00  0.00    +0.000 A 
BRANCH   5   8
ATOM      8  C   UNL     1      49.292   7.676  18.146  0.00  0.00    +0.000 C 
BRANCH   8   9
ATOM      9  N   UNL     1      50.269   8.710  18.498  0.00  0.00    +0.000 NA
ATOM     10  H   UNL     1      49.886   9.310  19.224  0.00  0.00    +0.000 HD
ATOM     11  H   UNL     1      50.458   9.305  17.697  0.00  0.00    +0.000 HD
ENDBRANCH   8   9
BRANCH   8  12
ATOM     12  C   UNL     1      49.791   6.254  18.495  0.00  0.00    +0.000 C 
BRANCH  12  13
ATOM     13  C   UNL     1      48.812   5.430  19.361  0.00  0.00    +0.000 C 
ATOM     14  C   UNL     1      48.513   4.067  18.740  0.00  0.00    +0.000 C 
ATOM     15  C   UNL     1      47.361   4.368  17.806  0.00  0.00    +0.000 C 
ATOM     16  N   UNL     1      46.525   5.300  18.567  0.00  0.00    +0.000 NA
ATOM     17  C   UNL     1      47.418   6.061  19.454  0.00  0.00    +0.000 C 
ATOM     18  H   UNL     1      45.880   4.762  19.147  0.00  0.00    +0.000 HD
ENDBRANCH  12  13
ENDBRANCH   8  12
ENDBRANCH   5   8
ENDBRANCH   1   2
BRANCH   1  19
ATOM     19  N   UNL     1      46.671   6.728  12.371  0.00  0.00    +0.000 N 
ATOM     20  C   UNL     1      45.473   6.692  11.711  0.00  0.00    +0.000 C 
ATOM     21  O   UNL     1      44.907   7.700  11.305  0.00  0.00    +0.000 OA
ATOM     22  H   UNL     1      47.164   5.851  12.467  0.00  0.00    +0.000 HD
BRANCH  20  23
ATOM     23  C   UNL     1      44.874   5.351  11.560  0.00  0.00    +0.000 A 
ATOM     24  C   UNL     1      44.126   4.810  12.594  0.00  0.00    +0.000 A 
ATOM     25  S   UNL     1      43.511   3.256  12.254  0.00  0.00    +0.000 S 
ATOM     26  C   UNL     1      44.191   3.264  10.693  0.00  0.00    +0.000 A 
ATOM     27  N   UNL     1      44.006   2.226   9.843  0.00  0.00    +0.000 NA
ATOM     28  C   UNL     1      44.572   2.363   8.691  0.00  0.00    +0.000 A 
ATOM     29  N   UNL     1      45.330   3.448   8.296  0.00  0.00    +0.000 N 
ATOM     30  C   UNL     1      45.965   3.475   6.996  0.00  0.00    +0.000 C 
ATOM     31  C   UNL     1      45.555   4.524   9.153  0.00  0.00    +0.000 A 
ATOM     32  O   UNL     1      46.277   5.465   8.843  0.00  0.00    +0.000 OA
ATOM     33  C   UNL     1      44.912   4.421  10.451  0.00  0.00    +0.000 A 
ENDBRANCH  20  23
ENDBRANCH   1  19
BRANCH   1  35
ATOM     34  C   UNL     1      49.421   9.258  11.489  0.00  0.00    +0.000 C 
ATOM     35  C   UNL     1      48.610   7.964  11.502  0.00  0.00    +0.000 C 
ENDBRANCH   1  35
TORSDOF 8
ENDMDL
MODEL 3
REMARK VINA RESULT:    -7.090      2.322      3.301
REMARK INTER + INTRA:         -11.839
REMARK INTER:                 -10.222
REMARK INTRA:                  -1.617
REMARK UNBOUND:                -1.641
REMARK  Name = 
REMARK  10 active torsions:
REMARK  status: ('A' for Active; 'I' for Inactive)
REMARK    1  A    between atoms: C_1  and  C_2
REMARK    2  A    between atoms: C_2  and  C_3
REMARK    3  A    between atoms: C_3  and  N_4
REMARK    4  A    between atoms: C_3  and  C_18
REMARK    5  A    between atoms: C_5  and  C_7
REMARK    6  A    between atoms: N_13  and  C_14
REMARK    7  A    between atoms: C_21  and  C_22
REMARK    8  A    between atoms: C_22  and  N_23
REMARK    9  A    between atoms: C_22  and  C_24
REMARK   10  A    between atoms: C_24  and  C_25
REMARK                            x       y       z     vdW  Elec       q    Type
REMARK                         _______ _______ _______ _____ _____    ______ ____
ROOT
ATOM      1  C   UNL     1      48.334   6.722  13.851  0.00  0.00    +0.000 C 
ENDROOT
BRANCH   1   2
ATOM      2  C   UNL     1      47.179   6.072  13.095  0.00  0.00    +0.000 A 
ATOM      3  C   UNL     1      46.584   4.908  13.608  0.00  0.00    +0.000 A 
ATOM      4  C   UNL     1      45.645   4.193  12.858  0.00  0.00    +0.000 A 
ATOM      5  C   UNL     1      45.247   4.636  11.589  0.00  0.00    +0.000 A 
ATOM      6  C   UNL     1      45.801   5.824  11.098  0.00  0.00    +0.000 A 
ATOM      7  C   UNL     1      46.758   6.522  11.834  0.00  0.00    +0.000 A 
BRANCH   5   8
ATOM      8  C   UNL     1      44.271   3.813  10.764  0.00  0.00    +0.000 C 
BRANCH   8   9
ATOM      9  N   UNL     1      43.057   3.548  11.540  0.00  0.00    +0.000 NA
ATOM     10  H   UNL     1      43.295   3.031  12.383  0.00  0.00    +0.000 HD
ATOM     11  H   UNL     1      42.418   2.963  11.009  0.00  0.00    +0.000 HD
ENDBRANCH   8   9
BRANCH   8  12
ATOM     12  C   UNL     1      44.922   2.515  10.231  0.00  0.00    +0.000 C 
BRANCH  12  13
ATOM     13  C   UNL     1      44.752   2.295   8.711  0.00  0.00    +0.000 C 
ATOM     14  C   UNL     1      45.998   1.672   8.085  0.00  0.00    +0.000 C 
ATOM     15  C   UNL     1      46.855   2.877   7.767  0.00  0.00    +0.000 C 
ATOM     16  N   UNL     1      45.899   3.867   7.265  0.00  0.00    +0.000 NA
ATOM     17  C   UNL     1      44.612   3.605   7.928  0.00  0.00    +0.000 C 
ATOM     18  H   UNL     1      45.777   3.723   6.262  0.00  0.00    +0.000 HD
ENDBRANCH  12  13
ENDBRANCH   8  12
ENDBRANCH   5   8
ENDBRANCH   1   2
BRANCH   1  19
ATOM     19  N   UNL     1      48.047   6.759  15.280  0.00  0.00    +0.000 N 
ATOM     20  C   UNL     1      48.930   6.418  16.267  0.00  0.00    +0.000 C 
ATOM     21  O   UNL     1      50.033   5.936  16.037  0.00  0.00    +0.000 OA
ATOM     22  H   UNL     1      47.270   7.348  15.547  0.00  0.00    +0.000 HD
BRANCH  20  23
ATOM     23  C   UNL     1      48.446   6.625  17.647  0.00  0.00    +0.000 A 
ATOM     24  C   UNL     1      48.354   5.547  18.514  0.00  0.00    +0.000 A 
ATOM     25  S   UNL     1      47.776   5.963  20.064  0.00  0.00    +0.000 S 
ATOM     26  C   UNL     1      47.665   7.610  19.645  0.00  0.00    +0.000 A 
ATOM     27  N   UNL     1      47.263   8.536  20.548  0.00  0.00    +0.000 NA
ATOM     28  C   UNL     1      47.227   9.747  20.101  0.00  0.00    +0.000 A 
ATOM     29  N   UNL     1      47.547  10.134  18.814  0.00  0.00    +0.000 N 
ATOM     30  C   UNL     1      47.420  11.515  18.403  0.00  0.00    +0.000 C 
ATOM     31  C   UNL     1      47.945   9.203  17.856  0.00  0.00    +0.000 A 
ATOM     32  O   UNL     1      48.170   9.519  16.694  0.00  0.00    +0.000 OA
ATOM     33  C   UNL     1      48.025   7.832  18.327  0.00  0.00    +0.000 A 
ENDBRANCH  20  23
ENDBRANCH   1  19
BRANCH   1  35
ATOM     34  C   UNL     1      49.923   8.759  13.751  0.00  0.00    +0.000 C 
ATOM     35  C   UNL     1      48.585   8.156  13.330  0.00  0.00    +0.000 C 
ENDBRANCH   1  35
TORSDOF 8
ENDMDL
MODEL 4
REMARK VINA RESULT:    -6.649      1.618      2.471
REMARK INTER + INTRA:         -11.205
REMARK INTER:                 -10.191
REMARK INTRA:                  -1.014
REMARK UNBOUND:                -1.641
REMARK  Name = 
REMARK  10 active torsions:
REMARK  status: ('A' for Active; 'I' for Inactive)
REMARK    1  A    between atoms: C_1  and  C_2
REMARK    2  A    between atoms: C_2  and  C_3
REMARK    3  A    between atoms: C_3  and  N_4
REMARK    4  A    between atoms: C_3  and  C_18
REMARK    5  A    between atoms: C_5  and  C_7
REMARK    6  A    between atoms: N_13  and  C_14
REMARK    7  A    between atoms: C_21  and  C_22
REMARK    8  A    between atoms: C_22  and  N_23
REMARK    9  A    between atoms: C_22  and  C_24
REMARK   10  A    between atoms: C_24  and  C_25
REMARK                            x       y       z     vdW  Elec       q    Type
REMARK                         _______ _______ _______ _____ _____    ______ ____
ROOT
ATOM      1  C   UNL     1      49.031   7.026  13.144  0.00  0.00    +0.000 C 
ENDROOT
BRANCH   1   2
ATOM      2  C   UNL     1      47.526   6.848  12.957  0.00  0.00    +0.000 A 
ATOM      3  C   UNL     1      46.882   5.748  13.543  0.00  0.00    +0.000 A 
ATOM      4  C   UNL     1      45.544   5.460  13.250  0.00  0.00    +0.000 A 
ATOM      5  C   UNL     1      44.802   6.282  12.390  0.00  0.00    +0.000 A 
ATOM      6  C   UNL     1      45.429   7.408  11.845  0.00  0.00    +0.000 A 
ATOM      7  C   UNL     1      46.771   7.679  12.115  0.00  0.00    +0.000 A 
BRANCH   5   8
ATOM      8  C   UNL     1      43.369   5.919  12.035  0.00  0.00    +0.000 C 
BRANCH   8   9
ATOM      9  N   UNL     1      42.711   5.294  13.186  0.00  0.00    +0.000 NA
ATOM     10  H   UNL     1      43.345   5.287  13.981  0.00  0.00    +0.000 HD
ATOM     11  H   UNL     1      42.488   4.324  12.982  0.00  0.00    +0.000 HD
ENDBRANCH   8   9
BRANCH   8  12
ATOM     12  C   UNL     1      43.296   5.038  10.767  0.00  0.00    +0.000 C 
BRANCH  12  13
ATOM     13  C   UNL     1      44.545   4.159  10.529  0.00  0.00    +0.000 C 
ATOM     14  C   UNL     1      45.301   4.575   9.270  0.00  0.00    +0.000 C 
ATOM     15  C   UNL     1      44.601   3.792   8.182  0.00  0.00    +0.000 C 
ATOM     16  N   UNL     1      44.361   2.482   8.789  0.00  0.00    +0.000 NA
ATOM     17  C   UNL     1      44.200   2.695  10.236  0.00  0.00    +0.000 C 
ATOM     18  H   UNL     1      45.185   1.897   8.642  0.00  0.00    +0.000 HD
ENDBRANCH  12  13
ENDBRANCH   8  12
ENDBRANCH   5   8
ENDBRANCH   1   2
BRANCH   1  19
ATOM     19  N   UNL     1      49.359   7.090  14.563  0.00  0.00    +0.000 N 
ATOM     20  C   UNL     1      48.827   7.983  15.452  0.00  0.00    +0.000 C 
ATOM     21  O   UNL     1      48.091   8.902  15.113  0.00  0.00    +0.000 OA
ATOM     22  H   UNL     1      49.762   6.248  14.950  0.00  0.00    +0.000 HD
BRANCH  20  23
ATOM     23  C   UNL     1      49.239   7.797  16.858  0.00  0.00    +0.000 A 
ATOM     24  C   UNL     1      49.701   8.880  17.589  0.00  0.00    +0.000 A 
ATOM     25  S   UNL     1      50.135   8.488  19.192  0.00  0.00    +0.000 S 
ATOM     26  C   UNL     1      49.683   6.860  18.979  0.00  0.00    +0.000 A 
ATOM     27  N   UNL     1      49.770   5.971  19.997  0.00  0.00    +0.000 NA
ATOM     28  C   UNL     1      49.391   4.772  19.700  0.00  0.00    +0.000 A 
ATOM     29  N   UNL     1      48.939   4.359  18.463  0.00  0.00    +0.000 N 
ATOM     30  C   UNL     1      48.589   2.975  18.225  0.00  0.00    +0.000 C 
ATOM     31  C   UNL     1      48.855   5.245  17.389  0.00  0.00    +0.000 A 
ATOM     32  O   UNL     1      48.517   4.882  16.269  0.00  0.00    +0.000 OA
ATOM     33  C   UNL     1      49.246   6.611  17.689  0.00  0.00    +0.000 A 
ENDBRANCH  20  23
ENDBRANCH   1  19
BRANCH   1  35
ATOM     34  C   UNL     1      50.634   8.090  11.417  0.00  0.00    +0.000 C 
ATOM     35  C   UNL     1      49.518   8.311  12.435  0.00  0.00    +0.000 C 
ENDBRANCH   1  35
TORSDOF 8
ENDMDL
MODEL 5
REMARK VINA RESULT:    -6.617      3.887      8.988
REMARK INTER + INTRA:         -11.159
REMARK INTER:                  -9.799
REMARK INTRA:                  -1.360
REMARK UNBOUND:                -1.641
REMARK  Name = 
REMARK  10 active torsions:
REMARK  status: ('A' for Active; 'I' for Inactive)
REMARK    1  A    between atoms: C_1  and  C_2
REMARK    2  A    between atoms: C_2  and  C_3
REMARK    3  A    between atoms: C_3  and  N_4
REMARK    4  A    between atoms: C_3  and  C_18
REMARK    5  A    between atoms: C_5  and  C_7
REMARK    6  A    between atoms: N_13  and  C_14
REMARK    7  A    between atoms: C_21  and  C_22
REMARK    8  A    between atoms: C_22  and  N_23
REMARK    9  A    between atoms: C_22  and  C_24
REMARK   10  A    between atoms: C_24  and  C_25
REMARK                            x       y       z     vdW  Elec       q    Type
REMARK                         _______ _______ _______ _____ _____    ______ ____
ROOT
ATOM      1  C   UNL     1      47.852   4.022  17.348  0.00  0.00    +0.000 C 
ENDROOT
BRANCH   1   2
ATOM      2  C   UNL     1      49.270   3.458  17.351  0.00  0.00    +0.000 A 
ATOM      3  C   UNL     1      49.481   2.117  16.994  0.00  0.00    +0.000 A 
ATOM      4  C   UNL     1      50.737   1.522  17.152  0.00  0.00    +0.000 A 
ATOM      5  C   UNL     1      51.827   2.258  17.638  0.00  0.00    +0.000 A 
ATOM      6  C   UNL     1      51.630   3.609  17.946  0.00  0.00    +0.000 A 
ATOM      7  C   UNL     1      50.370   4.194  17.815  0.00  0.00    +0.000 A 
BRANCH   5   8
ATOM      8  C   UNL     1      53.168   1.578  17.861  0.00  0.00    +0.000 C 
BRANCH   8   9
ATOM      9  N   UNL     1      52.969   0.152  18.130  0.00  0.00    +0.000 NA
ATOM     10  H   UNL     1      52.026  -0.003  18.477  0.00  0.00    +0.000 HD
ATOM     11  H   UNL     1      53.604  -0.164  18.858  0.00  0.00    +0.000 HD
ENDBRANCH   8   9
BRANCH   8  12
ATOM     12  C   UNL     1      53.989   2.276  18.972  0.00  0.00    +0.000 C 
BRANCH  12  13
ATOM     13  C   UNL     1      55.384   2.764  18.522  0.00  0.00    +0.000 C 
ATOM     14  C   UNL     1      55.629   4.219  18.910  0.00  0.00    +0.000 C 
ATOM     15  C   UNL     1      55.039   4.983  17.746  0.00  0.00    +0.000 C 
ATOM     16  N   UNL     1      55.440   4.203  16.573  0.00  0.00    +0.000 NA
ATOM     17  C   UNL     1      55.543   2.799  16.998  0.00  0.00    +0.000 C 
ATOM     18  H   UNL     1      56.365   4.516  16.274  0.00  0.00    +0.000 HD
ENDBRANCH  12  13
ENDBRANCH   8  12
ENDBRANCH   5   8
ENDBRANCH   1   2
BRANCH   1  19
ATOM     19  N   UNL     1      47.662   4.908  16.206  0.00  0.00    +0.000 N 
ATOM     20  C   UNL     1      47.393   4.496  14.930  0.00  0.00    +0.000 C 
ATOM     21  O   UNL     1      47.394   3.318  14.596  0.00  0.00    +0.000 OA
ATOM     22  H   UNL     1      47.421   5.862  16.437  0.00  0.00    +0.000 HD
BRANCH  20  23
ATOM     23  C   UNL     1      47.147   5.578  13.955  0.00  0.00    +0.000 A 
ATOM     24  C   UNL     1      48.115   6.548  13.742  0.00  0.00    +0.000 A 
ATOM     25  S   UNL     1      47.667   7.721  12.588  0.00  0.00    +0.000 S 
ATOM     26  C   UNL     1      46.175   6.953  12.300  0.00  0.00    +0.000 A 
ATOM     27  N   UNL     1      45.307   7.433  11.377  0.00  0.00    +0.000 NA
ATOM     28  C   UNL     1      44.216   6.752  11.257  0.00  0.00    +0.000 A 
ATOM     29  N   UNL     1      43.890   5.627  11.987  0.00  0.00    +0.000 N 
ATOM     30  C   UNL     1      42.613   4.971  11.808  0.00  0.00    +0.000 C 
ATOM     31  C   UNL     1      44.752   5.118  12.957  0.00  0.00    +0.000 A 
ATOM     32  O   UNL     1      44.453   4.159  13.658  0.00  0.00    +0.000 OA
ATOM     33  C   UNL     1      46.004   5.839  13.105  0.00  0.00    +0.000 A 
ENDBRANCH  20  23
ENDBRANCH   1  19
BRANCH   1  35
ATOM     34  C   UNL     1      47.629   6.312  18.528  0.00  0.00    +0.000 C 
ATOM     35  C   UNL     1      47.571   4.791  18.660  0.00  0.00    +0.000 C 
ENDBRANCH   1  35
TORSDOF 8
ENDMDL
MODEL 6
REMARK VINA RESULT:    -6.596      1.850      2.758
REMARK INTER + INTRA:         -11.129
REMARK INTER:                  -9.303
REMARK INTRA:                  -1.825
REMARK UNBOUND:                -1.641
REMARK  Name = 
REMARK  10 active torsions:
REMARK  status: ('A' for Active; 'I' for Inactive)
REMARK    1  A    between atoms: C_1  and  C_2
REMARK    2  A    between atoms: C_2  and  C_3
REMARK    3  A    between atoms: C_3  and  N_4
REMARK    4  A    between atoms: C_3  and  C_18
REMARK    5  A    between atoms: C_5  and  C_7
REMARK    6  A    between atoms: N_13  and  C_14
REMARK    7  A    between atoms: C_21  and  C_22
REMARK    8  A    between atoms: C_22  and  N_23
REMARK    9  A    between atoms: C_22  and  C_24
REMARK   10  A    between atoms: C_24  and  C_25
REMARK                            x       y       z     vdW  Elec       q    Type
REMARK                         _______ _______ _______ _____ _____    ______ ____
ROOT
ATOM      1  C   UNL     1      48.726   8.889  12.978  0.00  0.00    +0.000 C 
ENDROOT
BRANCH   1   2
ATOM      2  C   UNL     1      47.461   8.287  12.372  0.00  0.00    +0.000 A 
ATOM      3  C   UNL     1      46.289   9.057  12.313  0.00  0.00    +0.000 A 
ATOM      4  C   UNL     1      45.073   8.484  11.927  0.00  0.00    +0.000 A 
ATOM      5  C   UNL     1      44.998   7.134  11.556  0.00  0.00    +0.000 A 
ATOM      6  C   UNL     1      46.176   6.378  11.566  0.00  0.00    +0.000 A 
ATOM      7  C   UNL     1      47.383   6.943  11.978  0.00  0.00    +0.000 A 
BRANCH   5   8
ATOM      8  C   UNL     1      43.657   6.513  11.198  0.00  0.00    +0.000 C 
BRANCH   8   9
ATOM      9  N   UNL     1      42.645   7.561  11.045  0.00  0.00    +0.000 NA
ATOM     10  H   UNL     1      42.574   8.098  11.906  0.00  0.00    +0.000 HD
ATOM     11  H   UNL     1      41.730   7.149  10.882  0.00  0.00    +0.000 HD
ENDBRANCH   8   9
BRANCH   8  12
ATOM     12  C   UNL     1      43.233   5.432  12.220  0.00  0.00    +0.000 C 
BRANCH  12  13
ATOM     13  C   UNL     1      43.067   4.019  11.620  0.00  0.00    +0.000 C 
ATOM     14  C   UNL     1      43.665   2.944  12.524  0.00  0.00    +0.000 C 
ATOM     15  C   UNL     1      45.114   2.906  12.091  0.00  0.00    +0.000 C 
ATOM     16  N   UNL     1      45.049   3.032  10.633  0.00  0.00    +0.000 NA
ATOM     17  C   UNL     1      43.851   3.825  10.317  0.00  0.00    +0.000 C 
ATOM     18  H   UNL     1      44.932   2.102  10.230  0.00  0.00    +0.000 HD
ENDBRANCH  12  13
ENDBRANCH   8  12
ENDBRANCH   5   8
ENDBRANCH   1   2
BRANCH   1  19
ATOM     19  N   UNL     1      48.898   8.430  14.350  0.00  0.00    +0.000 N 
ATOM     20  C   UNL     1      50.098   8.118  14.928  0.00  0.00    +0.000 C 
ATOM     21  O   UNL     1      51.151   8.088  14.303  0.00  0.00    +0.000 OA
ATOM     22  H   UNL     1      48.135   8.647  14.976  0.00  0.00    +0.000 HD
BRANCH  20  23
ATOM     23  C   UNL     1      50.037   7.765  16.361  0.00  0.00    +0.000 A 
ATOM     24  C   UNL     1      50.712   8.540  17.291  0.00  0.00    +0.000 A 
ATOM     25  S   UNL     1      50.536   7.991  18.897  0.00  0.00    +0.000 S 
ATOM     26  C   UNL     1      49.515   6.717  18.411  0.00  0.00    +0.000 A 
ATOM     27  N   UNL     1      48.971   5.871  19.319  0.00  0.00    +0.000 NA
ATOM     28  C   UNL     1      48.214   4.954  18.816  0.00  0.00    +0.000 A 
ATOM     29  N   UNL     1      47.949   4.783  17.472  0.00  0.00    +0.000 N 
ATOM     30  C   UNL     1      47.126   3.685  17.012  0.00  0.00    +0.000 C 
ATOM     31  C   UNL     1      48.508   5.624  16.511  0.00  0.00    +0.000 A 
ATOM     32  O   UNL     1      48.336   5.448  15.311  0.00  0.00    +0.000 OA
ATOM     33  C   UNL     1      49.345   6.687  17.038  0.00  0.00    +0.000 A 
ENDBRANCH  20  23
ENDBRANCH   1  19
BRANCH   1  35
ATOM     34  C   UNL     1      49.183  11.066  11.659  0.00  0.00    +0.000 C 
ATOM     35  C   UNL     1      48.660  10.434  12.947  0.00  0.00    +0.000 C 
ENDBRANCH   1  35
TORSDOF 8
ENDMDL
MODEL 7
REMARK VINA RESULT:    -6.553      4.398      9.211
REMARK INTER + INTRA:         -11.067
REMARK INTER:                  -9.859
REMARK INTRA:                  -1.209
REMARK UNBOUND:                -1.641
REMARK  Name = 
REMARK  10 active torsions:
REMARK  status: ('A' for Active; 'I' for Inactive)
REMARK    1  A    between atoms: C_1  and  C_2
REMARK    2  A    between atoms: C_2  and  C_3
REMARK    3  A    between atoms: C_3  and  N_4
REMARK    4  A    between atoms: C_3  and  C_18
REMARK    5  A    between atoms: C_5  and  C_7
REMARK    6  A    between atoms: N_13  and  C_14
REMARK    7  A    between atoms: C_21  and  C_22
REMARK    8  A    between atoms: C_22  and  N_23
REMARK    9  A    between atoms: C_22  and  C_24
REMARK   10  A    between atoms: C_24  and  C_25
REMARK                            x       y       z     vdW  Elec       q    Type
REMARK                         _______ _______ _______ _____ _____    ______ ____
ROOT
ATOM      1  C   UNL     1      47.925   3.817  17.264  0.00  0.00    +0.000 C 
ENDROOT
BRANCH   1   2
ATOM      2  C   UNL     1      49.396   3.411  17.311  0.00  0.00    +0.000 A 
ATOM      3  C   UNL     1      49.753   2.076  17.066  0.00  0.00    +0.000 A 
ATOM      4  C   UNL     1      51.064   1.635  17.270  0.00  0.00    +0.000 A 
ATOM      5  C   UNL     1      52.065   2.522  17.692  0.00  0.00    +0.000 A 
ATOM      6  C   UNL     1      51.721   3.864  17.888  0.00  0.00    +0.000 A 
ATOM      7  C   UNL     1      50.407   4.298  17.712  0.00  0.00    +0.000 A 
BRANCH   5   8
ATOM      8  C   UNL     1      53.470   2.012  17.968  0.00  0.00    +0.000 C 
BRANCH   8   9
ATOM      9  N   UNL     1      54.457   3.010  17.546  0.00  0.00    +0.000 NA
ATOM     10  H   UNL     1      54.076   3.944  17.675  0.00  0.00    +0.000 HD
ATOM     11  H   UNL     1      54.659   2.912  16.555  0.00  0.00    +0.000 HD
ENDBRANCH   8   9
BRANCH   8  12
ATOM     12  C   UNL     1      53.719   0.630  17.320  0.00  0.00    +0.000 C 
BRANCH  12  13
ATOM     13  C   UNL     1      54.943  -0.127  17.882  0.00  0.00    +0.000 C 
ATOM     14  C   UNL     1      54.764  -1.640  17.793  0.00  0.00    +0.000 C 
ATOM     15  C   UNL     1      54.031  -1.970  19.075  0.00  0.00    +0.000 C 
ATOM     16  N   UNL     1      54.675  -1.118  20.077  0.00  0.00    +0.000 NA
ATOM     17  C   UNL     1      55.143   0.093  19.385  0.00  0.00    +0.000 C 
ATOM     18  H   UNL     1      55.489  -1.610  20.449  0.00  0.00    +0.000 HD
ENDBRANCH  12  13
ENDBRANCH   8  12
ENDBRANCH   5   8
ENDBRANCH   1   2
BRANCH   1  19
ATOM     19  N   UNL     1      47.698   4.770  16.185  0.00  0.00    +0.000 N 
ATOM     20  C   UNL     1      47.407   4.435  14.891  0.00  0.00    +0.000 C 
ATOM     21  O   UNL     1      47.417   3.279  14.484  0.00  0.00    +0.000 OA
ATOM     22  H   UNL     1      47.448   5.704  16.480  0.00  0.00    +0.000 HD
BRANCH  20  23
ATOM     23  C   UNL     1      47.123   5.572  13.992  0.00  0.00    +0.000 A 
ATOM     24  C   UNL     1      48.054   6.590  13.854  0.00  0.00    +0.000 A 
ATOM     25  S   UNL     1      47.566   7.822  12.780  0.00  0.00    +0.000 S 
ATOM     26  C   UNL     1      46.106   7.020  12.429  0.00  0.00    +0.000 A 
ATOM     27  N   UNL     1      45.224   7.530  11.536  0.00  0.00    +0.000 NA
ATOM     28  C   UNL     1      44.161   6.818  11.361  0.00  0.00    +0.000 A 
ATOM     29  N   UNL     1      43.875   5.633  12.009  0.00  0.00    +0.000 N 
ATOM     30  C   UNL     1      42.625   4.943  11.776  0.00  0.00    +0.000 C 
ATOM     31  C   UNL     1      44.752   5.091  12.947  0.00  0.00    +0.000 A 
ATOM     32  O   UNL     1      44.487   4.075  13.578  0.00  0.00    +0.000 OA
ATOM     33  C   UNL     1      45.975   5.847  13.153  0.00  0.00    +0.000 A 
ENDBRANCH  20  23
ENDBRANCH   1  19
BRANCH   1  35
ATOM     34  C   UNL     1      47.227   5.942  18.561  0.00  0.00    +0.000 C 
ATOM     35  C   UNL     1      47.491   4.439  18.612  0.00  0.00    +0.000 C 
ENDBRANCH   1  35
TORSDOF 8
ENDMDL
MODEL 8
REMARK VINA RESULT:    -6.494      2.370      3.610
REMARK INTER + INTRA:         -10.982
REMARK INTER:                  -9.778
REMARK INTRA:                  -1.204
REMARK UNBOUND:                -1.641
REMARK  Name = 
REMARK  10 active torsions:
REMARK  status: ('A' for Active; 'I' for Inactive)
REMARK    1  A    between atoms: C_1  and  C_2
REMARK    2  A    between atoms: C_2  and  C_3
REMARK    3  A    between atoms: C_3  and  N_4
REMARK    4  A    between atoms: C_3  and  C_18
REMARK    5  A    between atoms: C_5  and  C_7
REMARK    6  A    between atoms: N_13  and  C_14
REMARK    7  A    between atoms: C_21  and  C_22
REMARK    8  A    between atoms: C_22  and  N_23
REMARK    9  A    between atoms: C_22  and  C_24
REMARK   10  A    between atoms: C_24  and  C_25
REMARK                            x       y       z     vdW  Elec       q    Type
REMARK                         _______ _______ _______ _____ _____    ______ ____
ROOT
ATOM      1  C   UNL     1      46.448   5.741  13.749  0.00  0.00    +0.000 C 
ENDROOT
BRANCH   1   2
ATOM      2  C   UNL     1      45.938   5.388  12.354  0.00  0.00    +0.000 A 
ATOM      3  C   UNL     1      45.217   4.199  12.162  0.00  0.00    +0.000 A 
ATOM      4  C   UNL     1      44.887   3.761  10.875  0.00  0.00    +0.000 A 
ATOM      5  C   UNL     1      45.236   4.514   9.746  0.00  0.00    +0.000 A 
ATOM      6  C   UNL     1      45.910   5.726   9.939  0.00  0.00    +0.000 A 
ATOM      7  C   UNL     1      46.264   6.148  11.220  0.00  0.00    +0.000 A 
BRANCH   5   8
ATOM      8  C   UNL     1      44.922   3.993   8.353  0.00  0.00    +0.000 C 
BRANCH   8   9
ATOM      9  N   UNL     1      44.213   2.713   8.445  0.00  0.00    +0.000 NA
ATOM     10  H   UNL     1      43.987   2.516   9.417  0.00  0.00    +0.000 HD
ATOM     11  H   UNL     1      44.809   1.955   8.125  0.00  0.00    +0.000 HD
ENDBRANCH   8   9
BRANCH   8  12
ATOM     12  C   UNL     1      46.192   3.899   7.474  0.00  0.00    +0.000 C 
BRANCH  12  13
ATOM     13  C   UNL     1      46.235   2.663   6.547  0.00  0.00    +0.000 C 
ATOM     14  C   UNL     1      47.042   1.522   7.160  0.00  0.00    +0.000 C 
ATOM     15  C   UNL     1      48.457   1.838   6.727  0.00  0.00    +0.000 C 
ATOM     16  N   UNL     1      48.307   2.297   5.345  0.00  0.00    +0.000 NA
ATOM     17  C   UNL     1      46.982   2.926   5.235  0.00  0.00    +0.000 C 
ATOM     18  H   UNL     1      48.329   1.485   4.726  0.00  0.00    +0.000 HD
ENDBRANCH  12  13
ENDBRANCH   8  12
ENDBRANCH   5   8
ENDBRANCH   1   2
BRANCH   1  19
ATOM     19  N   UNL     1      47.797   6.287  13.671  0.00  0.00    +0.000 N 
ATOM     20  C   UNL     1      48.127   7.596  13.894  0.00  0.00    +0.000 C 
ATOM     21  O   UNL     1      47.291   8.472  14.077  0.00  0.00    +0.000 OA
ATOM     22  H   UNL     1      48.542   5.610  13.755  0.00  0.00    +0.000 HD
BRANCH  20  23
ATOM     23  C   UNL     1      49.572   7.900  13.851  0.00  0.00    +0.000 A 
ATOM     24  C   UNL     1      50.154   8.314  12.663  0.00  0.00    +0.000 A 
ATOM     25  S   UNL     1      51.828   8.619  12.791  0.00  0.00    +0.000 S 
ATOM     26  C   UNL     1      51.829   8.246  14.453  0.00  0.00    +0.000 A 
ATOM     27  N   UNL     1      52.960   8.343  15.191  0.00  0.00    +0.000 NA
ATOM     28  C   UNL     1      52.819   8.034  16.438  0.00  0.00    +0.000 A 
ATOM     29  N   UNL     1      51.644   7.618  17.031  0.00  0.00    +0.000 N 
ATOM     30  C   UNL     1      51.611   7.245  18.429  0.00  0.00    +0.000 C 
ATOM     31  C   UNL     1      50.467   7.489  16.295  0.00  0.00    +0.000 A 
ATOM     32  O   UNL     1      49.432   7.061  16.791  0.00  0.00    +0.000 OA
ATOM     33  C   UNL     1      50.576   7.853  14.894  0.00  0.00    +0.000 A 
ENDBRANCH  20  23
ENDBRANCH   1  19
BRANCH   1  35
ATOM     34  C   UNL     1      47.662   4.363  15.570  0.00  0.00    +0.000 C 
ATOM     35  C   UNL     1      46.442   4.491  14.660  0.00  0.00    +0.000 C 
ENDBRANCH   1  35
TORSDOF 8
ENDMDL
MODEL 9
REMARK VINA RESULT:    -6.072      2.379      3.586
REMARK INTER + INTRA:         -10.376
REMARK INTER:                  -8.612
REMARK INTRA:                  -1.764
REMARK UNBOUND:                -1.641
REMARK  Name = 
REMARK  10 active torsions:
REMARK  status: ('A' for Active; 'I' for Inactive)
REMARK    1  A    between atoms: C_1  and  C_2
REMARK    2  A    between atoms: C_2  and  C_3
REMARK    3  A    between atoms: C_3  and  N_4
REMARK    4  A    between atoms: C_3  and  C_18
REMARK    5  A    between atoms: C_5  and  C_7
REMARK    6  A    between atoms: N_13  and  C_14
REMARK    7  A    between atoms: C_21  and  C_22
REMARK    8  A    between atoms: C_22  and  N_23
REMARK    9  A    between atoms: C_22  and  C_24
REMARK   10  A    between atoms: C_24  and  C_25
REMARK                            x       y       z     vdW  Elec       q    Type
REMARK                         _______ _______ _______ _____ _____    ______ ____
ROOT
ATOM      1  C   UNL     1      48.972   8.213  13.981  0.00  0.00    +0.000 C 
ENDROOT
BRANCH   1   2
ATOM      2  C   UNL     1      47.746   7.823  13.160  0.00  0.00    +0.000 A 
ATOM      3  C   UNL     1      46.597   8.628  13.209  0.00  0.00    +0.000 A 
ATOM      4  C   UNL     1      45.403   8.210  12.611  0.00  0.00    +0.000 A 
ATOM      5  C   UNL     1      45.331   6.994  11.918  0.00  0.00    +0.000 A 
ATOM      6  C   UNL     1      46.490   6.215  11.825  0.00  0.00    +0.000 A 
ATOM      7  C   UNL     1      47.672   6.617  12.446  0.00  0.00    +0.000 A 
BRANCH   5   8
ATOM      8  C   UNL     1      44.010   6.529  11.327  0.00  0.00    +0.000 C 
BRANCH   8   9
ATOM      9  N   UNL     1      43.160   7.684  11.028  0.00  0.00    +0.000 NA
ATOM     10  H   UNL     1      42.720   7.560  10.120  0.00  0.00    +0.000 HD
ATOM     11  H   UNL     1      43.720   8.530  10.968  0.00  0.00    +0.000 HD
ENDBRANCH   8   9
BRANCH   8  12
ATOM     12  C   UNL     1      43.303   5.499  12.239  0.00  0.00    +0.000 C 
BRANCH  12  13
ATOM     13  C   UNL     1      43.093   4.112  11.592  0.00  0.00    +0.000 C 
ATOM     14  C   UNL     1      43.615   2.986  12.480  0.00  0.00    +0.000 C 
ATOM     15  C   UNL     1      45.074   2.896  12.088  0.00  0.00    +0.000 C 
ATOM     16  N   UNL     1      45.058   3.067  10.633  0.00  0.00    +0.000 NA
ATOM     17  C   UNL     1      43.907   3.922  10.307  0.00  0.00    +0.000 C 
ATOM     18  H   UNL     1      44.914   2.155  10.199  0.00  0.00    +0.000 HD
ENDBRANCH  12  13
ENDBRANCH   8  12
ENDBRANCH   5   8
ENDBRANCH   1   2
BRANCH   1  19
ATOM     19  N   UNL     1      49.013   7.452  15.223  0.00  0.00    +0.000 N 
ATOM     20  C   UNL     1      50.154   7.090  15.885  0.00  0.00    +0.000 C 
ATOM     21  O   UNL     1      51.276   7.279  15.430  0.00  0.00    +0.000 OA
ATOM     22  H   UNL     1      48.159   7.463  15.763  0.00  0.00    +0.000 HD
BRANCH  20  23
ATOM     23  C   UNL     1      49.946   6.402  17.175  0.00  0.00    +0.000 A 
ATOM     24  C   UNL     1      50.510   5.154  17.390  0.00  0.00    +0.000 A 
ATOM     25  S   UNL     1      50.169   4.505  18.931  0.00  0.00    +0.000 S 
ATOM     26  C   UNL     1      49.284   5.888  19.383  0.00  0.00    +0.000 A 
ATOM     27  N   UNL     1      48.739   5.998  20.618  0.00  0.00    +0.000 NA
ATOM     28  C   UNL     1      48.099   7.099  20.830  0.00  0.00    +0.000 A 
ATOM     29  N   UNL     1      47.933   8.117  19.912  0.00  0.00    +0.000 N 
ATOM     30  C   UNL     1      47.149   9.289  20.238  0.00  0.00    +0.000 C 
ATOM     31  C   UNL     1      48.464   8.028  18.626  0.00  0.00    +0.000 A 
ATOM     32  O   UNL     1      48.273   8.892  17.779  0.00  0.00    +0.000 OA
ATOM     33  C   UNL     1      49.216   6.815  18.356  0.00  0.00    +0.000 A 
ENDBRANCH  20  23
ENDBRANCH   1  19
BRANCH   1  35
ATOM     34  C   UNL     1      50.104  10.517  13.673  0.00  0.00    +0.000 C 
ATOM     35  C   UNL     1      48.955   9.727  14.295  0.00  0.00    +0.000 C 
ENDBRANCH   1  35
TORSDOF 8
ENDMDL
