MODEL 1
REMARK VINA RESULT:    -7.254      0.000      0.000
REMARK INTER + INTRA:         -10.087
REMARK INTER:                  -9.586
REMARK INTRA:                  -0.501
REMARK UNBOUND:                -0.501
REMARK  Name = 
REMARK  6 active torsions:
REMARK  status: ('A' for Active; 'I' for Inactive)
REMARK    1  A    between atoms: N_1  and  C_2
REMARK    2  A    between atoms: C_2  and  C_3
REMARK    3  A    between atoms: C_3  and  C_4
REMARK    4  A    between atoms: C_7  and  C_8
REMARK    5  A    between atoms: C_8  and  N_9
REMARK    6  A    between atoms: N_9  and  C_10
REMARK                            x       y       z     vdW  Elec       q    Type
REMARK                         _______ _______ _______ _____ _____    ______ ____
ROOT
ATOM      1  C   UNL     1      46.201   2.202   7.899  0.00  0.00    +0.000 A 
ATOM      2  C   UNL     1      46.221   3.588   7.707  0.00  0.00    +0.000 A 
ATOM      3  C   UNL     1      45.388   4.422   8.457  0.00  0.00    +0.000 A 
ATOM      4  C   UNL     1      44.530   3.890   9.431  0.00  0.00    +0.000 A 
ATOM      5  C   UNL     1      44.503   2.501   9.616  0.00  0.00    +0.000 A 
ATOM      6  C   UNL     1      45.336   1.666   8.863  0.00  0.00    +0.000 A 
ENDROOT
BRANCH   1   7
ATOM      7  C   UNL     1      47.094   1.300   7.079  0.00  0.00    +0.000 C 
BRANCH   7   8
ATOM      8  C   UNL     1      48.358   2.012   6.585  0.00  0.00    +0.000 C 
BRANCH   8   9
ATOM      9  N   UNL     1      48.362   2.116   5.125  0.00  0.00    +0.000 NA
ATOM     10  H   UNL     1      47.510   2.583   4.818  0.00  0.00    +0.000 HD
ATOM     11  H   UNL     1      48.336   1.181   4.716  0.00  0.00    +0.000 HD
ENDBRANCH   8   9
ENDBRANCH   7   8
ENDBRANCH   1   7
BRANCH   4  12
ATOM     12  C   UNL     1      43.663   4.805  10.265  0.00  0.00    +0.000 C 
BRANCH  12  13
ATOM     13  N   UNL     1      44.459   5.887  10.829  0.00  0.00    +0.000 N 
ATOM     14  H   UNL     1      43.895   6.706  11.041  0.00  0.00    +0.000 HD
BRANCH  13  15
ATOM     15  C   UNL     1      45.369   5.585  11.853  0.00  0.00    +0.000 A 
ATOM     16  C   UNL     1      46.621   6.193  11.978  0.00  0.00    +0.000 A 
ATOM     17  C   UNL     1      47.446   5.911  13.070  0.00  0.00    +0.000 A 
ATOM     18  C   UNL     1      46.986   5.036  14.035  0.00  0.00    +0.000 A 
ATOM     19  N   UNL     1      45.775   4.449  13.988  0.00  0.00    +0.000 NA
ATOM     20  C   UNL     1      44.998   4.754  12.916  0.00  0.00    +0.000 A 
ENDBRANCH  13  15
ENDBRANCH  12  13
ENDBRANCH   4  12
TORSDOF 6
ENDMDL
MODEL 2
REMARK VINA RESULT:    -6.806      1.890      6.091
REMARK INTER + INTRA:          -9.495
REMARK INTER:                  -9.060
REMARK INTRA:                  -0.435
REMARK UNBOUND:                -0.501
REMARK  Name = 
REMARK  6 active torsions:
REMARK  status: ('A' for Active; 'I' for Inactive)
REMARK    1  A    between atoms: N_1  and  C_2
REMARK    2  A    between atoms: C_2  and  C_3
REMARK    3  A    between atoms: C_3  and  C_4
REMARK    4  A    between atoms: C_7  and  C_8
REMARK    5  A    between atoms: C_8  and  N_9
REMARK    6  A    between atoms: N_9  and  C_10
REMARK                            x       y       z     vdW  Elec       q    Type
REMARK                         _______ _______ _______ _____ _____    ______ ____
ROOT
ATOM      1  C   UNL     1      46.823   5.982  12.794  0.00  0.00    +0.000 A 
ATOM      2  C   UNL     1      46.611   6.498  11.510  0.00  0.00    +0.000 A 
ATOM      3  C   UNL     1      45.671   5.915  10.656  0.00  0.00    +0.000 A 
ATOM      4  C   UNL     1      44.907   4.815  11.075  0.00  0.00    +0.000 A 
ATOM      5  C   UNL     1      45.128   4.293  12.356  0.00  0.00    +0.000 A 
ATOM      6  C   UNL     1      46.070   4.876  13.210  0.00  0.00    +0.000 A 
ENDROOT
BRANCH   1   7
ATOM      7  C   UNL     1      47.848   6.607  13.712  0.00  0.00    +0.000 C 
BRANCH   7   8
ATOM      8  C   UNL     1      47.959   8.124  13.528  0.00  0.00    +0.000 C 
BRANCH   8   9
ATOM      9  N   UNL     1      47.059   8.828  14.442  0.00  0.00    +0.000 NA
ATOM     10  H   UNL     1      47.531   9.650  14.815  0.00  0.00    +0.000 HD
ATOM     11  H   UNL     1      46.851   8.232  15.245  0.00  0.00    +0.000 HD
ENDBRANCH   8   9
ENDBRANCH   7   8
ENDBRANCH   1   7
BRANCH   4  12
ATOM     12  C   UNL     1      43.865   4.218  10.158  0.00  0.00    +0.000 C 
BRANCH  12  13
ATOM     13  N   UNL     1      44.280   4.341   8.766  0.00  0.00    +0.000 N 
ATOM     14  H   UNL     1      44.554   5.293   8.532  0.00  0.00    +0.000 HD
BRANCH  13  15
ATOM     15  C   UNL     1      45.166   3.387   8.245  0.00  0.00    +0.000 A 
ATOM     16  C   UNL     1      46.167   3.688   7.317  0.00  0.00    +0.000 A 
ATOM     17  C   UNL     1      47.073   2.710   6.901  0.00  0.00    +0.000 A 
ATOM     18  C   UNL     1      46.972   1.444   7.445  0.00  0.00    +0.000 A 
ATOM     19  N   UNL     1      46.052   1.104   8.369  0.00  0.00    +0.000 NA
ATOM     20  C   UNL     1      45.195   2.085   8.756  0.00  0.00    +0.000 A 
ENDBRANCH  13  15
ENDBRANCH  12  13
ENDBRANCH   4  12
TORSDOF 6
ENDMDL
MODEL 3
REMARK VINA RESULT:    -6.644      1.893      6.235
REMARK INTER + INTRA:          -9.281
REMARK INTER:                  -8.869
REMARK INTRA:                  -0.412
REMARK UNBOUND:                -0.501
REMARK  Name = 
REMARK  6 active torsions:
REMARK  status: ('A' for Active; 'I' for Inactive)
REMARK    1  A    between atoms: N_1  and  C_2
REMARK    2  A    between atoms: C_2  and  C_3
REMARK    3  A    between atoms: C_3  and  C_4
REMARK    4  A    between atoms: C_7  and  C_8
REMARK    5  A    between atoms: C_8  and  N_9
REMARK    6  A    between atoms: N_9  and  C_10
REMARK                            x       y       z     vdW  Elec       q    Type
REMARK                         _______ _______ _______ _____ _____    ______ ____
ROOT
ATOM      1  C   UNL     1      46.503   5.890  12.519  0.00  0.00    +0.000 A 
ATOM      2  C   UNL     1      46.054   4.645  12.973  0.00  0.00    +0.000 A 
ATOM      3  C   UNL     1      45.309   3.810  12.137  0.00  0.00    +0.000 A 
ATOM      4  C   UNL     1      45.013   4.193  10.820  0.00  0.00    +0.000 A 
ATOM      5  C   UNL     1      45.455   5.444  10.370  0.00  0.00    +0.000 A 
ATOM      6  C   UNL     1      46.199   6.281  11.209  0.00  0.00    +0.000 A 
ENDROOT
BRANCH   1   7
ATOM      7  C   UNL     1      47.299   6.797  13.429  0.00  0.00    +0.000 C 
BRANCH   7   8
ATOM      8  C   UNL     1      48.724   7.041  12.921  0.00  0.00    +0.000 C 
BRANCH   8   9
ATOM      9  N   UNL     1      49.698   6.883  14.002  0.00  0.00    +0.000 NA
ATOM     10  H   UNL     1      49.318   7.280  14.860  0.00  0.00    +0.000 HD
ATOM     11  H   UNL     1      50.537   7.425  13.787  0.00  0.00    +0.000 HD
ENDBRANCH   8   9
ENDBRANCH   7   8
ENDBRANCH   1   7
BRANCH   4  12
ATOM     12  C   UNL     1      44.241   3.264   9.911  0.00  0.00    +0.000 C 
BRANCH  12  13
ATOM     13  N   UNL     1      45.055   2.110   9.554  0.00  0.00    +0.000 N 
ATOM     14  H   UNL     1      44.558   1.233   9.694  0.00  0.00    +0.000 HD
BRANCH  13  15
ATOM     15  C   UNL     1      45.757   2.136   8.340  0.00  0.00    +0.000 A 
ATOM     16  C   UNL     1      45.848   3.267   7.524  0.00  0.00    +0.000 A 
ATOM     17  C   UNL     1      46.634   3.254   6.369  0.00  0.00    +0.000 A 
ATOM     18  C   UNL     1      47.338   2.104   6.064  0.00  0.00    +0.000 A 
ATOM     19  N   UNL     1      47.319   0.997   6.831  0.00  0.00    +0.000 NA
ATOM     20  C   UNL     1      46.551   1.051   7.950  0.00  0.00    +0.000 A 
ENDBRANCH  13  15
ENDBRANCH  12  13
ENDBRANCH   4  12
TORSDOF 6
ENDMDL
MODEL 4
REMARK VINA RESULT:    -6.368      1.612      1.996
REMARK INTER + INTRA:          -8.917
REMARK INTER:                  -8.529
REMARK INTRA:                  -0.388
REMARK UNBOUND:                -0.501
REMARK  Name = 
REMARK  6 active torsions:
REMARK  status: ('A' for Active; 'I' for Inactive)
REMARK    1  A    between atoms: N_1  and  C_2
REMARK    2  A    between atoms: C_2  and  C_3
REMARK    3  A    between atoms: C_3  and  C_4
REMARK    4  A    between atoms: C_7  and  C_8
REMARK    5  A    between atoms: C_8  and  N_9
REMARK    6  A    between atoms: N_9  and  C_10
REMARK                            x       y       z     vdW  Elec       q    Type
REMARK                         _______ _______ _______ _____ _____    ______ ____
ROOT
ATOM      1  C   UNL     1      45.894   3.233   7.815  0.00  0.00    +0.000 A 
ATOM      2  C   UNL     1      46.044   4.570   8.199  0.00  0.00    +0.000 A 
ATOM      3  C   UNL     1      45.572   5.010   9.439  0.00  0.00    +0.000 A 
ATOM      4  C   UNL     1      44.959   4.118  10.330  0.00  0.00    +0.000 A 
ATOM      5  C   UNL     1      44.801   2.782   9.940  0.00  0.00    +0.000 A 
ATOM      6  C   UNL     1      45.271   2.342   8.698  0.00  0.00    +0.000 A 
ENDROOT
BRANCH   1   7
ATOM      7  C   UNL     1      46.395   2.761   6.470  0.00  0.00    +0.000 C 
BRANCH   7   8
ATOM      8  C   UNL     1      47.520   1.728   6.586  0.00  0.00    +0.000 C 
BRANCH   8   9
ATOM      9  N   UNL     1      48.497   1.895   5.509  0.00  0.00    +0.000 NA
ATOM     10  H   UNL     1      48.055   2.371   4.724  0.00  0.00    +0.000 HD
ATOM     11  H   UNL     1      48.782   0.978   5.160  0.00  0.00    +0.000 HD
ENDBRANCH   8   9
ENDBRANCH   7   8
ENDBRANCH   1   7
BRANCH   4  12
ATOM     12  C   UNL     1      44.489   4.596  11.685  0.00  0.00    +0.000 C 
BRANCH  12  13
ATOM     13  N   UNL     1      45.625   4.809  12.572  0.00  0.00    +0.000 N 
ATOM     14  H   UNL     1      46.394   4.174  12.368  0.00  0.00    +0.000 HD
BRANCH  13  15
ATOM     15  C   UNL     1      46.064   6.122  12.796  0.00  0.00    +0.000 A 
ATOM     16  C   UNL     1      45.293   7.253  12.514  0.00  0.00    +0.000 A 
ATOM     17  C   UNL     1      45.752   8.531  12.839  0.00  0.00    +0.000 A 
ATOM     18  C   UNL     1      46.977   8.650  13.468  0.00  0.00    +0.000 A 
ATOM     19  N   UNL     1      47.748   7.596  13.799  0.00  0.00    +0.000 NA
ATOM     20  C   UNL     1      47.263   6.369  13.474  0.00  0.00    +0.000 A 
ENDBRANCH  13  15
ENDBRANCH  12  13
ENDBRANCH   4  12
TORSDOF 6
ENDMDL
MODEL 5
REMARK VINA RESULT:    -5.974      1.857      5.965
REMARK INTER + INTRA:          -8.396
REMARK INTER:                  -7.839
REMARK INTRA:                  -0.557
REMARK UNBOUND:                -0.501
REMARK  Name = 
REMARK  6 active torsions:
REMARK  status: ('A' for Active; 'I' for Inactive)
REMARK    1  A    between atoms: N_1  and  C_2
REMARK    2  A    between atoms: C_2  and  C_3
REMARK    3  A    between atoms: C_3  and  C_4
REMARK    4  A    between atoms: C_7  and  C_8
REMARK    5  A    between atoms: C_8  and  N_9
REMARK    6  A    between atoms: N_9  and  C_10
REMARK                            x       y       z     vdW  Elec       q    Type
REMARK                         _______ _______ _______ _____ _____    ______ ____
ROOT
ATOM      1  C   UNL     1      47.002   5.675  13.483  0.00  0.00    +0.000 A 
ATOM      2  C   UNL     1      46.867   4.296  13.682  0.00  0.00    +0.000 A 
ATOM      3  C   UNL     1      45.861   3.579  13.030  0.00  0.00    +0.000 A 
ATOM      4  C   UNL     1      44.980   4.222  12.147  0.00  0.00    +0.000 A 
ATOM      5  C   UNL     1      45.110   5.604  11.956  0.00  0.00    +0.000 A 
ATOM      6  C   UNL     1      46.116   6.322  12.612  0.00  0.00    +0.000 A 
ENDROOT
BRANCH   1   7
ATOM      7  C   UNL     1      48.084   6.450  14.199  0.00  0.00    +0.000 C 
BRANCH   7   8
ATOM      8  C   UNL     1      48.764   7.486  13.297  0.00  0.00    +0.000 C 
BRANCH   8   9
ATOM      9  N   UNL     1      49.873   6.885  12.555  0.00  0.00    +0.000 NA
ATOM     10  H   UNL     1      50.651   6.714  13.190  0.00  0.00    +0.000 HD
ATOM     11  H   UNL     1      50.216   7.548  11.857  0.00  0.00    +0.000 HD
ENDBRANCH   8   9
ENDBRANCH   7   8
ENDBRANCH   1   7
BRANCH   4  12
ATOM     12  C   UNL     1      43.921   3.429  11.415  0.00  0.00    +0.000 C 
BRANCH  12  13
ATOM     13  N   UNL     1      43.871   3.821  10.013  0.00  0.00    +0.000 N 
ATOM     14  H   UNL     1      43.654   4.809   9.899  0.00  0.00    +0.000 HD
BRANCH  13  15
ATOM     15  C   UNL     1      44.905   3.401   9.163  0.00  0.00    +0.000 A 
ATOM     16  C   UNL     1      45.254   2.061   8.975  0.00  0.00    +0.000 A 
ATOM     17  C   UNL     1      46.237   1.702   8.049  0.00  0.00    +0.000 A 
ATOM     18  C   UNL     1      46.839   2.700   7.307  0.00  0.00    +0.000 A 
ATOM     19  N   UNL     1      46.519   4.003   7.418  0.00  0.00    +0.000 NA
ATOM     20  C   UNL     1      45.553   4.313   8.322  0.00  0.00    +0.000 A 
ENDBRANCH  13  15
ENDBRANCH  12  13
ENDBRANCH   4  12
TORSDOF 6
ENDMDL
MODEL 6
REMARK VINA RESULT:    -5.372      1.859      2.753
REMARK INTER + INTRA:          -7.600
REMARK INTER:                  -7.205
REMARK INTRA:                  -0.395
REMARK UNBOUND:                -0.501
REMARK  Name = 
REMARK  6 active torsions:
REMARK  status: ('A' for Active; 'I' for Inactive)
REMARK    1  A    between atoms: N_1  and  C_2
REMARK    2  A    between atoms: C_2  and  C_3
REMARK    3  A    between atoms: C_3  and  C_4
REMARK    4  A    between atoms: C_7  and  C_8
REMARK    5  A    between atoms: C_8  and  N_9
REMARK    6  A    between atoms: N_9  and  C_10
REMARK                            x       y       z     vdW  Elec       q    Type
REMARK                         _______ _______ _______ _____ _____    ______ ____
ROOT
ATOM      1  C   UNL     1      45.259   3.595   9.057  0.00  0.00    +0.000 A 
ATOM      2  C   UNL     1      45.650   4.932   9.191  0.00  0.00    +0.000 A 
ATOM      3  C   UNL     1      45.403   5.630  10.376  0.00  0.00    +0.000 A 
ATOM      4  C   UNL     1      44.779   4.999  11.462  0.00  0.00    +0.000 A 
ATOM      5  C   UNL     1      44.379   3.663  11.324  0.00  0.00    +0.000 A 
ATOM      6  C   UNL     1      44.623   2.966  10.136  0.00  0.00    +0.000 A 
ENDROOT
BRANCH   1   7
ATOM      7  C   UNL     1      45.516   2.845   7.771  0.00  0.00    +0.000 C 
BRANCH   7   8
ATOM      8  C   UNL     1      46.402   1.611   7.972  0.00  0.00    +0.000 C 
BRANCH   8   9
ATOM      9  N   UNL     1      47.605   1.690   7.143  0.00  0.00    +0.000 NA
ATOM     10  H   UNL     1      48.206   2.436   7.491  0.00  0.00    +0.000 HD
ATOM     11  H   UNL     1      47.347   1.955   6.191  0.00  0.00    +0.000 HD
ENDBRANCH   8   9
ENDBRANCH   7   8
ENDBRANCH   1   7
BRANCH   4  12
ATOM     12  C   UNL     1      44.553   5.751  12.754  0.00  0.00    +0.000 C 
BRANCH  12  13
ATOM     13  N   UNL     1      45.771   5.765  13.554  0.00  0.00    +0.000 N 
ATOM     14  H   UNL     1      46.135   4.828  13.712  0.00  0.00    +0.000 HD
BRANCH  13  15
ATOM     15  C   UNL     1      46.781   6.679  13.221  0.00  0.00    +0.000 A 
ATOM     16  C   UNL     1      48.082   6.303  12.877  0.00  0.00    +0.000 A 
ATOM     17  C   UNL     1      49.019   7.256  12.473  0.00  0.00    +0.000 A 
ATOM     18  C   UNL     1      48.623   8.578  12.397  0.00  0.00    +0.000 A 
ATOM     19  N   UNL     1      47.375   8.997  12.680  0.00  0.00    +0.000 NA
ATOM     20  C   UNL     1      46.489   8.039  13.061  0.00  0.00    +0.000 A 
ENDBRANCH  13  15
ENDBRANCH  12  13
ENDBRANCH   4  12
TORSDOF 6
ENDMDL
MODEL 7
REMARK VINA RESULT:    -5.313      2.270      3.881
REMARK INTER + INTRA:          -7.522
REMARK INTER:                  -7.221
REMARK INTRA:                  -0.301
REMARK UNBOUND:                -0.501
REMARK  Name = 
REMARK  6 active torsions:
REMARK  status: ('A' for Active; 'I' for Inactive)
REMARK    1  A    between atoms: N_1  and  C_2
REMARK    2  A    between atoms: C_2  and  C_3
REMARK    3  A    between atoms: C_3  and  C_4
REMARK    4  A    between atoms: C_7  and  C_8
REMARK    5  A    between atoms: C_8  and  N_9
REMARK    6  A    between atoms: N_9  and  C_10
REMARK                            x       y       z     vdW  Elec       q    Type
REMARK                         _______ _______ _______ _____ _____    ______ ____
ROOT
ATOM      1  C   UNL     1      45.035   4.184   9.726  0.00  0.00    +0.000 A 
ATOM      2  C   UNL     1      44.806   3.177  10.671  0.00  0.00    +0.000 A 
ATOM      3  C   UNL     1      45.035   3.413  12.030  0.00  0.00    +0.000 A 
ATOM      4  C   UNL     1      45.477   4.667  12.475  0.00  0.00    +0.000 A 
ATOM      5  C   UNL     1      45.715   5.671  11.528  0.00  0.00    +0.000 A 
ATOM      6  C   UNL     1      45.489   5.434  10.167  0.00  0.00    +0.000 A 
ENDROOT
BRANCH   1   7
ATOM      7  C   UNL     1      44.799   3.924   8.257  0.00  0.00    +0.000 C 
BRANCH   7   8
ATOM      8  C   UNL     1      45.972   3.200   7.588  0.00  0.00    +0.000 C 
BRANCH   8   9
ATOM      9  N   UNL     1      46.848   4.150   6.901  0.00  0.00    +0.000 NA
ATOM     10  H   UNL     1      46.656   4.125   5.901  0.00  0.00    +0.000 HD
ATOM     11  H   UNL     1      47.821   3.858   7.010  0.00  0.00    +0.000 HD
ENDBRANCH   8   9
ENDBRANCH   7   8
ENDBRANCH   1   7
BRANCH   4  12
ATOM     12  C   UNL     1      45.681   4.923  13.951  0.00  0.00    +0.000 C 
BRANCH  12  13
ATOM     13  N   UNL     1      47.069   5.281  14.218  0.00  0.00    +0.000 N 
ATOM     14  H   UNL     1      47.237   6.276  14.094  0.00  0.00    +0.000 HD
BRANCH  13  15
ATOM     15  C   UNL     1      47.679   4.777  15.376  0.00  0.00    +0.000 A 
ATOM     16  C   UNL     1      48.317   5.580  16.325  0.00  0.00    +0.000 A 
ATOM     17  C   UNL     1      48.832   5.027  17.500  0.00  0.00    +0.000 A 
ATOM     18  C   UNL     1      48.674   3.671  17.714  0.00  0.00    +0.000 A 
ATOM     19  N   UNL     1      48.036   2.853  16.854  0.00  0.00    +0.000 NA
ATOM     20  C   UNL     1      47.542   3.429  15.727  0.00  0.00    +0.000 A 
ENDBRANCH  13  15
ENDBRANCH  12  13
ENDBRANCH   4  12
TORSDOF 6
ENDMDL
MODEL 8
REMARK VINA RESULT:    -5.245      2.366      5.945
REMARK INTER + INTRA:          -7.432
REMARK INTER:                  -6.881
REMARK INTRA:                  -0.551
REMARK UNBOUND:                -0.501
REMARK  Name = 
REMARK  6 active torsions:
REMARK  status: ('A' for Active; 'I' for Inactive)
REMARK    1  A    between atoms: N_1  and  C_2
REMARK    2  A    between atoms: C_2  and  C_3
REMARK    3  A    between atoms: C_3  and  C_4
REMARK    4  A    between atoms: C_7  and  C_8
REMARK    5  A    between atoms: C_8  and  N_9
REMARK    6  A    between atoms: N_9  and  C_10
REMARK                            x       y       z     vdW  Elec       q    Type
REMARK                         _______ _______ _______ _____ _____    ______ ____
ROOT
ATOM      1  C   UNL     1      48.137   7.398  12.913  0.00  0.00    +0.000 A 
ATOM      2  C   UNL     1      47.882   6.085  13.325  0.00  0.00    +0.000 A 
ATOM      3  C   UNL     1      46.674   5.461  13.002  0.00  0.00    +0.000 A 
ATOM      4  C   UNL     1      45.704   6.129  12.241  0.00  0.00    +0.000 A 
ATOM      5  C   UNL     1      45.956   7.447  11.837  0.00  0.00    +0.000 A 
ATOM      6  C   UNL     1      47.164   8.072  12.163  0.00  0.00    +0.000 A 
ENDROOT
BRANCH   1   7
ATOM      7  C   UNL     1      49.439   8.075  13.273  0.00  0.00    +0.000 C 
BRANCH   7   8
ATOM      8  C   UNL     1      50.252   8.488  12.041  0.00  0.00    +0.000 C 
BRANCH   8   9
ATOM      9  N   UNL     1      50.751   7.313  11.326  0.00  0.00    +0.000 NA
ATOM     10  H   UNL     1      51.726   7.155  11.576  0.00  0.00    +0.000 HD
ATOM     11  H   UNL     1      50.742   7.494  10.321  0.00  0.00    +0.000 HD
ENDBRANCH   8   9
ENDBRANCH   7   8
ENDBRANCH   1   7
BRANCH   4  12
ATOM     12  C   UNL     1      44.418   5.430  11.863  0.00  0.00    +0.000 C 
BRANCH  12  13
ATOM     13  N   UNL     1      44.228   5.460  10.418  0.00  0.00    +0.000 N 
ATOM     14  H   UNL     1      44.514   6.349  10.014  0.00  0.00    +0.000 HD
BRANCH  13  15
ATOM     15  C   UNL     1      44.667   4.364   9.662  0.00  0.00    +0.000 A 
ATOM     16  C   UNL     1      45.552   4.473   8.585  0.00  0.00    +0.000 A 
ATOM     17  C   UNL     1      46.018   3.334   7.925  0.00  0.00    +0.000 A 
ATOM     18  C   UNL     1      45.605   2.095   8.377  0.00  0.00    +0.000 A 
ATOM     19  N   UNL     1      44.784   1.925   9.431  0.00  0.00    +0.000 NA
ATOM     20  C   UNL     1      44.358   3.057  10.052  0.00  0.00    +0.000 A 
ENDBRANCH  13  15
ENDBRANCH  12  13
ENDBRANCH   4  12
TORSDOF 6
ENDMDL
MODEL 9
REMARK VINA RESULT:    -5.084      2.934      4.125
REMARK INTER + INTRA:          -7.219
REMARK INTER:                  -6.768
REMARK INTRA:                  -0.451
REMARK UNBOUND:                -0.501
REMARK  Name = 
REMARK  6 active torsions:
REMARK  status: ('A' for Active; 'I' for Inactive)
REMARK    1  A    between atoms: N_1  and  C_2
REMARK    2  A    between atoms: C_2  and  C_3
REMARK    3  A    between atoms: C_3  and  C_4
REMARK    4  A    between atoms: C_7  and  C_8
REMARK    5  A    between atoms: C_8  and  N_9
REMARK    6  A    between atoms: N_9  and  C_10
REMARK                            x       y       z     vdW  Elec       q    Type
REMARK                         _______ _______ _______ _____ _____    ______ ____
ROOT
ATOM      1  C   UNL     1      44.924   3.946   9.730  0.00  0.00    +0.000 A 
ATOM      2  C   UNL     1      45.633   5.123   9.463  0.00  0.00    +0.000 A 
ATOM      3  C   UNL     1      45.966   6.001  10.498  0.00  0.00    +0.000 A 
ATOM      4  C   UNL     1      45.616   5.711  11.825  0.00  0.00    +0.000 A 
ATOM      5  C   UNL     1      44.898   4.538  12.089  0.00  0.00    +0.000 A 
ATOM      6  C   UNL     1      44.561   3.660  11.053  0.00  0.00    +0.000 A 
ENDROOT
BRANCH   1   7
ATOM      7  C   UNL     1      44.554   3.003   8.608  0.00  0.00    +0.000 C 
BRANCH   7   8
ATOM      8  C   UNL     1      45.197   1.620   8.762  0.00  0.00    +0.000 C 
BRANCH   8   9
ATOM      9  N   UNL     1      46.448   1.540   8.008  0.00  0.00    +0.000 NA
ATOM     10  H   UNL     1      47.235   1.635   8.648  0.00  0.00    +0.000 HD
ATOM     11  H   UNL     1      46.511   2.330   7.364  0.00  0.00    +0.000 HD
ENDBRANCH   8   9
ENDBRANCH   7   8
ENDBRANCH   1   7
BRANCH   4  12
ATOM     12  C   UNL     1      46.018   6.648  12.941  0.00  0.00    +0.000 C 
BRANCH  12  13
ATOM     13  N   UNL     1      45.120   7.795  12.990  0.00  0.00    +0.000 N 
ATOM     14  H   UNL     1      44.646   7.871  13.888  0.00  0.00    +0.000 HD
BRANCH  13  15
ATOM     15  C   UNL     1      45.590   9.033  12.529  0.00  0.00    +0.000 A 
ATOM     16  C   UNL     1      46.941   9.314  12.310  0.00  0.00    +0.000 A 
ATOM     17  C   UNL     1      47.338  10.539  11.769  0.00  0.00    +0.000 A 
ATOM     18  C   UNL     1      46.362  11.458  11.432  0.00  0.00    +0.000 A 
ATOM     19  N   UNL     1      45.044  11.230  11.585  0.00  0.00    +0.000 NA
ATOM     20  C   UNL     1      44.697  10.024  12.106  0.00  0.00    +0.000 A 
ENDBRANCH  13  15
ENDBRANCH  12  13
ENDBRANCH   4  12
TORSDOF 6
ENDMDL
