MODEL 1
REMARK VINA RESULT:    -7.715      0.000      0.000
REMARK INTER + INTRA:          -9.468
REMARK INTER:                  -9.068
REMARK INTRA:                  -0.400
REMARK UNBOUND:                -0.400
REMARK  Name = 
REMARK  3 active torsions:
REMARK  status: ('A' for Active; 'I' for Inactive)
REMARK    1  A    between atoms: C_2  and  C_4
REMARK    2  A    between atoms: N_8  and  C_9
REMARK    3  A    between atoms: C_9  and  C_10
REMARK                            x       y       z     vdW  Elec       q    Type
REMARK                         _______ _______ _______ _____ _____    ______ ____
ROOT
ATOM      1  C   UNL     1      46.551   5.000  13.423  0.00  0.00    +0.000 A 
ATOM      2  C   UNL     1      46.800   6.110  12.623  0.00  0.00    +0.000 A 
ATOM      3  C   UNL     1      46.284   6.139  11.324  0.00  0.00    +0.000 A 
ATOM      4  C   UNL     1      45.529   5.067  10.852  0.00  0.00    +0.000 A 
ATOM      5  N   UNL     1      45.049   5.122   9.536  0.00  0.00    +0.000 N 
ATOM      6  N   UNL     1      45.310   3.975  11.613  0.00  0.00    +0.000 NA
ATOM      7  C   UNL     1      45.824   3.958  12.871  0.00  0.00    +0.000 A 
ATOM      8  H   UNL     1      44.579   6.007   9.369  0.00  0.00    +0.000 HD
ENDROOT
BRANCH   1  10
ATOM      9  N   UNL     1      47.859   5.894  15.259  0.00  0.00    +0.000 N 
ATOM     10  C   UNL     1      47.044   4.892  14.809  0.00  0.00    +0.000 C 
ATOM     11  O   UNL     1      46.713   3.965  15.538  0.00  0.00    +0.000 OA
ATOM     12  H   UNL     1      48.122   5.861  16.236  0.00  0.00    +0.000 HD
ATOM     13  H   UNL     1      47.942   6.782  14.783  0.00  0.00    +0.000 HD
ENDBRANCH   1  10
BRANCH   5  14
ATOM     14  C   UNL     1      44.252   3.964   9.122  0.00  0.00    +0.000 C 
BRANCH  14  15
ATOM     15  C   UNL     1      45.004   3.105   8.083  0.00  0.00    +0.000 C 
ATOM     16  C   UNL     1      45.587   1.854   8.768  0.00  0.00    +0.000 C 
ATOM     17  C   UNL     1      46.428   1.006   7.816  0.00  0.00    +0.000 C 
ATOM     18  C   UNL     1      47.533   1.830   7.166  0.00  0.00    +0.000 C 
ATOM     19  C   UNL     1      46.963   3.050   6.453  0.00  0.00    +0.000 C 
ATOM     20  C   UNL     1      46.120   3.909   7.392  0.00  0.00    +0.000 C 
ENDBRANCH  14  15
ENDBRANCH   5  14
TORSDOF 3
ENDMDL
MODEL 2
REMARK VINA RESULT:    -7.456      3.057      6.394
REMARK INTER + INTRA:          -9.163
REMARK INTER:                  -8.849
REMARK INTRA:                  -0.314
REMARK UNBOUND:                -0.400
REMARK  Name = 
REMARK  3 active torsions:
REMARK  status: ('A' for Active; 'I' for Inactive)
REMARK    1  A    between atoms: C_2  and  C_4
REMARK    2  A    between atoms: N_8  and  C_9
REMARK    3  A    between atoms: C_9  and  C_10
REMARK                            x       y       z     vdW  Elec       q    Type
REMARK                         _______ _______ _______ _____ _____    ______ ____
ROOT
ATOM      1  C   UNL     1      46.552   2.587   7.370  0.00  0.00    +0.000 A 
ATOM      2  C   UNL     1      46.037   1.555   8.147  0.00  0.00    +0.000 A 
ATOM      3  C   UNL     1      45.133   1.860   9.167  0.00  0.00    +0.000 A 
ATOM      4  C   UNL     1      44.756   3.183   9.389  0.00  0.00    +0.000 A 
ATOM      5  N   UNL     1      43.865   3.453  10.437  0.00  0.00    +0.000 N 
ATOM      6  N   UNL     1      45.275   4.191   8.659  0.00  0.00    +0.000 NA
ATOM      7  C   UNL     1      46.159   3.881   7.674  0.00  0.00    +0.000 A 
ATOM      8  H   UNL     1      43.055   2.843  10.377  0.00  0.00    +0.000 HD
ENDROOT
BRANCH   1  10
ATOM      9  N   UNL     1      47.411   3.188   5.183  0.00  0.00    +0.000 N 
ATOM     10  C   UNL     1      47.500   2.354   6.264  0.00  0.00    +0.000 C 
ATOM     11  O   UNL     1      48.352   1.477   6.322  0.00  0.00    +0.000 OA
ATOM     12  H   UNL     1      48.120   3.082   4.468  0.00  0.00    +0.000 HD
ATOM     13  H   UNL     1      46.905   4.063   5.212  0.00  0.00    +0.000 HD
ENDBRANCH   1  10
BRANCH   5  14
ATOM     14  C   UNL     1      43.508   4.865  10.595  0.00  0.00    +0.000 C 
BRANCH  14  15
ATOM     15  C   UNL     1      44.224   5.495  11.808  0.00  0.00    +0.000 C 
ATOM     16  C   UNL     1      45.091   6.681  11.342  0.00  0.00    +0.000 C 
ATOM     17  C   UNL     1      45.905   7.293  12.480  0.00  0.00    +0.000 C 
ATOM     18  C   UNL     1      46.758   6.242  13.182  0.00  0.00    +0.000 C 
ATOM     19  C   UNL     1      45.904   5.083  13.680  0.00  0.00    +0.000 C 
ATOM     20  C   UNL     1      45.084   4.459  12.553  0.00  0.00    +0.000 C 
ENDBRANCH  14  15
ENDBRANCH   5  14
TORSDOF 3
ENDMDL
MODEL 3
REMARK VINA RESULT:    -7.152      1.728      2.515
REMARK INTER + INTRA:          -8.807
REMARK INTER:                  -8.748
REMARK INTRA:                  -0.058
REMARK UNBOUND:                -0.400
REMARK  Name = 
REMARK  3 active torsions:
REMARK  status: ('A' for Active; 'I' for Inactive)
REMARK    1  A    between atoms: C_2  and  C_4
REMARK    2  A    between atoms: N_8  and  C_9
REMARK    3  A    between atoms: C_9  and  C_10
REMARK                            x       y       z     vdW  Elec       q    Type
REMARK                         _______ _______ _______ _____ _____    ______ ____
ROOT
ATOM      1  C   UNL     1      45.761   6.120  12.565  0.00  0.00    +0.000 A 
ATOM      2  C   UNL     1      45.702   4.968  13.343  0.00  0.00    +0.000 A 
ATOM      3  C   UNL     1      45.346   3.760  12.739  0.00  0.00    +0.000 A 
ATOM      4  C   UNL     1      45.062   3.721  11.375  0.00  0.00    +0.000 A 
ATOM      5  N   UNL     1      44.685   2.495  10.809  0.00  0.00    +0.000 N 
ATOM      6  N   UNL     1      45.087   4.840  10.622  0.00  0.00    +0.000 NA
ATOM      7  C   UNL     1      45.428   6.010  11.225  0.00  0.00    +0.000 A 
ATOM      8  H   UNL     1      45.347   1.769  11.070  0.00  0.00    +0.000 HD
ENDROOT
BRANCH   1  10
ATOM      9  N   UNL     1      47.273   7.483  13.882  0.00  0.00    +0.000 N 
ATOM     10  C   UNL     1      46.140   7.434  13.117  0.00  0.00    +0.000 C 
ATOM     11  O   UNL     1      45.491   8.444  12.875  0.00  0.00    +0.000 OA
ATOM     12  H   UNL     1      47.578   8.400  14.183  0.00  0.00    +0.000 HD
ATOM     13  H   UNL     1      47.958   6.739  13.888  0.00  0.00    +0.000 HD
ENDBRANCH   1  10
BRANCH   5  14
ATOM     14  C   UNL     1      44.418   2.537   9.369  0.00  0.00    +0.000 C 
BRANCH  14  15
ATOM     15  C   UNL     1      45.729   2.585   8.555  0.00  0.00    +0.000 C 
ATOM     16  C   UNL     1      45.536   3.477   7.313  0.00  0.00    +0.000 C 
ATOM     17  C   UNL     1      46.766   3.493   6.409  0.00  0.00    +0.000 C 
ATOM     18  C   UNL     1      47.177   2.082   6.002  0.00  0.00    +0.000 C 
ATOM     19  C   UNL     1      47.406   1.202   7.224  0.00  0.00    +0.000 C 
ATOM     20  C   UNL     1      46.184   1.175   8.139  0.00  0.00    +0.000 C 
ENDBRANCH  14  15
ENDBRANCH   5  14
TORSDOF 3
ENDMDL
MODEL 4
REMARK VINA RESULT:    -6.029      3.075      7.283
REMARK INTER + INTRA:          -7.487
REMARK INTER:                  -7.200
REMARK INTRA:                  -0.287
REMARK UNBOUND:                -0.400
REMARK  Name = 
REMARK  3 active torsions:
REMARK  status: ('A' for Active; 'I' for Inactive)
REMARK    1  A    between atoms: C_2  and  C_4
REMARK    2  A    between atoms: N_8  and  C_9
REMARK    3  A    between atoms: C_9  and  C_10
REMARK                            x       y       z     vdW  Elec       q    Type
REMARK                         _______ _______ _______ _____ _____    ______ ____
ROOT
ATOM      1  C   UNL     1      45.472   4.908  11.591  0.00  0.00    +0.000 A 
ATOM      2  C   UNL     1      46.204   6.017  12.003  0.00  0.00    +0.000 A 
ATOM      3  C   UNL     1      46.815   5.997  13.259  0.00  0.00    +0.000 A 
ATOM      4  C   UNL     1      46.690   4.874  14.075  0.00  0.00    +0.000 A 
ATOM      5  N   UNL     1      47.297   4.901  15.338  0.00  0.00    +0.000 N 
ATOM      6  N   UNL     1      45.956   3.809  13.694  0.00  0.00    +0.000 NA
ATOM      7  C   UNL     1      45.361   3.845  12.472  0.00  0.00    +0.000 A 
ATOM      8  H   UNL     1      48.267   5.192  15.257  0.00  0.00    +0.000 HD
ENDROOT
BRANCH   1  10
ATOM      9  N   UNL     1      45.552   5.183   9.182  0.00  0.00    +0.000 N 
ATOM     10  C   UNL     1      44.806   4.838  10.276  0.00  0.00    +0.000 C 
ATOM     11  O   UNL     1      43.648   4.456  10.162  0.00  0.00    +0.000 OA
ATOM     12  H   UNL     1      45.119   5.048   8.277  0.00  0.00    +0.000 HD
ATOM     13  H   UNL     1      46.560   5.252   9.212  0.00  0.00    +0.000 HD
ENDBRANCH   1  10
BRANCH   5  14
ATOM     14  C   UNL     1      47.132   3.677  16.128  0.00  0.00    +0.000 C 
BRANCH  14  15
ATOM     15  C   UNL     1      48.326   3.455  17.080  0.00  0.00    +0.000 C 
ATOM     16  C   UNL     1      49.155   4.750  17.183  0.00  0.00    +0.000 C 
ATOM     17  C   UNL     1      50.410   4.574  18.036  0.00  0.00    +0.000 C 
ATOM     18  C   UNL     1      51.269   3.421  17.529  0.00  0.00    +0.000 C 
ATOM     19  C   UNL     1      50.468   2.127  17.459  0.00  0.00    +0.000 C 
ATOM     20  C   UNL     1      49.209   2.287  16.609  0.00  0.00    +0.000 C 
ENDBRANCH  14  15
ENDBRANCH   5  14
TORSDOF 3
ENDMDL
MODEL 5
REMARK VINA RESULT:    -5.614      3.052      7.782
REMARK INTER + INTRA:          -6.999
REMARK INTER:                  -6.742
REMARK INTRA:                  -0.256
REMARK UNBOUND:                -0.400
REMARK  Name = 
REMARK  3 active torsions:
REMARK  status: ('A' for Active; 'I' for Inactive)
REMARK    1  A    between atoms: C_2  and  C_4
REMARK    2  A    between atoms: N_8  and  C_9
REMARK    3  A    between atoms: C_9  and  C_10
REMARK                            x       y       z     vdW  Elec       q    Type
REMARK                         _______ _______ _______ _____ _____    ______ ____
ROOT
ATOM      1  C   UNL     1      45.139   4.225  11.467  0.00  0.00    +0.000 A 
ATOM      2  C   UNL     1      45.712   5.491  11.522  0.00  0.00    +0.000 A 
ATOM      3  C   UNL     1      46.442   5.855  12.657  0.00  0.00    +0.000 A 
ATOM      4  C   UNL     1      46.591   4.952  13.708  0.00  0.00    +0.000 A 
ATOM      5  N   UNL     1      47.310   5.363  14.839  0.00  0.00    +0.000 N 
ATOM      6  N   UNL     1      46.012   3.735  13.672  0.00  0.00    +0.000 NA
ATOM      7  C   UNL     1      45.298   3.397  12.566  0.00  0.00    +0.000 A 
ATOM      8  H   UNL     1      48.204   5.760  14.564  0.00  0.00    +0.000 HD
ENDROOT
BRANCH   1  10
ATOM      9  N   UNL     1      44.475   2.428   9.980  0.00  0.00    +0.000 N 
ATOM     10  C   UNL     1      44.364   3.753  10.304  0.00  0.00    +0.000 C 
ATOM     11  O   UNL     1      43.627   4.502   9.675  0.00  0.00    +0.000 OA
ATOM     12  H   UNL     1      43.875   2.091   9.238  0.00  0.00    +0.000 HD
ATOM     13  H   UNL     1      44.861   1.744  10.615  0.00  0.00    +0.000 HD
ENDBRANCH   1  10
BRANCH   5  14
ATOM     14  C   UNL     1      47.433   4.351  15.892  0.00  0.00    +0.000 C 
BRANCH  14  15
ATOM     15  C   UNL     1      48.107   4.930  17.154  0.00  0.00    +0.000 C 
ATOM     16  C   UNL     1      47.047   5.162  18.248  0.00  0.00    +0.000 C 
ATOM     17  C   UNL     1      47.630   5.825  19.494  0.00  0.00    +0.000 C 
ATOM     18  C   UNL     1      48.344   7.127  19.149  0.00  0.00    +0.000 C 
ATOM     19  C   UNL     1      49.420   6.902  18.094  0.00  0.00    +0.000 C 
ATOM     20  C   UNL     1      48.853   6.239  16.841  0.00  0.00    +0.000 C 
ENDBRANCH  14  15
ENDBRANCH   5  14
TORSDOF 3
ENDMDL
MODEL 6
REMARK VINA RESULT:    -5.590      3.530      6.055
REMARK INTER + INTRA:          -6.970
REMARK INTER:                  -6.725
REMARK INTRA:                  -0.245
REMARK UNBOUND:                -0.400
REMARK  Name = 
REMARK  3 active torsions:
REMARK  status: ('A' for Active; 'I' for Inactive)
REMARK    1  A    between atoms: C_2  and  C_4
REMARK    2  A    between atoms: N_8  and  C_9
REMARK    3  A    between atoms: C_9  and  C_10
REMARK                            x       y       z     vdW  Elec       q    Type
REMARK                         _______ _______ _______ _____ _____    ______ ____
ROOT
ATOM      1  C   UNL     1      44.044   4.137  11.372  0.00  0.00    +0.000 A 
ATOM      2  C   UNL     1      43.181   5.183  11.060  0.00  0.00    +0.000 A 
ATOM      3  C   UNL     1      43.537   6.485  11.421  0.00  0.00    +0.000 A 
ATOM      4  C   UNL     1      44.743   6.719  12.079  0.00  0.00    +0.000 A 
ATOM      5  N   UNL     1      45.054   8.036  12.445  0.00  0.00    +0.000 N 
ATOM      6  N   UNL     1      45.568   5.706  12.411  0.00  0.00    +0.000 NA
ATOM      7  C   UNL     1      45.207   4.444  12.060  0.00  0.00    +0.000 A 
ATOM      8  H   UNL     1      44.939   8.660  11.652  0.00  0.00    +0.000 HD
ENDROOT
BRANCH   1  10
ATOM      9  N   UNL     1      44.474   2.193   9.988  0.00  0.00    +0.000 N 
ATOM     10  C   UNL     1      43.754   2.734  11.017  0.00  0.00    +0.000 C 
ATOM     11  O   UNL     1      42.932   2.072  11.637  0.00  0.00    +0.000 OA
ATOM     12  H   UNL     1      44.336   1.207   9.807  0.00  0.00    +0.000 HD
ATOM     13  H   UNL     1      45.320   2.618   9.634  0.00  0.00    +0.000 HD
ENDBRANCH   1  10
BRANCH   5  14
ATOM     14  C   UNL     1      46.346   8.200  13.119  0.00  0.00    +0.000 C 
BRANCH  14  15
ATOM     15  C   UNL     1      47.471   8.512  12.109  0.00  0.00    +0.000 C 
ATOM     16  C   UNL     1      48.675   7.586  12.371  0.00  0.00    +0.000 C 
ATOM     17  C   UNL     1      49.865   7.905  11.468  0.00  0.00    +0.000 C 
ATOM     18  C   UNL     1      50.274   9.369  11.584  0.00  0.00    +0.000 C 
ATOM     19  C   UNL     1      49.099  10.294  11.290  0.00  0.00    +0.000 C 
ATOM     20  C   UNL     1      47.901   9.987  12.186  0.00  0.00    +0.000 C 
ENDBRANCH  14  15
ENDBRANCH   5  14
TORSDOF 3
ENDMDL
MODEL 7
REMARK VINA RESULT:    -5.110      2.968      6.199
REMARK INTER + INTRA:          -6.405
REMARK INTER:                  -6.636
REMARK INTRA:                   0.231
REMARK UNBOUND:                -0.400
REMARK  Name = 
REMARK  3 active torsions:
REMARK  status: ('A' for Active; 'I' for Inactive)
REMARK    1  A    between atoms: C_2  and  C_4
REMARK    2  A    between atoms: N_8  and  C_9
REMARK    3  A    between atoms: C_9  and  C_10
REMARK                            x       y       z     vdW  Elec       q    Type
REMARK                         _______ _______ _______ _____ _____    ______ ____
ROOT
ATOM      1  C   UNL     1      45.267   2.773   9.041  0.00  0.00    +0.000 A 
ATOM      2  C   UNL     1      44.462   2.285  10.065  0.00  0.00    +0.000 A 
ATOM      3  C   UNL     1      43.769   3.190  10.872  0.00  0.00    +0.000 A 
ATOM      4  C   UNL     1      43.887   4.560  10.642  0.00  0.00    +0.000 A 
ATOM      5  N   UNL     1      43.195   5.437  11.488  0.00  0.00    +0.000 N 
ATOM      6  N   UNL     1      44.690   5.040   9.671  0.00  0.00    +0.000 NA
ATOM      7  C   UNL     1      45.364   4.148   8.897  0.00  0.00    +0.000 A 
ATOM      8  H   UNL     1      42.221   5.158  11.566  0.00  0.00    +0.000 HD
ENDROOT
BRANCH   1  10
ATOM      9  N   UNL     1      46.747   2.492   7.141  0.00  0.00    +0.000 N 
ATOM     10  C   UNL     1      46.022   1.890   8.132  0.00  0.00    +0.000 C 
ATOM     11  O   UNL     1      46.030   0.674   8.278  0.00  0.00    +0.000 OA
ATOM     12  H   UNL     1      47.333   1.889   6.577  0.00  0.00    +0.000 HD
ATOM     13  H   UNL     1      46.966   3.479   7.150  0.00  0.00    +0.000 HD
ENDBRANCH   1  10
BRANCH   5  14
ATOM     14  C   UNL     1      43.360   6.859  11.170  0.00  0.00    +0.000 C 
BRANCH  14  15
ATOM     15  C   UNL     1      44.779   7.353  11.519  0.00  0.00    +0.000 C 
ATOM     16  C   UNL     1      45.251   6.694  12.830  0.00  0.00    +0.000 C 
ATOM     17  C   UNL     1      46.613   7.212  13.287  0.00  0.00    +0.000 C 
ATOM     18  C   UNL     1      46.616   8.732  13.413  0.00  0.00    +0.000 C 
ATOM     19  C   UNL     1      46.188   9.394  12.109  0.00  0.00    +0.000 C 
ATOM     20  C   UNL     1      44.826   8.886  11.639  0.00  0.00    +0.000 C 
ENDBRANCH  14  15
ENDBRANCH   5  14
TORSDOF 3
ENDMDL
MODEL 8
REMARK VINA RESULT:    -4.792      3.494      6.887
REMARK INTER + INTRA:          -6.032
REMARK INTER:                  -5.747
REMARK INTRA:                  -0.286
REMARK UNBOUND:                -0.400
REMARK  Name = 
REMARK  3 active torsions:
REMARK  status: ('A' for Active; 'I' for Inactive)
REMARK    1  A    between atoms: C_2  and  C_4
REMARK    2  A    between atoms: N_8  and  C_9
REMARK    3  A    between atoms: C_9  and  C_10
REMARK                            x       y       z     vdW  Elec       q    Type
REMARK                         _______ _______ _______ _____ _____    ______ ____
ROOT
ATOM      1  C   UNL     1      44.772   4.677  11.908  0.00  0.00    +0.000 A 
ATOM      2  C   UNL     1      45.387   5.272  10.812  0.00  0.00    +0.000 A 
ATOM      3  C   UNL     1      46.329   6.281  11.029  0.00  0.00    +0.000 A 
ATOM      4  C   UNL     1      46.642   6.672  12.330  0.00  0.00    +0.000 A 
ATOM      5  N   UNL     1      47.575   7.704  12.506  0.00  0.00    +0.000 N 
ATOM      6  N   UNL     1      46.027   6.120  13.394  0.00  0.00    +0.000 NA
ATOM      7  C   UNL     1      45.107   5.145  13.169  0.00  0.00    +0.000 A 
ATOM      8  H   UNL     1      48.414   7.517  11.964  0.00  0.00    +0.000 HD
ENDROOT
BRANCH   1  10
ATOM      9  N   UNL     1      43.969   2.475  12.532  0.00  0.00    +0.000 N 
ATOM     10  C   UNL     1      43.776   3.596  11.772  0.00  0.00    +0.000 C 
ATOM     11  O   UNL     1      42.802   3.709  11.039  0.00  0.00    +0.000 OA
ATOM     12  H   UNL     1      43.238   1.776  12.502  0.00  0.00    +0.000 HD
ATOM     13  H   UNL     1      44.602   2.454  13.319  0.00  0.00    +0.000 HD
ENDBRANCH   1  10
BRANCH   5  14
ATOM     14  C   UNL     1      47.860   8.045  13.903  0.00  0.00    +0.000 C 
BRANCH  14  15
ATOM     15  C   UNL     1      49.197   7.432  14.370  0.00  0.00    +0.000 C 
ATOM     16  C   UNL     1      49.046   6.888  15.804  0.00  0.00    +0.000 C 
ATOM     17  C   UNL     1      50.361   6.352  16.367  0.00  0.00    +0.000 C 
ATOM     18  C   UNL     1      51.464   7.403  16.300  0.00  0.00    +0.000 C 
ATOM     19  C   UNL     1      51.647   7.919  14.879  0.00  0.00    +0.000 C 
ATOM     20  C   UNL     1      50.340   8.459  14.302  0.00  0.00    +0.000 C 
ENDBRANCH  14  15
ENDBRANCH   5  14
TORSDOF 3
ENDMDL
