MODEL 1
REMARK VINA RESULT:    -7.640      0.000      0.000
REMARK INTER + INTRA:         -10.391
REMARK INTER:                  -9.874
REMARK INTRA:                  -0.518
REMARK UNBOUND:                -0.518
REMARK  Name = 
REMARK  6 active torsions:
REMARK  status: ('A' for Active; 'I' for Inactive)
REMARK    1  A    between atoms: N_1  and  C_2
REMARK    2  A    between atoms: C_2  and  C_3
REMARK    3  A    between atoms: C_3  and  N_4
REMARK    4  A    between atoms: C_3  and  C_5
REMARK    5  A    between atoms: C_8  and  O_9
REMARK    6  A    between atoms: O_9  and  C_10
REMARK                            x       y       z     vdW  Elec       q    Type
REMARK                         _______ _______ _______ _____ _____    ______ ____
ROOT
ATOM      1  C   UNL     1      46.037   2.431   7.974  0.00  0.00    +0.000 A 
ATOM      2  C   UNL     1      45.256   2.008   9.046  0.00  0.00    +0.000 A 
ATOM      3  C   UNL     1      44.701   2.951   9.907  0.00  0.00    +0.000 A 
ATOM      4  C   UNL     1      44.940   4.296   9.664  0.00  0.00    +0.000 A 
ATOM      5  N   UNL     1      45.683   4.752   8.627  0.00  0.00    +0.000 NA
ATOM      6  C   UNL     1      46.192   3.810   7.798  0.00  0.00    +0.000 A 
ENDROOT
BRANCH   1   7
ATOM      7  C   UNL     1      46.781   1.478   7.065  0.00  0.00    +0.000 C 
BRANCH   7   8
ATOM      8  N   UNL     1      46.886   0.122   7.632  0.00  0.00    +0.000 NA
ATOM      9  H   UNL     1      45.953  -0.278   7.688  0.00  0.00    +0.000 HD
ATOM     10  H   UNL     1      47.156   0.250   8.613  0.00  0.00    +0.000 HD
ENDBRANCH   7   8
BRANCH   7  11
ATOM     11  C   UNL     1      48.190   2.031   6.695  0.00  0.00    +0.000 C 
BRANCH  11  12
ATOM     12  N   UNL     1      48.365   2.176   5.242  0.00  0.00    +0.000 NA
ATOM     13  H   UNL     1      49.363   2.224   5.036  0.00  0.00    +0.000 HD
ATOM     14  H   UNL     1      47.982   3.077   4.953  0.00  0.00    +0.000 HD
ENDBRANCH  11  12
ENDBRANCH   7  11
ENDBRANCH   1   7
BRANCH   4  15
ATOM     15  O   UNL     1      44.542   5.183  10.643  0.00  0.00    +0.000 OA
BRANCH  15  16
ATOM     16  C   UNL     1      45.267   5.277  11.772  0.00  0.00    +0.000 A 
ATOM     17  C   UNL     1      44.819   4.801  12.983  0.00  0.00    +0.000 A 
ATOM     18  N   UNL     1      45.808   5.053  13.899  0.00  0.00    +0.000 N 
ATOM     19  C   UNL     1      46.709   5.948  13.368  0.00  0.00    +0.000 A 
ATOM     20  C   UNL     1      47.693   6.732  13.966  0.00  0.00    +0.000 A 
ATOM     21  C   UNL     1      48.425   7.542  13.103  0.00  0.00    +0.000 A 
ATOM     22  C   UNL     1      48.180   7.481  11.737  0.00  0.00    +0.000 A 
ATOM     23  N   UNL     1      47.215   6.749  11.143  0.00  0.00    +0.000 NA
ATOM     24  C   UNL     1      46.463   6.007  11.995  0.00  0.00    +0.000 A 
ATOM     25  H   UNL     1      45.824   4.711  14.849  0.00  0.00    +0.000 HD
ENDBRANCH  15  16
ENDBRANCH   4  15
TORSDOF 6
ENDMDL
MODEL 2
REMARK VINA RESULT:    -7.551      1.138      1.842
REMARK INTER + INTRA:         -10.276
REMARK INTER:                  -9.824
REMARK INTRA:                  -0.452
REMARK UNBOUND:                -0.518
REMARK  Name = 
REMARK  6 active torsions:
REMARK  status: ('A' for Active; 'I' for Inactive)
REMARK    1  A    between atoms: N_1  and  C_2
REMARK    2  A    between atoms: C_2  and  C_3
REMARK    3  A    between atoms: C_3  and  N_4
REMARK    4  A    between atoms: C_3  and  C_5
REMARK    5  A    between atoms: C_8  and  O_9
REMARK    6  A    between atoms: O_9  and  C_10
REMARK                            x       y       z     vdW  Elec       q    Type
REMARK                         _______ _______ _______ _____ _____    ______ ____
ROOT
ATOM      1  C   UNL     1      45.715   2.368   8.102  0.00  0.00    +0.000 A 
ATOM      2  C   UNL     1      44.958   1.806   9.126  0.00  0.00    +0.000 A 
ATOM      3  C   UNL     1      44.209   2.632   9.961  0.00  0.00    +0.000 A 
ATOM      4  C   UNL     1      44.235   4.000   9.741  0.00  0.00    +0.000 A 
ATOM      5  N   UNL     1      44.947   4.589   8.750  0.00  0.00    +0.000 NA
ATOM      6  C   UNL     1      45.649   3.757   7.944  0.00  0.00    +0.000 A 
ENDROOT
BRANCH   1   7
ATOM      7  C   UNL     1      46.654   1.566   7.230  0.00  0.00    +0.000 C 
BRANCH   7   8
ATOM      8  N   UNL     1      47.122   0.333   7.889  0.00  0.00    +0.000 NA
ATOM      9  H   UNL     1      46.954   0.417   8.887  0.00  0.00    +0.000 HD
ATOM     10  H   UNL     1      48.144   0.348   7.810  0.00  0.00    +0.000 HD
ENDBRANCH   7   8
BRANCH   7  11
ATOM     11  C   UNL     1      47.860   2.428   6.751  0.00  0.00    +0.000 C 
BRANCH  11  12
ATOM     12  N   UNL     1      48.526   1.845   5.577  0.00  0.00    +0.000 NA
ATOM     13  H   UNL     1      49.532   1.821   5.750  0.00  0.00    +0.000 HD
ATOM     14  H   UNL     1      48.401   2.472   4.781  0.00  0.00    +0.000 HD
ENDBRANCH  11  12
ENDBRANCH   7  11
ENDBRANCH   1   7
BRANCH   4  15
ATOM     15  O   UNL     1      43.644   4.795  10.702  0.00  0.00    +0.000 OA
BRANCH  15  16
ATOM     16  C   UNL     1      44.428   5.523  11.518  0.00  0.00    +0.000 A 
ATOM     17  C   UNL     1      44.614   6.877  11.353  0.00  0.00    +0.000 A 
ATOM     18  N   UNL     1      45.453   7.287  12.357  0.00  0.00    +0.000 N 
ATOM     19  C   UNL     1      46.044   6.188  12.939  0.00  0.00    +0.000 A 
ATOM     20  C   UNL     1      47.157   6.069  13.770  0.00  0.00    +0.000 A 
ATOM     21  C   UNL     1      47.475   4.775  14.169  0.00  0.00    +0.000 A 
ATOM     22  C   UNL     1      46.660   3.720  13.779  0.00  0.00    +0.000 A 
ATOM     23  N   UNL     1      45.595   3.812  12.954  0.00  0.00    +0.000 NA
ATOM     24  C   UNL     1      45.325   5.068  12.518  0.00  0.00    +0.000 A 
ATOM     25  H   UNL     1      45.678   8.247  12.574  0.00  0.00    +0.000 HD
ENDBRANCH  15  16
ENDBRANCH   4  15
TORSDOF 6
ENDMDL
MODEL 3
REMARK VINA RESULT:    -7.292      1.668      6.481
REMARK INTER + INTRA:          -9.941
REMARK INTER:                  -9.504
REMARK INTRA:                  -0.437
REMARK UNBOUND:                -0.518
REMARK  Name = 
REMARK  6 active torsions:
REMARK  status: ('A' for Active; 'I' for Inactive)
REMARK    1  A    between atoms: N_1  and  C_2
REMARK    2  A    between atoms: C_2  and  C_3
REMARK    3  A    between atoms: C_3  and  N_4
REMARK    4  A    between atoms: C_3  and  C_5
REMARK    5  A    between atoms: C_8  and  O_9
REMARK    6  A    between atoms: O_9  and  C_10
REMARK                            x       y       z     vdW  Elec       q    Type
REMARK                         _______ _______ _______ _____ _____    ______ ____
ROOT
ATOM      1  C   UNL     1      46.995   6.331  13.106  0.00  0.00    +0.000 A 
ATOM      2  C   UNL     1      46.994   6.835  11.809  0.00  0.00    +0.000 A 
ATOM      3  C   UNL     1      45.995   6.443  10.920  0.00  0.00    +0.000 A 
ATOM      4  C   UNL     1      45.019   5.562  11.362  0.00  0.00    +0.000 A 
ATOM      5  N   UNL     1      44.975   5.058  12.619  0.00  0.00    +0.000 NA
ATOM      6  C   UNL     1      45.949   5.473  13.463  0.00  0.00    +0.000 A 
ENDROOT
BRANCH   1   7
ATOM      7  C   UNL     1      48.105   6.600  14.097  0.00  0.00    +0.000 C 
BRANCH   7   8
ATOM      8  N   UNL     1      47.848   5.988  15.414  0.00  0.00    +0.000 NA
ATOM      9  H   UNL     1      48.071   4.999  15.359  0.00  0.00    +0.000 HD
ATOM     10  H   UNL     1      46.830   6.004  15.533  0.00  0.00    +0.000 HD
ENDBRANCH   7   8
BRANCH   7  11
ATOM     11  C   UNL     1      48.379   8.127  14.243  0.00  0.00    +0.000 C 
BRANCH  11  12
ATOM     12  N   UNL     1      47.224   8.847  14.800  0.00  0.00    +0.000 NA
ATOM     13  H   UNL     1      47.176   9.770  14.368  0.00  0.00    +0.000 HD
ATOM     14  H   UNL     1      47.390   9.017  15.793  0.00  0.00    +0.000 HD
ENDBRANCH  11  12
ENDBRANCH   7  11
ENDBRANCH   1   7
BRANCH   4  15
ATOM     15  O   UNL     1      44.168   5.048  10.405  0.00  0.00    +0.000 OA
BRANCH  15  16
ATOM     16  C   UNL     1      44.454   3.855   9.852  0.00  0.00    +0.000 A 
ATOM     17  C   UNL     1      44.074   2.663  10.425  0.00  0.00    +0.000 A 
ATOM     18  N   UNL     1      44.518   1.665   9.595  0.00  0.00    +0.000 N 
ATOM     19  C   UNL     1      45.430   2.181   8.703  0.00  0.00    +0.000 A 
ATOM     20  C   UNL     1      46.365   1.562   7.875  0.00  0.00    +0.000 A 
ATOM     21  C   UNL     1      47.140   2.416   7.097  0.00  0.00    +0.000 A 
ATOM     22  C   UNL     1      46.905   3.784   7.145  0.00  0.00    +0.000 A 
ATOM     23  N   UNL     1      46.024   4.404   7.958  0.00  0.00    +0.000 NA
ATOM     24  C   UNL     1      45.313   3.571   8.760  0.00  0.00    +0.000 A 
ATOM     25  H   UNL     1      44.286   0.686   9.685  0.00  0.00    +0.000 HD
ENDBRANCH  15  16
ENDBRANCH   4  15
TORSDOF 6
ENDMDL
MODEL 4
REMARK VINA RESULT:    -6.872      1.923      2.160
REMARK INTER + INTRA:          -9.398
REMARK INTER:                  -8.950
REMARK INTRA:                  -0.449
REMARK UNBOUND:                -0.518
REMARK  Name = 
REMARK  6 active torsions:
REMARK  status: ('A' for Active; 'I' for Inactive)
REMARK    1  A    between atoms: N_1  and  C_2
REMARK    2  A    between atoms: C_2  and  C_3
REMARK    3  A    between atoms: C_3  and  N_4
REMARK    4  A    between atoms: C_3  and  C_5
REMARK    5  A    between atoms: C_8  and  O_9
REMARK    6  A    between atoms: O_9  and  C_10
REMARK                            x       y       z     vdW  Elec       q    Type
REMARK                         _______ _______ _______ _____ _____    ______ ____
ROOT
ATOM      1  C   UNL     1      45.948   2.623   7.960  0.00  0.00    +0.000 A 
ATOM      2  C   UNL     1      46.114   4.005   7.970  0.00  0.00    +0.000 A 
ATOM      3  C   UNL     1      45.574   4.754   9.013  0.00  0.00    +0.000 A 
ATOM      4  C   UNL     1      44.888   4.094  10.022  0.00  0.00    +0.000 A 
ATOM      5  N   UNL     1      44.713   2.750  10.057  0.00  0.00    +0.000 NA
ATOM      6  C   UNL     1      45.267   2.050   9.039  0.00  0.00    +0.000 A 
ENDROOT
BRANCH   1   7
ATOM      7  C   UNL     1      46.387   1.745   6.809  0.00  0.00    +0.000 C 
BRANCH   7   8
ATOM      8  N   UNL     1      47.158   0.571   7.256  0.00  0.00    +0.000 NA
ATOM      9  H   UNL     1      48.146   0.759   7.110  0.00  0.00    +0.000 HD
ATOM     10  H   UNL     1      46.948  -0.172   6.583  0.00  0.00    +0.000 HD
ENDBRANCH   7   8
BRANCH   7  11
ATOM     11  C   UNL     1      47.187   2.559   5.748  0.00  0.00    +0.000 C 
BRANCH  11  12
ATOM     12  N   UNL     1      48.591   2.126   5.660  0.00  0.00    +0.000 NA
ATOM     13  H   UNL     1      48.735   1.668   4.760  0.00  0.00    +0.000 HD
ATOM     14  H   UNL     1      48.757   1.405   6.364  0.00  0.00    +0.000 HD
ENDBRANCH  11  12
ENDBRANCH   7  11
ENDBRANCH   1   7
BRANCH   4  15
ATOM     15  O   UNL     1      44.204   4.881  10.926  0.00  0.00    +0.000 OA
BRANCH  15  16
ATOM     16  C   UNL     1      44.897   5.731  11.705  0.00  0.00    +0.000 A 
ATOM     17  C   UNL     1      45.565   5.322  12.836  0.00  0.00    +0.000 A 
ATOM     18  N   UNL     1      46.162   6.437  13.368  0.00  0.00    +0.000 N 
ATOM     19  C   UNL     1      45.625   7.565  12.791  0.00  0.00    +0.000 A 
ATOM     20  C   UNL     1      45.664   8.905  13.172  0.00  0.00    +0.000 A 
ATOM     21  C   UNL     1      44.990   9.789  12.335  0.00  0.00    +0.000 A 
ATOM     22  C   UNL     1      44.388   9.310  11.179  0.00  0.00    +0.000 A 
ATOM     23  N   UNL     1      44.317   8.014  10.808  0.00  0.00    +0.000 NA
ATOM     24  C   UNL     1      44.923   7.149  11.659  0.00  0.00    +0.000 A 
ATOM     25  H   UNL     1      46.822   6.436  14.133  0.00  0.00    +0.000 HD
ENDBRANCH  15  16
ENDBRANCH   4  15
TORSDOF 6
ENDMDL
MODEL 5
REMARK VINA RESULT:    -6.175      1.555      2.275
REMARK INTER + INTRA:          -8.498
REMARK INTER:                  -8.699
REMARK INTRA:                   0.202
REMARK UNBOUND:                -0.518
REMARK  Name = 
REMARK  6 active torsions:
REMARK  status: ('A' for Active; 'I' for Inactive)
REMARK    1  A    between atoms: N_1  and  C_2
REMARK    2  A    between atoms: C_2  and  C_3
REMARK    3  A    between atoms: C_3  and  N_4
REMARK    4  A    between atoms: C_3  and  C_5
REMARK    5  A    between atoms: C_8  and  O_9
REMARK    6  A    between atoms: O_9  and  C_10
REMARK                            x       y       z     vdW  Elec       q    Type
REMARK                         _______ _______ _______ _____ _____    ______ ____
ROOT
ATOM      1  C   UNL     1      46.565   2.292   7.798  0.00  0.00    +0.000 A 
ATOM      2  C   UNL     1      46.489   3.644   7.477  0.00  0.00    +0.000 A 
ATOM      3  C   UNL     1      45.548   4.450   8.114  0.00  0.00    +0.000 A 
ATOM      4  C   UNL     1      44.714   3.878   9.062  0.00  0.00    +0.000 A 
ATOM      5  N   UNL     1      44.762   2.570   9.414  0.00  0.00    +0.000 NA
ATOM      6  C   UNL     1      45.700   1.818   8.791  0.00  0.00    +0.000 A 
ENDROOT
BRANCH   1   7
ATOM      7  C   UNL     1      47.464   1.317   7.071  0.00  0.00    +0.000 C 
BRANCH   7   8
ATOM      8  N   UNL     1      48.182   1.943   5.946  0.00  0.00    +0.000 NA
ATOM      9  H   UNL     1      48.868   2.592   6.321  0.00  0.00    +0.000 HD
ATOM     10  H   UNL     1      47.498   2.549   5.482  0.00  0.00    +0.000 HD
ENDBRANCH   7   8
BRANCH   7  11
ATOM     11  C   UNL     1      46.673   0.063   6.592  0.00  0.00    +0.000 C 
BRANCH  11  12
ATOM     12  N   UNL     1      46.731  -1.035   7.569  0.00  0.00    +0.000 NA
ATOM     13  H   UNL     1      45.778  -1.328   7.787  0.00  0.00    +0.000 HD
ATOM     14  H   UNL     1      47.114  -0.676   8.444  0.00  0.00    +0.000 HD
ENDBRANCH  11  12
ENDBRANCH   7  11
ENDBRANCH   1   7
BRANCH   4  15
ATOM     15  O   UNL     1      43.672   4.656   9.524  0.00  0.00    +0.000 OA
BRANCH  15  16
ATOM     16  C   UNL     1      43.782   5.243  10.730  0.00  0.00    +0.000 A 
ATOM     17  C   UNL     1      42.695   5.485  11.537  0.00  0.00    +0.000 A 
ATOM     18  N   UNL     1      43.173   6.077  12.679  0.00  0.00    +0.000 N 
ATOM     19  C   UNL     1      44.467   6.498  12.471  0.00  0.00    +0.000 A 
ATOM     20  C   UNL     1      45.274   7.386  13.179  0.00  0.00    +0.000 A 
ATOM     21  C   UNL     1      46.551   7.581  12.663  0.00  0.00    +0.000 A 
ATOM     22  C   UNL     1      46.954   6.860  11.546  0.00  0.00    +0.000 A 
ATOM     23  N   UNL     1      46.179   6.017  10.833  0.00  0.00    +0.000 NA
ATOM     24  C   UNL     1      44.914   5.876  11.303  0.00  0.00    +0.000 A 
ATOM     25  H   UNL     1      42.631   6.262  13.510  0.00  0.00    +0.000 HD
ENDBRANCH  15  16
ENDBRANCH   4  15
TORSDOF 6
ENDMDL
MODEL 6
REMARK VINA RESULT:    -5.992      2.331      6.259
REMARK INTER + INTRA:          -8.260
REMARK INTER:                  -7.985
REMARK INTRA:                  -0.276
REMARK UNBOUND:                -0.518
REMARK  Name = 
REMARK  6 active torsions:
REMARK  status: ('A' for Active; 'I' for Inactive)
REMARK    1  A    between atoms: N_1  and  C_2
REMARK    2  A    between atoms: C_2  and  C_3
REMARK    3  A    between atoms: C_3  and  N_4
REMARK    4  A    between atoms: C_3  and  C_5
REMARK    5  A    between atoms: C_8  and  O_9
REMARK    6  A    between atoms: O_9  and  C_10
REMARK                            x       y       z     vdW  Elec       q    Type
REMARK                         _______ _______ _______ _____ _____    ______ ____
ROOT
ATOM      1  C   UNL     1      48.230   7.340  12.649  0.00  0.00    +0.000 A 
ATOM      2  C   UNL     1      48.036   6.048  13.129  0.00  0.00    +0.000 A 
ATOM      3  C   UNL     1      46.780   5.456  13.017  0.00  0.00    +0.000 A 
ATOM      4  C   UNL     1      45.755   6.174  12.420  0.00  0.00    +0.000 A 
ATOM      5  N   UNL     1      45.904   7.429  11.929  0.00  0.00    +0.000 NA
ATOM      6  C   UNL     1      47.141   7.969  12.036  0.00  0.00    +0.000 A 
ENDROOT
BRANCH   1   7
ATOM      7  C   UNL     1      49.519   8.109  12.839  0.00  0.00    +0.000 C 
BRANCH   7   8
ATOM      8  N   UNL     1      50.619   7.581  12.012  0.00  0.00    +0.000 NA
ATOM      9  H   UNL     1      51.381   7.307  12.624  0.00  0.00    +0.000 HD
ATOM     10  H   UNL     1      50.993   8.387  11.500  0.00  0.00    +0.000 HD
ENDBRANCH   7   8
BRANCH   7  11
ATOM     11  C   UNL     1      49.934   8.158  14.340  0.00  0.00    +0.000 C 
BRANCH  11  12
ATOM     12  N   UNL     1      51.274   7.595  14.564  0.00  0.00    +0.000 NA
ATOM     13  H   UNL     1      51.549   7.782  15.529  0.00  0.00    +0.000 HD
ATOM     14  H   UNL     1      51.945   8.102  13.985  0.00  0.00    +0.000 HD
ENDBRANCH  11  12
ENDBRANCH   7  11
ENDBRANCH   1   7
BRANCH   4  15
ATOM     15  O   UNL     1      44.487   5.636  12.505  0.00  0.00    +0.000 OA
BRANCH  15  16
ATOM     16  C   UNL     1      44.211   4.510  11.822  0.00  0.00    +0.000 A 
ATOM     17  C   UNL     1      43.676   3.392  12.421  0.00  0.00    +0.000 A 
ATOM     18  N   UNL     1      43.518   2.452  11.435  0.00  0.00    +0.000 N 
ATOM     19  C   UNL     1      44.228   2.832  10.319  0.00  0.00    +0.000 A 
ATOM     20  C   UNL     1      44.628   2.118   9.192  0.00  0.00    +0.000 A 
ATOM     21  C   UNL     1      45.353   2.838   8.248  0.00  0.00    +0.000 A 
ATOM     22  C   UNL     1      45.576   4.194   8.449  0.00  0.00    +0.000 A 
ATOM     23  N   UNL     1      45.219   4.897   9.545  0.00  0.00    +0.000 NA
ATOM     24  C   UNL     1      44.566   4.175  10.490  0.00  0.00    +0.000 A 
ATOM     25  H   UNL     1      43.035   1.571  11.542  0.00  0.00    +0.000 HD
ENDBRANCH  15  16
ENDBRANCH   4  15
TORSDOF 6
ENDMDL
MODEL 7
REMARK VINA RESULT:    -5.936      4.083      6.241
REMARK INTER + INTRA:          -8.189
REMARK INTER:                  -7.735
REMARK INTRA:                  -0.454
REMARK UNBOUND:                -0.518
REMARK  Name = 
REMARK  6 active torsions:
REMARK  status: ('A' for Active; 'I' for Inactive)
REMARK    1  A    between atoms: N_1  and  C_2
REMARK    2  A    between atoms: C_2  and  C_3
REMARK    3  A    between atoms: C_3  and  N_4
REMARK    4  A    between atoms: C_3  and  C_5
REMARK    5  A    between atoms: C_8  and  O_9
REMARK    6  A    between atoms: O_9  and  C_10
REMARK                            x       y       z     vdW  Elec       q    Type
REMARK                         _______ _______ _______ _____ _____    ______ ____
ROOT
ATOM      1  C   UNL     1      45.005   5.790  12.596  0.00  0.00    +0.000 A 
ATOM      2  C   UNL     1      45.774   6.917  12.321  0.00  0.00    +0.000 A 
ATOM      3  C   UNL     1      47.066   7.008  12.834  0.00  0.00    +0.000 A 
ATOM      4  C   UNL     1      47.553   5.962  13.603  0.00  0.00    +0.000 A 
ATOM      5  N   UNL     1      46.843   4.842  13.885  0.00  0.00    +0.000 NA
ATOM      6  C   UNL     1      45.599   4.776  13.355  0.00  0.00    +0.000 A 
ENDROOT
BRANCH   1   7
ATOM      7  C   UNL     1      43.554   5.659  12.189  0.00  0.00    +0.000 C 
BRANCH   7   8
ATOM      8  N   UNL     1      42.680   5.302  13.321  0.00  0.00    +0.000 NA
ATOM      9  H   UNL     1      42.852   4.331  13.568  0.00  0.00    +0.000 HD
ATOM     10  H   UNL     1      41.727   5.293  12.944  0.00  0.00    +0.000 HD
ENDBRANCH   7   8
BRANCH   7  11
ATOM     11  C   UNL     1      43.382   4.646  11.018  0.00  0.00    +0.000 C 
BRANCH  11  12
ATOM     12  N   UNL     1      42.904   3.335  11.484  0.00  0.00    +0.000 NA
ATOM     13  H   UNL     1      42.069   3.085  10.954  0.00  0.00    +0.000 HD
ATOM     14  H   UNL     1      42.596   3.423  12.454  0.00  0.00    +0.000 HD
ENDBRANCH  11  12
ENDBRANCH   7  11
ENDBRANCH   1   7
BRANCH   4  15
ATOM     15  O   UNL     1      48.752   6.174  14.253  0.00  0.00    +0.000 OA
BRANCH  15  16
ATOM     16  C   UNL     1      48.739   6.468  15.566  0.00  0.00    +0.000 A 
ATOM     17  C   UNL     1      48.854   7.756  16.038  0.00  0.00    +0.000 A 
ATOM     18  N   UNL     1      48.791   7.683  17.406  0.00  0.00    +0.000 N 
ATOM     19  C   UNL     1      48.963   6.377  17.805  0.00  0.00    +0.000 A 
ATOM     20  C   UNL     1      49.270   5.824  19.047  0.00  0.00    +0.000 A 
ATOM     21  C   UNL     1      49.375   4.437  19.079  0.00  0.00    +0.000 A 
ATOM     22  C   UNL     1      49.119   3.706  17.926  0.00  0.00    +0.000 A 
ATOM     23  N   UNL     1      48.847   4.225  16.710  0.00  0.00    +0.000 NA
ATOM     24  C   UNL     1      48.806   5.580  16.670  0.00  0.00    +0.000 A 
ATOM     25  H   UNL     1      48.726   8.475  18.030  0.00  0.00    +0.000 HD
ENDBRANCH  15  16
ENDBRANCH   4  15
TORSDOF 6
ENDMDL
MODEL 8
REMARK VINA RESULT:    -5.659      4.236      5.961
REMARK INTER + INTRA:          -7.830
REMARK INTER:                  -7.352
REMARK INTRA:                  -0.479
REMARK UNBOUND:                -0.518
REMARK  Name = 
REMARK  6 active torsions:
REMARK  status: ('A' for Active; 'I' for Inactive)
REMARK    1  A    between atoms: N_1  and  C_2
REMARK    2  A    between atoms: C_2  and  C_3
REMARK    3  A    between atoms: C_3  and  N_4
REMARK    4  A    between atoms: C_3  and  C_5
REMARK    5  A    between atoms: C_8  and  O_9
REMARK    6  A    between atoms: O_9  and  C_10
REMARK                            x       y       z     vdW  Elec       q    Type
REMARK                         _______ _______ _______ _____ _____    ______ ____
ROOT
ATOM      1  C   UNL     1      45.331   5.186  12.206  0.00  0.00    +0.000 A 
ATOM      2  C   UNL     1      45.590   3.855  12.519  0.00  0.00    +0.000 A 
ATOM      3  C   UNL     1      46.487   3.552  13.542  0.00  0.00    +0.000 A 
ATOM      4  C   UNL     1      47.093   4.594  14.227  0.00  0.00    +0.000 A 
ATOM      5  N   UNL     1      46.860   5.903  13.963  0.00  0.00    +0.000 NA
ATOM      6  C   UNL     1      45.969   6.163  12.977  0.00  0.00    +0.000 A 
ENDROOT
BRANCH   1   7
ATOM      7  C   UNL     1      44.473   5.608  11.034  0.00  0.00    +0.000 C 
BRANCH   7   8
ATOM      8  N   UNL     1      44.500   7.064  10.809  0.00  0.00    +0.000 NA
ATOM      9  H   UNL     1      45.361   7.300  10.323  0.00  0.00    +0.000 HD
ATOM     10  H   UNL     1      44.619   7.486  11.736  0.00  0.00    +0.000 HD
ENDBRANCH   7   8
BRANCH   7  11
ATOM     11  C   UNL     1      43.008   5.101  11.191  0.00  0.00    +0.000 C 
BRANCH  11  12
ATOM     12  N   UNL     1      42.127   6.125  11.774  0.00  0.00    +0.000 NA
ATOM     13  H   UNL     1      42.592   6.532  12.586  0.00  0.00    +0.000 HD
ATOM     14  H   UNL     1      41.289   5.669  12.138  0.00  0.00    +0.000 HD
ENDBRANCH  11  12
ENDBRANCH   7  11
ENDBRANCH   1   7
BRANCH   4  15
ATOM     15  O   UNL     1      48.115   4.258  15.091  0.00  0.00    +0.000 OA
BRANCH  15  16
ATOM     16  C   UNL     1      47.932   4.429  16.413  0.00  0.00    +0.000 A 
ATOM     17  C   UNL     1      47.248   3.523  17.190  0.00  0.00    +0.000 A 
ATOM     18  N   UNL     1      47.266   4.007  18.473  0.00  0.00    +0.000 N 
ATOM     19  C   UNL     1      47.655   5.327  18.460  0.00  0.00    +0.000 A 
ATOM     20  C   UNL     1      47.554   6.329  19.424  0.00  0.00    +0.000 A 
ATOM     21  C   UNL     1      48.057   7.572  19.055  0.00  0.00    +0.000 A 
ATOM     22  C   UNL     1      48.662   7.723  17.814  0.00  0.00    +0.000 A 
ATOM     23  N   UNL     1      48.746   6.773  16.859  0.00  0.00    +0.000 NA
ATOM     24  C   UNL     1      48.199   5.579  17.200  0.00  0.00    +0.000 A 
ATOM     25  H   UNL     1      46.950   3.504  19.290  0.00  0.00    +0.000 HD
ENDBRANCH  15  16
ENDBRANCH   4  15
TORSDOF 6
ENDMDL
MODEL 9
REMARK VINA RESULT:    -5.582      3.926      8.193
REMARK INTER + INTRA:          -7.731
REMARK INTER:                  -7.277
REMARK INTRA:                  -0.454
REMARK UNBOUND:                -0.518
REMARK  Name = 
REMARK  6 active torsions:
REMARK  status: ('A' for Active; 'I' for Inactive)
REMARK    1  A    between atoms: N_1  and  C_2
REMARK    2  A    between atoms: C_2  and  C_3
REMARK    3  A    between atoms: C_3  and  N_4
REMARK    4  A    between atoms: C_3  and  C_5
REMARK    5  A    between atoms: C_8  and  O_9
REMARK    6  A    between atoms: O_9  and  C_10
REMARK                            x       y       z     vdW  Elec       q    Type
REMARK                         _______ _______ _______ _____ _____    ______ ____
ROOT
ATOM      1  C   UNL     1      48.350   5.015  17.550  0.00  0.00    +0.000 A 
ATOM      2  C   UNL     1      48.885   6.070  16.817  0.00  0.00    +0.000 A 
ATOM      3  C   UNL     1      48.566   6.201  15.467  0.00  0.00    +0.000 A 
ATOM      4  C   UNL     1      47.713   5.272  14.891  0.00  0.00    +0.000 A 
ATOM      5  N   UNL     1      47.160   4.238  15.570  0.00  0.00    +0.000 NA
ATOM      6  C   UNL     1      47.474   4.150  16.884  0.00  0.00    +0.000 A 
ENDROOT
BRANCH   1   7
ATOM      7  C   UNL     1      48.737   4.722  18.982  0.00  0.00    +0.000 C 
BRANCH   7   8
ATOM      8  N   UNL     1      48.238   3.415  19.446  0.00  0.00    +0.000 NA
ATOM      9  H   UNL     1      47.228   3.398  19.337  0.00  0.00    +0.000 HD
ATOM     10  H   UNL     1      48.375   3.409  20.461  0.00  0.00    +0.000 HD
ENDBRANCH   7   8
BRANCH   7  11
ATOM     11  C   UNL     1      48.275   5.860  19.940  0.00  0.00    +0.000 C 
BRANCH  11  12
ATOM     12  N   UNL     1      47.170   5.436  20.813  0.00  0.00    +0.000 NA
ATOM     13  H   UNL     1      46.300   5.831  20.453  0.00  0.00    +0.000 HD
ATOM     14  H   UNL     1      47.300   5.854  21.735  0.00  0.00    +0.000 HD
ENDBRANCH  11  12
ENDBRANCH   7  11
ENDBRANCH   1   7
BRANCH   4  15
ATOM     15  O   UNL     1      47.578   5.319  13.519  0.00  0.00    +0.000 OA
BRANCH  15  16
ATOM     16  C   UNL     1      46.409   5.726  12.992  0.00  0.00    +0.000 A 
ATOM     17  C   UNL     1      45.974   7.029  13.073  0.00  0.00    +0.000 A 
ATOM     18  N   UNL     1      44.765   7.084  12.427  0.00  0.00    +0.000 N 
ATOM     19  C   UNL     1      44.290   5.807  12.232  0.00  0.00    +0.000 A 
ATOM     20  C   UNL     1      43.021   5.334  11.905  0.00  0.00    +0.000 A 
ATOM     21  C   UNL     1      42.904   3.952  11.794  0.00  0.00    +0.000 A 
ATOM     22  C   UNL     1      44.031   3.156  11.952  0.00  0.00    +0.000 A 
ATOM     23  N   UNL     1      45.261   3.594  12.295  0.00  0.00    +0.000 NA
ATOM     24  C   UNL     1      45.357   4.936  12.462  0.00  0.00    +0.000 A 
ATOM     25  H   UNL     1      44.256   7.930  12.214  0.00  0.00    +0.000 HD
ENDBRANCH  15  16
ENDBRANCH   4  15
TORSDOF 6
ENDMDL
