MODEL 1
REMARK VINA RESULT:    -9.439      0.000      0.000
REMARK INTER + INTRA:         -14.338
REMARK INTER:                 -13.302
REMARK INTRA:                  -1.036
REMARK UNBOUND:                -1.036
REMARK  Name = 
REMARK  8 active torsions:
REMARK  status: ('A' for Active; 'I' for Inactive)
REMARK    1  A    between atoms: N_1  and  C_2
REMARK    2  A    between atoms: C_4  and  C_5
REMARK    3  A    between atoms: C_5  and  N_6
REMARK    4  A    between atoms: C_7  and  C_9
REMARK    5  A    between atoms: C_21  and  C_22
REMARK    6  A    between atoms: C_22  and  N_23
REMARK    7  A    between atoms: C_27  and  C_28
REMARK    8  A    between atoms: C_28  and  O_29
REMARK                            x       y       z     vdW  Elec       q    Type
REMARK                         _______ _______ _______ _____ _____    ______ ____
ROOT
ATOM      1  C   UNL     1      45.612   4.423  12.648  0.00  0.00    +0.000 A 
ATOM      2  C   UNL     1      46.710   4.960  13.340  0.00  0.00    +0.000 A 
ATOM      3  C   UNL     1      47.207   6.241  13.061  0.00  0.00    +0.000 A 
ATOM      4  C   UNL     1      46.582   7.001  12.071  0.00  0.00    +0.000 A 
ATOM      5  C   UNL     1      45.502   6.476  11.359  0.00  0.00    +0.000 A 
ATOM      6  C   UNL     1      45.021   5.177  11.614  0.00  0.00    +0.000 A 
ENDROOT
BRANCH   1   7
ATOM      7  N   UNL     1      45.315   3.062  12.849  0.00  0.00    +0.000 N 
ATOM      8  H   UNL     1      44.807   2.897  13.715  0.00  0.00    +0.000 HD
ATOM      9  H   UNL     1      44.848   2.623  12.062  0.00  0.00    +0.000 HD
ENDBRANCH   1   7
BRANCH   3  10
ATOM     10  C   UNL     1      48.393   6.773  13.817  0.00  0.00    +0.000 C 
BRANCH  10  11
ATOM     11  N   UNL     1      48.128   6.866  15.230  0.00  0.00    +0.000 N 
ATOM     12  C   UNL     1      49.063   6.555  16.181  0.00  0.00    +0.000 C 
ATOM     13  O   UNL     1      50.191   6.162  15.891  0.00  0.00    +0.000 OA
ATOM     14  H   UNL     1      47.161   6.998  15.504  0.00  0.00    +0.000 HD
BRANCH  12  15
ATOM     15  C   UNL     1      48.677   6.791  17.580  0.00  0.00    +0.000 A 
ATOM     16  C   UNL     1      48.352   8.078  17.988  0.00  0.00    +0.000 A 
ATOM     17  S   UNL     1      47.889   8.182  19.626  0.00  0.00    +0.000 S 
ATOM     18  C   UNL     1      48.151   6.515  19.860  0.00  0.00    +0.000 A 
ATOM     19  N   UNL     1      47.960   5.946  21.080  0.00  0.00    +0.000 NA
ATOM     20  C   UNL     1      48.228   4.684  21.130  0.00  0.00    +0.000 A 
ATOM     21  N   UNL     1      48.653   3.937  20.058  0.00  0.00    +0.000 N 
ATOM     22  C   UNL     1      48.793   4.456  18.794  0.00  0.00    +0.000 A 
ATOM     23  O   UNL     1      49.057   3.733  17.836  0.00  0.00    +0.000 OA
ATOM     24  C   UNL     1      48.555   5.881  18.701  0.00  0.00    +0.000 A 
ATOM     25  H   UNL     1      48.818   2.943  20.156  0.00  0.00    +0.000 HD
ENDBRANCH  12  15
ENDBRANCH  10  11
ENDBRANCH   3  10
BRANCH   6  26
ATOM     26  C   UNL     1      43.857   4.669  10.785  0.00  0.00    +0.000 C 
BRANCH  26  27
ATOM     27  N   UNL     1      44.189   4.740   9.373  0.00  0.00    +0.000 N 
ATOM     28  C   UNL     1      45.036   3.822   8.785  0.00  0.00    +0.000 A 
ATOM     29  C   UNL     1      45.097   2.483   9.149  0.00  0.00    +0.000 A 
ATOM     30  C   UNL     1      45.931   1.609   8.446  0.00  0.00    +0.000 A 
ATOM     31  C   UNL     1      46.692   2.082   7.380  0.00  0.00    +0.000 A 
ATOM     32  C   UNL     1      46.547   3.426   7.066  0.00  0.00    +0.000 A 
ATOM     33  N   UNL     1      45.756   4.294   7.748  0.00  0.00    +0.000 NA
ATOM     34  H   UNL     1      44.445   5.663   9.033  0.00  0.00    +0.000 HD
BRANCH  31  35
ATOM     35  C   UNL     1      47.563   1.191   6.541  0.00  0.00    +0.000 C 
BRANCH  35  36
ATOM     36  O   UNL     1      48.603   1.920   5.900  0.00  0.00    +0.000 OA
ATOM     37  H   UNL     1      48.187   2.447   5.196  0.00  0.00    +0.000 HD
ENDBRANCH  35  36
ENDBRANCH  31  35
ENDBRANCH  26  27
ENDBRANCH   6  26
TORSDOF 8
ENDMDL
MODEL 2
REMARK VINA RESULT:    -9.432      1.712      2.132
REMARK INTER + INTRA:         -14.327
REMARK INTER:                 -13.181
REMARK INTRA:                  -1.146
REMARK UNBOUND:                -1.036
REMARK  Name = 
REMARK  8 active torsions:
REMARK  status: ('A' for Active; 'I' for Inactive)
REMARK    1  A    between atoms: N_1  and  C_2
REMARK    2  A    between atoms: C_4  and  C_5
REMARK    3  A    between atoms: C_5  and  N_6
REMARK    4  A    between atoms: C_7  and  C_9
REMARK    5  A    between atoms: C_21  and  C_22
REMARK    6  A    between atoms: C_22  and  N_23
REMARK    7  A    between atoms: C_27  and  C_28
REMARK    8  A    between atoms: C_28  and  O_29
REMARK                            x       y       z     vdW  Elec       q    Type
REMARK                         _______ _______ _______ _____ _____    ______ ____
ROOT
ATOM      1  C   UNL     1      44.370   7.123  11.442  0.00  0.00    +0.000 A 
ATOM      2  C   UNL     1      45.256   7.907  12.200  0.00  0.00    +0.000 A 
ATOM      3  C   UNL     1      46.387   7.357  12.821  0.00  0.00    +0.000 A 
ATOM      4  C   UNL     1      46.637   5.992  12.669  0.00  0.00    +0.000 A 
ATOM      5  C   UNL     1      45.757   5.194  11.937  0.00  0.00    +0.000 A 
ATOM      6  C   UNL     1      44.602   5.736  11.339  0.00  0.00    +0.000 A 
ENDROOT
BRANCH   1   7
ATOM      7  N   UNL     1      43.161   7.715  11.032  0.00  0.00    +0.000 N 
ATOM      8  H   UNL     1      43.209   8.089  10.087  0.00  0.00    +0.000 HD
ATOM      9  H   UNL     1      42.350   7.114  11.147  0.00  0.00    +0.000 HD
ENDBRANCH   1   7
BRANCH   3  10
ATOM     10  C   UNL     1      47.302   8.230  13.634  0.00  0.00    +0.000 C 
BRANCH  10  11
ATOM     11  N   UNL     1      47.773   7.554  14.815  0.00  0.00    +0.000 N 
ATOM     12  C   UNL     1      49.036   7.034  14.918  0.00  0.00    +0.000 C 
ATOM     13  O   UNL     1      49.850   7.100  14.000  0.00  0.00    +0.000 OA
ATOM     14  H   UNL     1      47.076   7.314  15.511  0.00  0.00    +0.000 HD
BRANCH  12  15
ATOM     15  C   UNL     1      49.403   6.459  16.220  0.00  0.00    +0.000 A 
ATOM     16  C   UNL     1      50.412   7.053  16.967  0.00  0.00    +0.000 A 
ATOM     17  S   UNL     1      50.694   6.293  18.467  0.00  0.00    +0.000 S 
ATOM     18  C   UNL     1      49.507   5.113  18.151  0.00  0.00    +0.000 A 
ATOM     19  N   UNL     1      49.259   4.120  19.046  0.00  0.00    +0.000 NA
ATOM     20  C   UNL     1      48.361   3.272  18.670  0.00  0.00    +0.000 A 
ATOM     21  N   UNL     1      47.676   3.342  17.480  0.00  0.00    +0.000 N 
ATOM     22  C   UNL     1      47.846   4.365  16.579  0.00  0.00    +0.000 A 
ATOM     23  O   UNL     1      47.130   4.461  15.585  0.00  0.00    +0.000 OA
ATOM     24  C   UNL     1      48.882   5.312  16.935  0.00  0.00    +0.000 A 
ATOM     25  H   UNL     1      46.961   2.661  17.256  0.00  0.00    +0.000 HD
ENDBRANCH  12  15
ENDBRANCH  10  11
ENDBRANCH   3  10
BRANCH   6  26
ATOM     26  C   UNL     1      43.684   4.801  10.576  0.00  0.00    +0.000 C 
BRANCH  26  27
ATOM     27  N   UNL     1      44.051   4.788   9.170  0.00  0.00    +0.000 N 
ATOM     28  C   UNL     1      44.943   3.863   8.667  0.00  0.00    +0.000 A 
ATOM     29  C   UNL     1      45.038   2.555   9.122  0.00  0.00    +0.000 A 
ATOM     30  C   UNL     1      45.919   1.665   8.500  0.00  0.00    +0.000 A 
ATOM     31  C   UNL     1      46.692   2.092   7.422  0.00  0.00    +0.000 A 
ATOM     32  C   UNL     1      46.511   3.405   7.015  0.00  0.00    +0.000 A 
ATOM     33  N   UNL     1      45.674   4.289   7.618  0.00  0.00    +0.000 NA
ATOM     34  H   UNL     1      44.285   5.695   8.775  0.00  0.00    +0.000 HD
BRANCH  31  35
ATOM     35  C   UNL     1      47.613   1.177   6.667  0.00  0.00    +0.000 C 
BRANCH  35  36
ATOM     36  O   UNL     1      48.451   1.895   5.770  0.00  0.00    +0.000 OA
ATOM     37  H   UNL     1      48.488   1.382   4.944  0.00  0.00    +0.000 HD
ENDBRANCH  35  36
ENDBRANCH  31  35
ENDBRANCH  26  27
ENDBRANCH   6  26
TORSDOF 8
ENDMDL
MODEL 3
REMARK VINA RESULT:    -8.969      1.519      2.284
REMARK INTER + INTRA:         -13.676
REMARK INTER:                 -12.535
REMARK INTRA:                  -1.140
REMARK UNBOUND:                -1.036
REMARK  Name = 
REMARK  8 active torsions:
REMARK  status: ('A' for Active; 'I' for Inactive)
REMARK    1  A    between atoms: N_1  and  C_2
REMARK    2  A    between atoms: C_4  and  C_5
REMARK    3  A    between atoms: C_5  and  N_6
REMARK    4  A    between atoms: C_7  and  C_9
REMARK    5  A    between atoms: C_21  and  C_22
REMARK    6  A    between atoms: C_22  and  N_23
REMARK    7  A    between atoms: C_27  and  C_28
REMARK    8  A    between atoms: C_28  and  O_29
REMARK                            x       y       z     vdW  Elec       q    Type
REMARK                         _______ _______ _______ _____ _____    ______ ____
ROOT
ATOM      1  C   UNL     1      44.778   6.956  11.593  0.00  0.00    +0.000 A 
ATOM      2  C   UNL     1      45.809   7.550  12.339  0.00  0.00    +0.000 A 
ATOM      3  C   UNL     1      46.764   6.785  13.024  0.00  0.00    +0.000 A 
ATOM      4  C   UNL     1      46.687   5.394  12.949  0.00  0.00    +0.000 A 
ATOM      5  C   UNL     1      45.658   4.785  12.229  0.00  0.00    +0.000 A 
ATOM      6  C   UNL     1      44.677   5.550  11.567  0.00  0.00    +0.000 A 
ENDROOT
BRANCH   1   7
ATOM      7  N   UNL     1      43.752   7.792  11.114  0.00  0.00    +0.000 N 
ATOM      8  H   UNL     1      42.835   7.520  11.458  0.00  0.00    +0.000 HD
ATOM      9  H   UNL     1      43.923   8.780  11.268  0.00  0.00    +0.000 HD
ENDBRANCH   1   7
BRANCH   3  10
ATOM     10  C   UNL     1      47.843   7.462  13.823  0.00  0.00    +0.000 C 
BRANCH  10  11
ATOM     11  N   UNL     1      47.893   6.971  15.176  0.00  0.00    +0.000 N 
ATOM     12  C   UNL     1      49.064   6.610  15.791  0.00  0.00    +0.000 C 
ATOM     13  O   UNL     1      50.150   6.669  15.221  0.00  0.00    +0.000 OA
ATOM     14  H   UNL     1      47.007   6.728  15.605  0.00  0.00    +0.000 HD
BRANCH  12  15
ATOM     15  C   UNL     1      48.966   6.219  17.204  0.00  0.00    +0.000 A 
ATOM     16  C   UNL     1      49.402   4.960  17.595  0.00  0.00    +0.000 A 
ATOM     17  S   UNL     1      49.258   4.671  19.269  0.00  0.00    +0.000 S 
ATOM     18  C   UNL     1      48.563   6.205  19.526  0.00  0.00    +0.000 A 
ATOM     19  N   UNL     1      48.171   6.590  20.769  0.00  0.00    +0.000 NA
ATOM     20  C   UNL     1      47.628   7.760  20.821  0.00  0.00    +0.000 A 
ATOM     21  N   UNL     1      47.459   8.586  19.736  0.00  0.00    +0.000 N 
ATOM     22  C   UNL     1      47.901   8.266  18.475  0.00  0.00    +0.000 A 
ATOM     23  O   UNL     1      47.843   9.078  17.556  0.00  0.00    +0.000 OA
ATOM     24  C   UNL     1      48.470   6.939  18.360  0.00  0.00    +0.000 A 
ATOM     25  H   UNL     1      47.052   9.507  19.848  0.00  0.00    +0.000 HD
ENDBRANCH  12  15
ENDBRANCH  10  11
ENDBRANCH   3  10
BRANCH   6  26
ATOM     26  C   UNL     1      43.580   4.816  10.821  0.00  0.00    +0.000 C 
BRANCH  26  27
ATOM     27  N   UNL     1      43.879   4.794   9.399  0.00  0.00    +0.000 N 
ATOM     28  C   UNL     1      44.765   3.882   8.864  0.00  0.00    +0.000 A 
ATOM     29  C   UNL     1      44.911   2.581   9.328  0.00  0.00    +0.000 A 
ATOM     30  C   UNL     1      45.781   1.703   8.674  0.00  0.00    +0.000 A 
ATOM     31  C   UNL     1      46.492   2.134   7.556  0.00  0.00    +0.000 A 
ATOM     32  C   UNL     1      46.262   3.438   7.144  0.00  0.00    +0.000 A 
ATOM     33  N   UNL     1      45.436   4.311   7.776  0.00  0.00    +0.000 NA
ATOM     34  H   UNL     1      44.074   5.701   8.983  0.00  0.00    +0.000 HD
BRANCH  31  35
ATOM     35  C   UNL     1      47.395   1.230   6.768  0.00  0.00    +0.000 C 
BRANCH  35  36
ATOM     36  O   UNL     1      48.613   1.876   6.417  0.00  0.00    +0.000 OA
ATOM     37  H   UNL     1      48.380   2.638   5.861  0.00  0.00    +0.000 HD
ENDBRANCH  35  36
ENDBRANCH  31  35
ENDBRANCH  26  27
ENDBRANCH   6  26
TORSDOF 8
ENDMDL
MODEL 4
REMARK VINA RESULT:    -8.829      1.271      1.769
REMARK INTER + INTRA:         -13.478
REMARK INTER:                 -12.416
REMARK INTRA:                  -1.062
REMARK UNBOUND:                -1.036
REMARK  Name = 
REMARK  8 active torsions:
REMARK  status: ('A' for Active; 'I' for Inactive)
REMARK    1  A    between atoms: N_1  and  C_2
REMARK    2  A    between atoms: C_4  and  C_5
REMARK    3  A    between atoms: C_5  and  N_6
REMARK    4  A    between atoms: C_7  and  C_9
REMARK    5  A    between atoms: C_21  and  C_22
REMARK    6  A    between atoms: C_22  and  N_23
REMARK    7  A    between atoms: C_27  and  C_28
REMARK    8  A    between atoms: C_28  and  O_29
REMARK                            x       y       z     vdW  Elec       q    Type
REMARK                         _______ _______ _______ _____ _____    ______ ____
ROOT
ATOM      1  C   UNL     1      44.695   7.135  11.527  0.00  0.00    +0.000 A 
ATOM      2  C   UNL     1      45.666   7.848  12.251  0.00  0.00    +0.000 A 
ATOM      3  C   UNL     1      46.688   7.200  12.958  0.00  0.00    +0.000 A 
ATOM      4  C   UNL     1      46.741   5.805  12.930  0.00  0.00    +0.000 A 
ATOM      5  C   UNL     1      45.775   5.079  12.233  0.00  0.00    +0.000 A 
ATOM      6  C   UNL     1      44.727   5.726  11.549  0.00  0.00    +0.000 A 
ENDROOT
BRANCH   1   7
ATOM      7  N   UNL     1      43.596   7.855  11.024  0.00  0.00    +0.000 N 
ATOM      8  H   UNL     1      42.704   7.460  11.314  0.00  0.00    +0.000 HD
ATOM      9  H   UNL     1      43.635   8.851  11.215  0.00  0.00    +0.000 HD
ENDBRANCH   1   7
BRANCH   3  10
ATOM     10  C   UNL     1      47.698   8.002  13.731  0.00  0.00    +0.000 C 
BRANCH  10  11
ATOM     11  N   UNL     1      47.872   7.494  15.068  0.00  0.00    +0.000 N 
ATOM     12  C   UNL     1      48.686   8.099  15.990  0.00  0.00    +0.000 C 
ATOM     13  O   UNL     1      49.333   9.111  15.732  0.00  0.00    +0.000 OA
ATOM     14  H   UNL     1      47.511   6.565  15.253  0.00  0.00    +0.000 HD
BRANCH  12  15
ATOM     15  C   UNL     1      48.686   7.519  17.341  0.00  0.00    +0.000 A 
ATOM     16  C   UNL     1      48.699   8.363  18.444  0.00  0.00    +0.000 A 
ATOM     17  S   UNL     1      48.659   7.542  19.938  0.00  0.00    +0.000 S 
ATOM     18  C   UNL     1      48.669   6.024  19.162  0.00  0.00    +0.000 A 
ATOM     19  N   UNL     1      48.671   4.874  19.887  0.00  0.00    +0.000 NA
ATOM     20  C   UNL     1      48.715   3.795  19.179  0.00  0.00    +0.000 A 
ATOM     21  N   UNL     1      48.738   3.769  17.805  0.00  0.00    +0.000 N 
ATOM     22  C   UNL     1      48.667   4.903  17.033  0.00  0.00    +0.000 A 
ATOM     23  O   UNL     1      48.567   4.835  15.811  0.00  0.00    +0.000 OA
ATOM     24  C   UNL     1      48.671   6.140  17.786  0.00  0.00    +0.000 A 
ATOM     25  H   UNL     1      48.741   2.887  17.306  0.00  0.00    +0.000 HD
ENDBRANCH  12  15
ENDBRANCH  10  11
ENDBRANCH   3  10
BRANCH   6  26
ATOM     26  C   UNL     1      43.703   4.868  10.831  0.00  0.00    +0.000 C 
BRANCH  26  27
ATOM     27  N   UNL     1      43.988   4.848   9.407  0.00  0.00    +0.000 N 
ATOM     28  C   UNL     1      44.846   3.917   8.856  0.00  0.00    +0.000 A 
ATOM     29  C   UNL     1      44.964   2.611   9.311  0.00  0.00    +0.000 A 
ATOM     30  C   UNL     1      45.805   1.716   8.643  0.00  0.00    +0.000 A 
ATOM     31  C   UNL     1      46.516   2.136   7.521  0.00  0.00    +0.000 A 
ATOM     32  C   UNL     1      46.314   3.448   7.119  0.00  0.00    +0.000 A 
ATOM     33  N   UNL     1      45.517   4.337   7.765  0.00  0.00    +0.000 NA
ATOM     34  H   UNL     1      44.201   5.752   8.994  0.00  0.00    +0.000 HD
BRANCH  31  35
ATOM     35  C   UNL     1      47.389   1.215   6.718  0.00  0.00    +0.000 C 
BRANCH  35  36
ATOM     36  O   UNL     1      48.573   1.865   6.274  0.00  0.00    +0.000 OA
ATOM     37  H   UNL     1      48.679   2.664   6.817  0.00  0.00    +0.000 HD
ENDBRANCH  35  36
ENDBRANCH  31  35
ENDBRANCH  26  27
ENDBRANCH   6  26
TORSDOF 8
ENDMDL
MODEL 5
REMARK VINA RESULT:    -7.875      4.792      5.873
REMARK INTER + INTRA:         -12.134
REMARK INTER:                 -11.291
REMARK INTRA:                  -0.843
REMARK UNBOUND:                -1.036
REMARK  Name = 
REMARK  8 active torsions:
REMARK  status: ('A' for Active; 'I' for Inactive)
REMARK    1  A    between atoms: N_1  and  C_2
REMARK    2  A    between atoms: C_4  and  C_5
REMARK    3  A    between atoms: C_5  and  N_6
REMARK    4  A    between atoms: C_7  and  C_9
REMARK    5  A    between atoms: C_21  and  C_22
REMARK    6  A    between atoms: C_22  and  N_23
REMARK    7  A    between atoms: C_27  and  C_28
REMARK    8  A    between atoms: C_28  and  O_29
REMARK                            x       y       z     vdW  Elec       q    Type
REMARK                         _______ _______ _______ _____ _____    ______ ____
ROOT
ATOM      1  C   UNL     1      43.668   6.246  11.530  0.00  0.00    +0.000 A 
ATOM      2  C   UNL     1      44.301   7.386  12.053  0.00  0.00    +0.000 A 
ATOM      3  C   UNL     1      45.651   7.376  12.431  0.00  0.00    +0.000 A 
ATOM      4  C   UNL     1      46.383   6.198  12.271  0.00  0.00    +0.000 A 
ATOM      5  C   UNL     1      45.765   5.050  11.772  0.00  0.00    +0.000 A 
ATOM      6  C   UNL     1      44.400   5.047  11.423  0.00  0.00    +0.000 A 
ENDROOT
BRANCH   1   7
ATOM      7  N   UNL     1      42.270   6.289  11.374  0.00  0.00    +0.000 N 
ATOM      8  H   UNL     1      41.892   7.226  11.491  0.00  0.00    +0.000 HD
ATOM      9  H   UNL     1      41.940   5.867  10.511  0.00  0.00    +0.000 HD
ENDBRANCH   1   7
BRANCH   3  10
ATOM     10  C   UNL     1      46.287   8.615  12.999  0.00  0.00    +0.000 C 
BRANCH  10  11
ATOM     11  N   UNL     1      47.447   9.013  12.246  0.00  0.00    +0.000 N 
ATOM     12  C   UNL     1      48.397   9.867  12.743  0.00  0.00    +0.000 C 
ATOM     13  O   UNL     1      48.314  10.360  13.865  0.00  0.00    +0.000 OA
ATOM     14  H   UNL     1      47.450   8.783  11.258  0.00  0.00    +0.000 HD
BRANCH  12  15
ATOM     15  C   UNL     1      49.572  10.104  11.892  0.00  0.00    +0.000 A 
ATOM     16  C   UNL     1      49.896  11.403  11.524  0.00  0.00    +0.000 A 
ATOM     17  S   UNL     1      51.305  11.516  10.571  0.00  0.00    +0.000 S 
ATOM     18  C   UNL     1      51.507   9.824  10.577  0.00  0.00    +0.000 A 
ATOM     19  N   UNL     1      52.537   9.245   9.903  0.00  0.00    +0.000 NA
ATOM     20  C   UNL     1      52.555   7.956   9.959  0.00  0.00    +0.000 A 
ATOM     21  N   UNL     1      51.640   7.195  10.647  0.00  0.00    +0.000 N 
ATOM     22  C   UNL     1      50.626   7.740  11.396  0.00  0.00    +0.000 A 
ATOM     23  O   UNL     1      49.903   7.036  12.096  0.00  0.00    +0.000 OA
ATOM     24  C   UNL     1      50.535   9.184  11.320  0.00  0.00    +0.000 A 
ATOM     25  H   UNL     1      51.727   6.186  10.677  0.00  0.00    +0.000 HD
ENDBRANCH  12  15
ENDBRANCH  10  11
ENDBRANCH   3  10
BRANCH   6  26
ATOM     26  C   UNL     1      43.797   3.756  10.906  0.00  0.00    +0.000 C 
BRANCH  26  27
ATOM     27  N   UNL     1      44.853   2.826  10.546  0.00  0.00    +0.000 N 
ATOM     28  C   UNL     1      45.397   2.809   9.277  0.00  0.00    +0.000 A 
ATOM     29  C   UNL     1      45.572   3.943   8.496  0.00  0.00    +0.000 A 
ATOM     30  C   UNL     1      46.202   3.840   7.252  0.00  0.00    +0.000 A 
ATOM     31  C   UNL     1      46.656   2.601   6.804  0.00  0.00    +0.000 A 
ATOM     32  C   UNL     1      46.467   1.528   7.662  0.00  0.00    +0.000 A 
ATOM     33  N   UNL     1      45.842   1.605   8.865  0.00  0.00    +0.000 NA
ATOM     34  H   UNL     1      44.701   1.863  10.834  0.00  0.00    +0.000 HD
BRANCH  31  35
ATOM     35  C   UNL     1      47.395   2.424   5.509  0.00  0.00    +0.000 C 
BRANCH  35  36
ATOM     36  O   UNL     1      48.628   1.740   5.693  0.00  0.00    +0.000 OA
ATOM     37  H   UNL     1      49.320   2.418   5.772  0.00  0.00    +0.000 HD
ENDBRANCH  35  36
ENDBRANCH  31  35
ENDBRANCH  26  27
ENDBRANCH   6  26
TORSDOF 8
ENDMDL
MODEL 6
REMARK VINA RESULT:    -7.368      3.724      5.107
REMARK INTER + INTRA:         -11.419
REMARK INTER:                 -10.666
REMARK INTRA:                  -0.752
REMARK UNBOUND:                -1.036
REMARK  Name = 
REMARK  8 active torsions:
REMARK  status: ('A' for Active; 'I' for Inactive)
REMARK    1  A    between atoms: N_1  and  C_2
REMARK    2  A    between atoms: C_4  and  C_5
REMARK    3  A    between atoms: C_5  and  N_6
REMARK    4  A    between atoms: C_7  and  C_9
REMARK    5  A    between atoms: C_21  and  C_22
REMARK    6  A    between atoms: C_22  and  N_23
REMARK    7  A    between atoms: C_27  and  C_28
REMARK    8  A    between atoms: C_28  and  O_29
REMARK                            x       y       z     vdW  Elec       q    Type
REMARK                         _______ _______ _______ _____ _____    ______ ____
ROOT
ATOM      1  C   UNL     1      43.567   6.090  11.700  0.00  0.00    +0.000 A 
ATOM      2  C   UNL     1      44.166   7.213  12.298  0.00  0.00    +0.000 A 
ATOM      3  C   UNL     1      45.542   7.268  12.558  0.00  0.00    +0.000 A 
ATOM      4  C   UNL     1      46.335   6.176  12.201  0.00  0.00    +0.000 A 
ATOM      5  C   UNL     1      45.756   5.045  11.625  0.00  0.00    +0.000 A 
ATOM      6  C   UNL     1      44.368   4.972  11.393  0.00  0.00    +0.000 A 
ENDROOT
BRANCH   1   7
ATOM      7  N   UNL     1      42.161   6.040  11.668  0.00  0.00    +0.000 N 
ATOM      8  H   UNL     1      41.792   5.173  12.052  0.00  0.00    +0.000 HD
ATOM      9  H   UNL     1      41.711   6.847  12.089  0.00  0.00    +0.000 HD
ENDBRANCH   1   7
BRANCH   3  10
ATOM     10  C   UNL     1      46.140   8.483  13.211  0.00  0.00    +0.000 C 
BRANCH  10  11
ATOM     11  N   UNL     1      47.579   8.435  13.212  0.00  0.00    +0.000 N 
ATOM     12  C   UNL     1      48.331   8.755  14.311  0.00  0.00    +0.000 C 
ATOM     13  O   UNL     1      47.825   9.119  15.370  0.00  0.00    +0.000 OA
ATOM     14  H   UNL     1      48.032   8.328  12.311  0.00  0.00    +0.000 HD
BRANCH  12  15
ATOM     15  C   UNL     1      49.784   8.565  14.188  0.00  0.00    +0.000 A 
ATOM     16  C   UNL     1      50.502   8.079  15.273  0.00  0.00    +0.000 A 
ATOM     17  S   UNL     1      52.166   7.878  14.961  0.00  0.00    +0.000 S 
ATOM     18  C   UNL     1      51.994   8.479  13.376  0.00  0.00    +0.000 A 
ATOM     19  N   UNL     1      53.074   8.598  12.558  0.00  0.00    +0.000 NA
ATOM     20  C   UNL     1      52.812   9.100  11.398  0.00  0.00    +0.000 A 
ATOM     21  N   UNL     1      51.559   9.476  10.978  0.00  0.00    +0.000 N 
ATOM     22  C   UNL     1      50.432   9.309  11.745  0.00  0.00    +0.000 A 
ATOM     23  O   UNL     1      49.314   9.542  11.292  0.00  0.00    +0.000 OA
ATOM     24  C   UNL     1      50.684   8.799  13.077  0.00  0.00    +0.000 A 
ATOM     25  H   UNL     1      51.415   9.835  10.042  0.00  0.00    +0.000 HD
ENDBRANCH  12  15
ENDBRANCH  10  11
ENDBRANCH   3  10
BRANCH   6  26
ATOM     26  C   UNL     1      43.809   3.702  10.781  0.00  0.00    +0.000 C 
BRANCH  26  27
ATOM     27  N   UNL     1      44.895   2.794  10.453  0.00  0.00    +0.000 N 
ATOM     28  C   UNL     1      45.412   2.722   9.176  0.00  0.00    +0.000 A 
ATOM     29  C   UNL     1      45.526   3.813   8.325  0.00  0.00    +0.000 A 
ATOM     30  C   UNL     1      46.133   3.661   7.075  0.00  0.00    +0.000 A 
ATOM     31  C   UNL     1      46.628   2.416   6.691  0.00  0.00    +0.000 A 
ATOM     32  C   UNL     1      46.499   1.389   7.614  0.00  0.00    +0.000 A 
ATOM     33  N   UNL     1      45.896   1.514   8.825  0.00  0.00    +0.000 NA
ATOM     34  H   UNL     1      44.786   1.845  10.801  0.00  0.00    +0.000 HD
BRANCH  31  35
ATOM     35  C   UNL     1      47.346   2.191   5.391  0.00  0.00    +0.000 C 
BRANCH  35  36
ATOM     36  O   UNL     1      48.702   1.813   5.596  0.00  0.00    +0.000 OA
ATOM     37  H   UNL     1      49.223   2.633   5.630  0.00  0.00    +0.000 HD
ENDBRANCH  35  36
ENDBRANCH  31  35
ENDBRANCH  26  27
ENDBRANCH   6  26
TORSDOF 8
ENDMDL
MODEL 7
REMARK VINA RESULT:    -7.215      3.031      9.054
REMARK INTER + INTRA:         -11.204
REMARK INTER:                 -10.090
REMARK INTRA:                  -1.113
REMARK UNBOUND:                -1.036
REMARK  Name = 
REMARK  8 active torsions:
REMARK  status: ('A' for Active; 'I' for Inactive)
REMARK    1  A    between atoms: N_1  and  C_2
REMARK    2  A    between atoms: C_4  and  C_5
REMARK    3  A    between atoms: C_5  and  N_6
REMARK    4  A    between atoms: C_7  and  C_9
REMARK    5  A    between atoms: C_21  and  C_22
REMARK    6  A    between atoms: C_22  and  N_23
REMARK    7  A    between atoms: C_27  and  C_28
REMARK    8  A    between atoms: C_28  and  O_29
REMARK                            x       y       z     vdW  Elec       q    Type
REMARK                         _______ _______ _______ _____ _____    ______ ____
ROOT
ATOM      1  C   UNL     1      50.521   8.120  14.483  0.00  0.00    +0.000 A 
ATOM      2  C   UNL     1      49.881   7.915  13.248  0.00  0.00    +0.000 A 
ATOM      3  C   UNL     1      48.539   8.266  13.042  0.00  0.00    +0.000 A 
ATOM      4  C   UNL     1      47.828   8.842  14.096  0.00  0.00    +0.000 A 
ATOM      5  C   UNL     1      48.440   9.034  15.335  0.00  0.00    +0.000 A 
ATOM      6  C   UNL     1      49.779   8.653  15.556  0.00  0.00    +0.000 A 
ENDROOT
BRANCH   1   7
ATOM      7  N   UNL     1      51.796   7.552  14.659  0.00  0.00    +0.000 N 
ATOM      8  H   UNL     1      51.985   6.802  13.999  0.00  0.00    +0.000 HD
ATOM      9  H   UNL     1      52.550   8.232  14.666  0.00  0.00    +0.000 HD
ENDBRANCH   1   7
BRANCH   3  10
ATOM     10  C   UNL     1      47.889   8.017  11.709  0.00  0.00    +0.000 C 
BRANCH  10  11
ATOM     11  N   UNL     1      47.088   6.820  11.721  0.00  0.00    +0.000 N 
ATOM     12  C   UNL     1      45.718   6.845  11.702  0.00  0.00    +0.000 C 
ATOM     13  O   UNL     1      45.080   7.895  11.686  0.00  0.00    +0.000 OA
ATOM     14  H   UNL     1      47.570   5.952  11.927  0.00  0.00    +0.000 HD
BRANCH  12  15
ATOM     15  C   UNL     1      45.042   5.542  11.620  0.00  0.00    +0.000 A 
ATOM     16  C   UNL     1      44.324   5.077  12.714  0.00  0.00    +0.000 A 
ATOM     17  S   UNL     1      43.567   3.572  12.450  0.00  0.00    +0.000 S 
ATOM     18  C   UNL     1      44.212   3.466  10.876  0.00  0.00    +0.000 A 
ATOM     19  N   UNL     1      43.965   2.380  10.096  0.00  0.00    +0.000 NA
ATOM     20  C   UNL     1      44.541   2.408   8.941  0.00  0.00    +0.000 A 
ATOM     21  N   UNL     1      45.331   3.440   8.492  0.00  0.00    +0.000 N 
ATOM     22  C   UNL     1      45.551   4.585   9.219  0.00  0.00    +0.000 A 
ATOM     23  O   UNL     1      46.161   5.536   8.737  0.00  0.00    +0.000 OA
ATOM     24  C   UNL     1      44.967   4.574  10.544  0.00  0.00    +0.000 A 
ATOM     25  H   UNL     1      45.730   3.416   7.562  0.00  0.00    +0.000 HD
ENDBRANCH  12  15
ENDBRANCH  10  11
ENDBRANCH   3  10
BRANCH   6  26
ATOM     26  C   UNL     1      50.369   8.876  16.935  0.00  0.00    +0.000 C 
BRANCH  26  27
ATOM     27  N   UNL     1      49.521   8.257  17.940  0.00  0.00    +0.000 N 
ATOM     28  C   UNL     1      49.163   6.927  17.861  0.00  0.00    +0.000 A 
ATOM     29  C   UNL     1      49.993   5.931  17.363  0.00  0.00    +0.000 A 
ATOM     30  C   UNL     1      49.575   4.598  17.392  0.00  0.00    +0.000 A 
ATOM     31  C   UNL     1      48.329   4.273  17.926  0.00  0.00    +0.000 A 
ATOM     32  C   UNL     1      47.579   5.326  18.428  0.00  0.00    +0.000 A 
ATOM     33  N   UNL     1      47.961   6.628  18.392  0.00  0.00    +0.000 NA
ATOM     34  H   UNL     1      48.694   8.789  18.196  0.00  0.00    +0.000 HD
BRANCH  31  35
ATOM     35  C   UNL     1      47.839   2.858  18.046  0.00  0.00    +0.000 C 
BRANCH  35  36
ATOM     36  O   UNL     1      46.469   2.742  17.681  0.00  0.00    +0.000 OA
ATOM     37  H   UNL     1      46.307   1.804  17.480  0.00  0.00    +0.000 HD
ENDBRANCH  35  36
ENDBRANCH  31  35
ENDBRANCH  26  27
ENDBRANCH   6  26
TORSDOF 8
ENDMDL
MODEL 8
REMARK VINA RESULT:    -7.154      2.802      3.531
REMARK INTER + INTRA:         -11.117
REMARK INTER:                  -9.990
REMARK INTRA:                  -1.127
REMARK UNBOUND:                -1.036
REMARK  Name = 
REMARK  8 active torsions:
REMARK  status: ('A' for Active; 'I' for Inactive)
REMARK    1  A    between atoms: N_1  and  C_2
REMARK    2  A    between atoms: C_4  and  C_5
REMARK    3  A    between atoms: C_5  and  N_6
REMARK    4  A    between atoms: C_7  and  C_9
REMARK    5  A    between atoms: C_21  and  C_22
REMARK    6  A    between atoms: C_22  and  N_23
REMARK    7  A    between atoms: C_27  and  C_28
REMARK    8  A    between atoms: C_28  and  O_29
REMARK                            x       y       z     vdW  Elec       q    Type
REMARK                         _______ _______ _______ _____ _____    ______ ____
ROOT
ATOM      1  C   UNL     1      45.686   7.828  12.444  0.00  0.00    +0.000 A 
ATOM      2  C   UNL     1      46.781   8.357  13.147  0.00  0.00    +0.000 A 
ATOM      3  C   UNL     1      47.877   7.565  13.518  0.00  0.00    +0.000 A 
ATOM      4  C   UNL     1      47.877   6.214  13.165  0.00  0.00    +0.000 A 
ATOM      5  C   UNL     1      46.789   5.666  12.484  0.00  0.00    +0.000 A 
ATOM      6  C   UNL     1      45.671   6.452  12.140  0.00  0.00    +0.000 A 
ENDROOT
BRANCH   1   7
ATOM      7  N   UNL     1      44.548   8.642  12.298  0.00  0.00    +0.000 N 
ATOM      8  H   UNL     1      44.778   9.585  11.994  0.00  0.00    +0.000 HD
ATOM      9  H   UNL     1      43.825   8.235  11.712  0.00  0.00    +0.000 HD
ENDBRANCH   1   7
BRANCH   3  10
ATOM     10  C   UNL     1      49.022   8.169  14.282  0.00  0.00    +0.000 C 
BRANCH  10  11
ATOM     11  N   UNL     1      49.773   7.169  14.996  0.00  0.00    +0.000 N 
ATOM     12  C   UNL     1      49.704   7.021  16.357  0.00  0.00    +0.000 C 
ATOM     13  O   UNL     1      49.003   7.744  17.061  0.00  0.00    +0.000 OA
ATOM     14  H   UNL     1      50.500   6.688  14.478  0.00  0.00    +0.000 HD
BRANCH  12  15
ATOM     15  C   UNL     1      50.454   5.895  16.931  0.00  0.00    +0.000 A 
ATOM     16  C   UNL     1      49.766   4.881  17.585  0.00  0.00    +0.000 A 
ATOM     17  S   UNL     1      50.771   3.630  18.161  0.00  0.00    +0.000 S 
ATOM     18  C   UNL     1      52.169   4.422  17.596  0.00  0.00    +0.000 A 
ATOM     19  N   UNL     1      53.401   3.883  17.795  0.00  0.00    +0.000 NA
ATOM     20  C   UNL     1      54.378   4.600  17.349  0.00  0.00    +0.000 A 
ATOM     21  N   UNL     1      54.226   5.804  16.704  0.00  0.00    +0.000 N 
ATOM     22  C   UNL     1      52.998   6.352  16.421  0.00  0.00    +0.000 A 
ATOM     23  O   UNL     1      52.897   7.367  15.737  0.00  0.00    +0.000 OA
ATOM     24  C   UNL     1      51.874   5.607  16.950  0.00  0.00    +0.000 A 
ATOM     25  H   UNL     1      55.032   6.305  16.351  0.00  0.00    +0.000 HD
ENDBRANCH  12  15
ENDBRANCH  10  11
ENDBRANCH   3  10
BRANCH   6  26
ATOM     26  C   UNL     1      44.519   5.780  11.417  0.00  0.00    +0.000 C 
BRANCH  26  27
ATOM     27  N   UNL     1      44.800   5.717   9.993  0.00  0.00    +0.000 N 
ATOM     28  C   UNL     1      45.259   4.558   9.400  0.00  0.00    +0.000 A 
ATOM     29  C   UNL     1      44.875   3.283   9.793  0.00  0.00    +0.000 A 
ATOM     30  C   UNL     1      45.333   2.169   9.084  0.00  0.00    +0.000 A 
ATOM     31  C   UNL     1      46.168   2.343   7.982  0.00  0.00    +0.000 A 
ATOM     32  C   UNL     1      46.476   3.652   7.641  0.00  0.00    +0.000 A 
ATOM     33  N   UNL     1      46.055   4.745   8.328  0.00  0.00    +0.000 NA
ATOM     34  H   UNL     1      45.341   6.494   9.623  0.00  0.00    +0.000 HD
BRANCH  31  35
ATOM     35  C   UNL     1      46.649   1.199   7.136  0.00  0.00    +0.000 C 
BRANCH  35  36
ATOM     36  O   UNL     1      47.309   0.208   7.915  0.00  0.00    +0.000 OA
ATOM     37  H   UNL     1      46.793   0.100   8.733  0.00  0.00    +0.000 HD
ENDBRANCH  35  36
ENDBRANCH  31  35
ENDBRANCH  26  27
ENDBRANCH   6  26
TORSDOF 8
ENDMDL
MODEL 9
REMARK VINA RESULT:    -7.023      2.543      3.047
REMARK INTER + INTRA:         -10.932
REMARK INTER:                  -9.742
REMARK INTRA:                  -1.191
REMARK UNBOUND:                -1.036
REMARK  Name = 
REMARK  8 active torsions:
REMARK  status: ('A' for Active; 'I' for Inactive)
REMARK    1  A    between atoms: N_1  and  C_2
REMARK    2  A    between atoms: C_4  and  C_5
REMARK    3  A    between atoms: C_5  and  N_6
REMARK    4  A    between atoms: C_7  and  C_9
REMARK    5  A    between atoms: C_21  and  C_22
REMARK    6  A    between atoms: C_22  and  N_23
REMARK    7  A    between atoms: C_27  and  C_28
REMARK    8  A    between atoms: C_28  and  O_29
REMARK                            x       y       z     vdW  Elec       q    Type
REMARK                         _______ _______ _______ _____ _____    ______ ____
ROOT
ATOM      1  C   UNL     1      45.922   8.050  12.567  0.00  0.00    +0.000 A 
ATOM      2  C   UNL     1      47.051   8.563  13.228  0.00  0.00    +0.000 A 
ATOM      3  C   UNL     1      48.154   7.757  13.545  0.00  0.00    +0.000 A 
ATOM      4  C   UNL     1      48.125   6.409  13.183  0.00  0.00    +0.000 A 
ATOM      5  C   UNL     1      47.004   5.878  12.543  0.00  0.00    +0.000 A 
ATOM      6  C   UNL     1      45.881   6.677  12.253  0.00  0.00    +0.000 A 
ENDROOT
BRANCH   1   7
ATOM      7  N   UNL     1      44.787   8.877  12.475  0.00  0.00    +0.000 N 
ATOM      8  H   UNL     1      44.978   9.750  11.989  0.00  0.00    +0.000 HD
ATOM      9  H   UNL     1      43.971   8.413  12.088  0.00  0.00    +0.000 HD
ENDBRANCH   1   7
BRANCH   3  10
ATOM     10  C   UNL     1      49.336   8.344  14.266  0.00  0.00    +0.000 C 
BRANCH  10  11
ATOM     11  N   UNL     1      50.101   7.332  14.948  0.00  0.00    +0.000 N 
ATOM     12  C   UNL     1      50.431   7.420  16.275  0.00  0.00    +0.000 C 
ATOM     13  O   UNL     1      50.105   8.378  16.970  0.00  0.00    +0.000 OA
ATOM     14  H   UNL     1      50.547   6.630  14.367  0.00  0.00    +0.000 HD
BRANCH  12  15
ATOM     15  C   UNL     1      51.131   6.264  16.853  0.00  0.00    +0.000 A 
ATOM     16  C   UNL     1      52.440   6.411  17.292  0.00  0.00    +0.000 A 
ATOM     17  S   UNL     1      53.101   4.993  17.970  0.00  0.00    +0.000 S 
ATOM     18  C   UNL     1      51.673   4.117  17.658  0.00  0.00    +0.000 A 
ATOM     19  N   UNL     1      51.583   2.798  17.978  0.00  0.00    +0.000 NA
ATOM     20  C   UNL     1      50.462   2.245  17.656  0.00  0.00    +0.000 A 
ATOM     21  N   UNL     1      49.415   2.903  17.057  0.00  0.00    +0.000 N 
ATOM     22  C   UNL     1      49.437   4.248  16.779  0.00  0.00    +0.000 A 
ATOM     23  O   UNL     1      48.439   4.826  16.356  0.00  0.00    +0.000 OA
ATOM     24  C   UNL     1      50.696   4.900  17.074  0.00  0.00    +0.000 A 
ATOM     25  H   UNL     1      48.548   2.418  16.857  0.00  0.00    +0.000 HD
ENDBRANCH  12  15
ENDBRANCH  10  11
ENDBRANCH   3  10
BRANCH   6  26
ATOM     26  C   UNL     1      44.693   6.022  11.574  0.00  0.00    +0.000 C 
BRANCH  26  27
ATOM     27  N   UNL     1      44.923   5.947  10.142  0.00  0.00    +0.000 N 
ATOM     28  C   UNL     1      45.313   4.770   9.535  0.00  0.00    +0.000 A 
ATOM     29  C   UNL     1      44.888   3.513   9.943  0.00  0.00    +0.000 A 
ATOM     30  C   UNL     1      45.274   2.380   9.222  0.00  0.00    +0.000 A 
ATOM     31  C   UNL     1      46.078   2.517   8.092  0.00  0.00    +0.000 A 
ATOM     32  C   UNL     1      46.431   3.811   7.739  0.00  0.00    +0.000 A 
ATOM     33  N   UNL     1      46.081   4.922   8.438  0.00  0.00    +0.000 NA
ATOM     34  H   UNL     1      45.484   6.700   9.752  0.00  0.00    +0.000 HD
BRANCH  31  35
ATOM     35  C   UNL     1      46.482   1.353   7.233  0.00  0.00    +0.000 C 
BRANCH  35  36
ATOM     36  O   UNL     1      47.280   0.419   7.951  0.00  0.00    +0.000 OA
ATOM     37  H   UNL     1      46.887   0.331   8.836  0.00  0.00    +0.000 HD
ENDBRANCH  35  36
ENDBRANCH  31  35
ENDBRANCH  26  27
ENDBRANCH   6  26
TORSDOF 8
ENDMDL
