MODEL 1
REMARK VINA RESULT:    -7.498      0.000      0.000
REMARK INTER + INTRA:         -12.288
REMARK INTER:                 -11.004
REMARK INTRA:                  -1.284
REMARK UNBOUND:                -1.284
REMARK  Name = 
REMARK  11 active torsions:
REMARK  status: ('A' for Active; 'I' for Inactive)
REMARK    1  A    between atoms: C_1  and  O_2
REMARK    2  A    between atoms: O_2  and  C_3
REMARK    3  A    between atoms: C_10  and  C_11
REMARK    4  A    between atoms: N_13  and  C_14
REMARK    5  A    between atoms: C_14  and  C_15
REMARK    6  A    between atoms: C_18  and  C_19
REMARK    7  A    between atoms: C_19  and  N_20
REMARK    8  A    between atoms: N_20  and  C_21
REMARK    9  A    between atoms: C_21  and  C_22
REMARK   10  A    between atoms: C_21  and  C_23
REMARK   11  A    between atoms: C_21  and  C_24
REMARK                            x       y       z     vdW  Elec       q    Type
REMARK                         _______ _______ _______ _____ _____    ______ ____
ROOT
ATOM      1  C   UNL     1      48.469   6.908  15.074  0.00  0.00    +0.000 A 
ATOM      2  C   UNL     1      48.223   7.800  14.020  0.00  0.00    +0.000 A 
ATOM      3  C   UNL     1      47.413   7.424  12.941  0.00  0.00    +0.000 A 
ATOM      4  C   UNL     1      46.813   6.159  12.905  0.00  0.00    +0.000 A 
ATOM      5  C   UNL     1      47.063   5.267  13.958  0.00  0.00    +0.000 A 
ATOM      6  C   UNL     1      47.875   5.640  15.033  0.00  0.00    +0.000 A 
ENDROOT
BRANCH   1   7
ATOM      7  C   UNL     1      49.304   7.327  16.260  0.00  0.00    +0.000 C 
BRANCH   7  10
ATOM      8  C   UNL     1      50.558   6.037  17.943  0.00  0.00    +0.000 C 
ATOM      9  O   UNL     1      50.097   6.713  18.861  0.00  0.00    +0.000 OA
ATOM     10  N   UNL     1      50.212   6.276  16.643  0.00  0.00    +0.000 N 
ATOM     11  H   UNL     1      50.627   5.732  15.900  0.00  0.00    +0.000 HD
BRANCH   8  19
ATOM     12  C   UNL     1      50.526   2.658  17.268  0.00  0.00    +0.000 A 
ATOM     13  N   UNL     1      50.787   1.348  17.098  0.00  0.00    +0.000 NA
ATOM     14  C   UNL     1      51.951   0.876  17.551  0.00  0.00    +0.000 A 
ATOM     15  N   UNL     1      52.905   1.562  18.172  0.00  0.00    +0.000 NA
ATOM     16  C   UNL     1      52.611   2.866  18.312  0.00  0.00    +0.000 A 
ATOM     17  S   UNL     1      53.715   3.895  19.089  0.00  0.00    +0.000 S 
ATOM     18  C   UNL     1      52.698   5.238  18.863  0.00  0.00    +0.000 A 
ATOM     19  C   UNL     1      51.511   4.941  18.201  0.00  0.00    +0.000 A 
ATOM     20  C   UNL     1      51.456   3.513  17.884  0.00  0.00    +0.000 A 
BRANCH  12  22
ATOM     21  C   UNL     1      48.275   3.102  17.731  0.00  0.00    +0.000 C 
ATOM     22  O   UNL     1      49.334   3.151  16.779  0.00  0.00    +0.000 OA
ENDBRANCH  12  22
ENDBRANCH   8  19
ENDBRANCH   7  10
ENDBRANCH   1   7
BRANCH   4  23
ATOM     23  C   UNL     1      45.916   5.756  11.752  0.00  0.00    +0.000 C 
BRANCH  23  24
ATOM     24  N   UNL     1      45.377   4.414  11.954  0.00  0.00    +0.000 NA
ATOM     25  H   UNL     1      44.958   4.375  12.884  0.00  0.00    +0.000 HD
BRANCH  24  26
ATOM     26  C   UNL     1      44.353   3.953  10.975  0.00  0.00    +0.000 C 
ATOM     27  C   UNL     1      43.531   2.786  11.572  0.00  0.00    +0.000 C 
ATOM     28  C   UNL     1      43.396   5.095  10.580  0.00  0.00    +0.000 C 
BRANCH  26  29
ATOM     29  C   UNL     1      45.039   3.459   9.671  0.00  0.00    +0.000 A 
ATOM     30  C   UNL     1      45.427   4.357   8.673  0.00  0.00    +0.000 A 
ATOM     31  C   UNL     1      46.069   3.879   7.531  0.00  0.00    +0.000 A 
ATOM     32  C   UNL     1      46.292   2.517   7.394  0.00  0.00    +0.000 A 
ATOM     33  C   UNL     1      45.853   1.683   8.404  0.00  0.00    +0.000 A 
ATOM     34  N   UNL     1      45.234   2.120   9.524  0.00  0.00    +0.000 NA
ENDBRANCH  26  29
ENDBRANCH  24  26
ENDBRANCH  23  24
ENDBRANCH   4  23
TORSDOF 8
ENDMDL
MODEL 2
REMARK VINA RESULT:    -7.289      5.571      6.829
REMARK INTER + INTRA:         -11.982
REMARK INTER:                 -10.557
REMARK INTRA:                  -1.425
REMARK UNBOUND:                -1.284
REMARK  Name = 
REMARK  11 active torsions:
REMARK  status: ('A' for Active; 'I' for Inactive)
REMARK    1  A    between atoms: C_1  and  O_2
REMARK    2  A    between atoms: O_2  and  C_3
REMARK    3  A    between atoms: C_10  and  C_11
REMARK    4  A    between atoms: N_13  and  C_14
REMARK    5  A    between atoms: C_14  and  C_15
REMARK    6  A    between atoms: C_18  and  C_19
REMARK    7  A    between atoms: C_19  and  N_20
REMARK    8  A    between atoms: N_20  and  C_21
REMARK    9  A    between atoms: C_21  and  C_22
REMARK   10  A    between atoms: C_21  and  C_23
REMARK   11  A    between atoms: C_21  and  C_24
REMARK                            x       y       z     vdW  Elec       q    Type
REMARK                         _______ _______ _______ _____ _____    ______ ____
ROOT
ATOM      1  C   UNL     1      49.122   7.612  11.986  0.00  0.00    +0.000 A 
ATOM      2  C   UNL     1      49.088   6.940  13.217  0.00  0.00    +0.000 A 
ATOM      3  C   UNL     1      47.936   6.259  13.628  0.00  0.00    +0.000 A 
ATOM      4  C   UNL     1      46.802   6.214  12.808  0.00  0.00    +0.000 A 
ATOM      5  C   UNL     1      46.834   6.890  11.579  0.00  0.00    +0.000 A 
ATOM      6  C   UNL     1      47.983   7.573  11.170  0.00  0.00    +0.000 A 
ENDROOT
BRANCH   1   7
ATOM      7  C   UNL     1      50.377   8.307  11.521  0.00  0.00    +0.000 C 
BRANCH   7  10
ATOM      8  C   UNL     1      52.378   7.665  10.233  0.00  0.00    +0.000 C 
ATOM      9  O   UNL     1      52.500   8.802   9.782  0.00  0.00    +0.000 OA
ATOM     10  N   UNL     1      51.365   7.348  11.095  0.00  0.00    +0.000 N 
ATOM     11  H   UNL     1      51.262   6.401  11.429  0.00  0.00    +0.000 HD
BRANCH   8  19
ATOM     12  C   UNL     1      53.067   6.034   7.277  0.00  0.00    +0.000 A 
ATOM     13  N   UNL     1      53.553   5.278   6.273  0.00  0.00    +0.000 NA
ATOM     14  C   UNL     1      54.524   4.408   6.557  0.00  0.00    +0.000 A 
ATOM     15  N   UNL     1      55.080   4.187   7.745  0.00  0.00    +0.000 NA
ATOM     16  C   UNL     1      54.575   4.968   8.715  0.00  0.00    +0.000 A 
ATOM     17  S   UNL     1      55.164   4.819  10.300  0.00  0.00    +0.000 S 
ATOM     18  C   UNL     1      54.123   6.043  10.854  0.00  0.00    +0.000 A 
ATOM     19  C   UNL     1      53.314   6.587   9.863  0.00  0.00    +0.000 A 
ATOM     20  C   UNL     1      53.578   5.930   8.581  0.00  0.00    +0.000 A 
BRANCH  12  22
ATOM     21  C   UNL     1      52.583   8.147   6.394  0.00  0.00    +0.000 C 
ATOM     22  O   UNL     1      52.079   6.950   6.979  0.00  0.00    +0.000 OA
ENDBRANCH  12  22
ENDBRANCH   8  19
ENDBRANCH   7  10
ENDBRANCH   1   7
BRANCH   4  23
ATOM     23  C   UNL     1      45.560   5.458  13.237  0.00  0.00    +0.000 C 
BRANCH  23  24
ATOM     24  N   UNL     1      45.478   4.164  12.566  0.00  0.00    +0.000 NA
ATOM     25  H   UNL     1      45.385   3.440  13.279  0.00  0.00    +0.000 HD
BRANCH  24  26
ATOM     26  C   UNL     1      44.365   3.988  11.591  0.00  0.00    +0.000 C 
ATOM     27  C   UNL     1      43.430   2.843  12.049  0.00  0.00    +0.000 C 
ATOM     28  C   UNL     1      43.541   5.281  11.437  0.00  0.00    +0.000 C 
BRANCH  26  29
ATOM     29  C   UNL     1      44.930   3.635  10.187  0.00  0.00    +0.000 A 
ATOM     30  C   UNL     1      45.342   4.634   9.301  0.00  0.00    +0.000 A 
ATOM     31  C   UNL     1      45.873   4.277   8.062  0.00  0.00    +0.000 A 
ATOM     32  C   UNL     1      45.963   2.935   7.720  0.00  0.00    +0.000 A 
ATOM     33  C   UNL     1      45.505   2.002   8.631  0.00  0.00    +0.000 A 
ATOM     34  N   UNL     1      44.993   2.320   9.841  0.00  0.00    +0.000 NA
ENDBRANCH  26  29
ENDBRANCH  24  26
ENDBRANCH  23  24
ENDBRANCH   4  23
TORSDOF 8
ENDMDL
MODEL 3
REMARK VINA RESULT:    -7.018      3.565      8.390
REMARK INTER + INTRA:         -11.584
REMARK INTER:                  -9.727
REMARK INTRA:                  -1.856
REMARK UNBOUND:                -1.284
REMARK  Name = 
REMARK  11 active torsions:
REMARK  status: ('A' for Active; 'I' for Inactive)
REMARK    1  A    between atoms: C_1  and  O_2
REMARK    2  A    between atoms: O_2  and  C_3
REMARK    3  A    between atoms: C_10  and  C_11
REMARK    4  A    between atoms: N_13  and  C_14
REMARK    5  A    between atoms: C_14  and  C_15
REMARK    6  A    between atoms: C_18  and  C_19
REMARK    7  A    between atoms: C_19  and  N_20
REMARK    8  A    between atoms: N_20  and  C_21
REMARK    9  A    between atoms: C_21  and  C_22
REMARK   10  A    between atoms: C_21  and  C_23
REMARK   11  A    between atoms: C_21  and  C_24
REMARK                            x       y       z     vdW  Elec       q    Type
REMARK                         _______ _______ _______ _____ _____    ______ ____
ROOT
ATOM      1  C   UNL     1      48.550   7.964  13.392  0.00  0.00    +0.000 A 
ATOM      2  C   UNL     1      47.888   8.946  14.145  0.00  0.00    +0.000 A 
ATOM      3  C   UNL     1      47.960   8.942  15.543  0.00  0.00    +0.000 A 
ATOM      4  C   UNL     1      48.714   7.973  16.217  0.00  0.00    +0.000 A 
ATOM      5  C   UNL     1      49.371   6.989  15.464  0.00  0.00    +0.000 A 
ATOM      6  C   UNL     1      49.297   6.990  14.068  0.00  0.00    +0.000 A 
ENDROOT
BRANCH   1   7
ATOM      7  C   UNL     1      48.512   7.993  11.884  0.00  0.00    +0.000 C 
BRANCH   7  10
ATOM      8  C   UNL     1      46.362   6.929  11.318  0.00  0.00    +0.000 C 
ATOM      9  O   UNL     1      45.731   7.912  11.704  0.00  0.00    +0.000 OA
ATOM     10  N   UNL     1      47.728   6.898  11.371  0.00  0.00    +0.000 N 
ATOM     11  H   UNL     1      48.227   6.070  11.081  0.00  0.00    +0.000 HD
BRANCH   8  19
ATOM     12  C   UNL     1      44.604   4.354  12.784  0.00  0.00    +0.000 A 
ATOM     13  N   UNL     1      43.855   3.275  13.084  0.00  0.00    +0.000 NA
ATOM     14  C   UNL     1      43.447   2.496  12.079  0.00  0.00    +0.000 A 
ATOM     15  N   UNL     1      43.703   2.660  10.785  0.00  0.00    +0.000 NA
ATOM     16  C   UNL     1      44.443   3.752  10.528  0.00  0.00    +0.000 A 
ATOM     17  S   UNL     1      44.872   4.115   8.927  0.00  0.00    +0.000 S 
ATOM     18  C   UNL     1      45.705   5.514   9.414  0.00  0.00    +0.000 A 
ATOM     19  C   UNL     1      45.677   5.736  10.787  0.00  0.00    +0.000 A 
ATOM     20  C   UNL     1      44.930   4.669  11.455  0.00  0.00    +0.000 A 
BRANCH  12  22
ATOM     21  C   UNL     1      46.304   4.854  14.312  0.00  0.00    +0.000 C 
ATOM     22  O   UNL     1      45.006   5.172  13.820  0.00  0.00    +0.000 OA
ENDBRANCH  12  22
ENDBRANCH   8  19
ENDBRANCH   7  10
ENDBRANCH   1   7
BRANCH   4  23
ATOM     23  C   UNL     1      48.814   7.979  17.729  0.00  0.00    +0.000 C 
BRANCH  23  24
ATOM     24  N   UNL     1      49.661   6.887  18.200  0.00  0.00    +0.000 NA
ATOM     25  H   UNL     1      50.375   7.278  18.816  0.00  0.00    +0.000 HD
BRANCH  24  26
ATOM     26  C   UNL     1      48.979   5.786  18.939  0.00  0.00    +0.000 C 
ATOM     27  C   UNL     1      49.669   5.551  20.304  0.00  0.00    +0.000 C 
ATOM     28  C   UNL     1      47.490   6.104  19.174  0.00  0.00    +0.000 C 
BRANCH  26  29
ATOM     29  C   UNL     1      49.042   4.467  18.118  0.00  0.00    +0.000 A 
ATOM     30  C   UNL     1      50.250   3.787  17.936  0.00  0.00    +0.000 A 
ATOM     31  C   UNL     1      50.261   2.590  17.221  0.00  0.00    +0.000 A 
ATOM     32  C   UNL     1      49.078   2.106  16.681  0.00  0.00    +0.000 A 
ATOM     33  C   UNL     1      47.928   2.848  16.871  0.00  0.00    +0.000 A 
ATOM     34  N   UNL     1      47.887   4.007  17.567  0.00  0.00    +0.000 NA
ENDBRANCH  26  29
ENDBRANCH  24  26
ENDBRANCH  23  24
ENDBRANCH   4  23
TORSDOF 8
ENDMDL
MODEL 4
REMARK VINA RESULT:    -6.795      2.620      3.050
REMARK INTER + INTRA:         -11.257
REMARK INTER:                  -9.609
REMARK INTRA:                  -1.648
REMARK UNBOUND:                -1.284
REMARK  Name = 
REMARK  11 active torsions:
REMARK  status: ('A' for Active; 'I' for Inactive)
REMARK    1  A    between atoms: C_1  and  O_2
REMARK    2  A    between atoms: O_2  and  C_3
REMARK    3  A    between atoms: C_10  and  C_11
REMARK    4  A    between atoms: N_13  and  C_14
REMARK    5  A    between atoms: C_14  and  C_15
REMARK    6  A    between atoms: C_18  and  C_19
REMARK    7  A    between atoms: C_19  and  N_20
REMARK    8  A    between atoms: N_20  and  C_21
REMARK    9  A    between atoms: C_21  and  C_22
REMARK   10  A    between atoms: C_21  and  C_23
REMARK   11  A    between atoms: C_21  and  C_24
REMARK                            x       y       z     vdW  Elec       q    Type
REMARK                         _______ _______ _______ _____ _____    ______ ____
ROOT
ATOM      1  C   UNL     1      48.117   8.227  13.622  0.00  0.00    +0.000 A 
ATOM      2  C   UNL     1      46.941   8.939  13.342  0.00  0.00    +0.000 A 
ATOM      3  C   UNL     1      45.967   8.403  12.491  0.00  0.00    +0.000 A 
ATOM      4  C   UNL     1      46.135   7.134  11.922  0.00  0.00    +0.000 A 
ATOM      5  C   UNL     1      47.314   6.425  12.199  0.00  0.00    +0.000 A 
ATOM      6  C   UNL     1      48.288   6.962  13.045  0.00  0.00    +0.000 A 
ENDROOT
BRANCH   1   7
ATOM      7  C   UNL     1      49.147   8.783  14.574  0.00  0.00    +0.000 C 
BRANCH   7  10
ATOM      8  C   UNL     1      48.530   8.399  16.929  0.00  0.00    +0.000 C 
ATOM      9  O   UNL     1      47.861   9.431  16.962  0.00  0.00    +0.000 OA
ATOM     10  N   UNL     1      49.184   8.014  15.793  0.00  0.00    +0.000 N 
ATOM     11  H   UNL     1      49.756   7.181  15.795  0.00  0.00    +0.000 HD
BRANCH   8  19
ATOM     12  C   UNL     1      48.433   4.986  17.393  0.00  0.00    +0.000 A 
ATOM     13  N   UNL     1      48.477   3.717  17.844  0.00  0.00    +0.000 NA
ATOM     14  C   UNL     1      48.687   3.522  19.148  0.00  0.00    +0.000 A 
ATOM     15  N   UNL     1      48.855   4.455  20.080  0.00  0.00    +0.000 NA
ATOM     16  C   UNL     1      48.815   5.705  19.588  0.00  0.00    +0.000 A 
ATOM     17  S   UNL     1      49.007   7.025  20.637  0.00  0.00    +0.000 S 
ATOM     18  C   UNL     1      48.858   8.130  19.355  0.00  0.00    +0.000 A 
ATOM     19  C   UNL     1      48.663   7.531  18.115  0.00  0.00    +0.000 A 
ATOM     20  C   UNL     1      48.623   6.075  18.260  0.00  0.00    +0.000 A 
BRANCH  12  22
ATOM     21  C   UNL     1      47.231   4.347  15.490  0.00  0.00    +0.000 C 
ATOM     22  O   UNL     1      48.240   5.187  16.042  0.00  0.00    +0.000 OA
ENDBRANCH  12  22
ENDBRANCH   8  19
ENDBRANCH   7  10
ENDBRANCH   1   7
BRANCH   4  23
ATOM     23  C   UNL     1      45.073   6.539  11.020  0.00  0.00    +0.000 C 
BRANCH  23  24
ATOM     24  N   UNL     1      45.667   5.624  10.048  0.00  0.00    +0.000 NA
ATOM     25  H   UNL     1      46.653   5.504  10.284  0.00  0.00    +0.000 HD
BRANCH  24  26
ATOM     26  C   UNL     1      45.055   4.269   9.950  0.00  0.00    +0.000 C 
ATOM     27  C   UNL     1      45.279   3.485  11.266  0.00  0.00    +0.000 C 
ATOM     28  C   UNL     1      43.543   4.352   9.663  0.00  0.00    +0.000 C 
BRANCH  26  29
ATOM     29  C   UNL     1      45.700   3.471   8.782  0.00  0.00    +0.000 A 
ATOM     30  C   UNL     1      45.837   2.081   8.845  0.00  0.00    +0.000 A 
ATOM     31  C   UNL     1      46.391   1.397   7.764  0.00  0.00    +0.000 A 
ATOM     32  C   UNL     1      46.819   2.110   6.653  0.00  0.00    +0.000 A 
ATOM     33  C   UNL     1      46.683   3.484   6.673  0.00  0.00    +0.000 A 
ATOM     34  N   UNL     1      46.143   4.172   7.704  0.00  0.00    +0.000 NA
ENDBRANCH  26  29
ENDBRANCH  24  26
ENDBRANCH  23  24
ENDBRANCH   4  23
TORSDOF 8
ENDMDL
MODEL 5
REMARK VINA RESULT:    -6.751      2.150      2.641
REMARK INTER + INTRA:         -11.192
REMARK INTER:                  -9.717
REMARK INTRA:                  -1.475
REMARK UNBOUND:                -1.284
REMARK  Name = 
REMARK  11 active torsions:
REMARK  status: ('A' for Active; 'I' for Inactive)
REMARK    1  A    between atoms: C_1  and  O_2
REMARK    2  A    between atoms: O_2  and  C_3
REMARK    3  A    between atoms: C_10  and  C_11
REMARK    4  A    between atoms: N_13  and  C_14
REMARK    5  A    between atoms: C_14  and  C_15
REMARK    6  A    between atoms: C_18  and  C_19
REMARK    7  A    between atoms: C_19  and  N_20
REMARK    8  A    between atoms: N_20  and  C_21
REMARK    9  A    between atoms: C_21  and  C_22
REMARK   10  A    between atoms: C_21  and  C_23
REMARK   11  A    between atoms: C_21  and  C_24
REMARK                            x       y       z     vdW  Elec       q    Type
REMARK                         _______ _______ _______ _____ _____    ______ ____
ROOT
ATOM      1  C   UNL     1      48.803   8.014  12.624  0.00  0.00    +0.000 A 
ATOM      2  C   UNL     1      47.652   8.802  12.473  0.00  0.00    +0.000 A 
ATOM      3  C   UNL     1      46.380   8.218  12.493  0.00  0.00    +0.000 A 
ATOM      4  C   UNL     1      46.229   6.840  12.690  0.00  0.00    +0.000 A 
ATOM      5  C   UNL     1      47.380   6.052  12.836  0.00  0.00    +0.000 A 
ATOM      6  C   UNL     1      48.651   6.634  12.812  0.00  0.00    +0.000 A 
ENDROOT
BRANCH   1   7
ATOM      7  C   UNL     1      50.173   8.646  12.649  0.00  0.00    +0.000 C 
BRANCH   7  10
ATOM      8  C   UNL     1      51.310   8.396  14.821  0.00  0.00    +0.000 C 
ATOM      9  O   UNL     1      50.803   9.432  15.249  0.00  0.00    +0.000 OA
ATOM     10  N   UNL     1      51.044   7.945  13.558  0.00  0.00    +0.000 N 
ATOM     11  H   UNL     1      51.495   7.110  13.213  0.00  0.00    +0.000 HD
BRANCH   8  19
ATOM     12  C   UNL     1      50.902   5.610  16.808  0.00  0.00    +0.000 A 
ATOM     13  N   UNL     1      51.031   4.528  17.601  0.00  0.00    +0.000 NA
ATOM     14  C   UNL     1      52.245   4.242  18.077  0.00  0.00    +0.000 A 
ATOM     15  N   UNL     1      53.369   4.919  17.863  0.00  0.00    +0.000 NA
ATOM     16  C   UNL     1      53.199   5.982  17.060  0.00  0.00    +0.000 A 
ATOM     17  S   UNL     1      54.528   6.967  16.681  0.00  0.00    +0.000 S 
ATOM     18  C   UNL     1      53.568   7.976  15.708  0.00  0.00    +0.000 A 
ATOM     19  C   UNL     1      52.232   7.594  15.647  0.00  0.00    +0.000 A 
ATOM     20  C   UNL     1      52.010   6.405  16.471  0.00  0.00    +0.000 A 
BRANCH  12  22
ATOM     21  C   UNL     1      48.624   5.076  16.847  0.00  0.00    +0.000 C 
ATOM     22  O   UNL     1      49.652   5.893  16.296  0.00  0.00    +0.000 OA
ENDBRANCH  12  22
ENDBRANCH   8  19
ENDBRANCH   7  10
ENDBRANCH   1   7
BRANCH   4  23
ATOM     23  C   UNL     1      44.853   6.207  12.737  0.00  0.00    +0.000 C 
BRANCH  23  24
ATOM     24  N   UNL     1      44.938   4.759  12.568  0.00  0.00    +0.000 NA
ATOM     25  H   UNL     1      44.814   4.323  13.483  0.00  0.00    +0.000 HD
BRANCH  24  26
ATOM     26  C   UNL     1      43.959   4.138  11.631  0.00  0.00    +0.000 C 
ATOM     27  C   UNL     1      43.398   2.829  12.237  0.00  0.00    +0.000 C 
ATOM     28  C   UNL     1      42.790   5.094  11.323  0.00  0.00    +0.000 C 
BRANCH  26  29
ATOM     29  C   UNL     1      44.647   3.804  10.278  0.00  0.00    +0.000 A 
ATOM     30  C   UNL     1      45.243   4.803   9.504  0.00  0.00    +0.000 A 
ATOM     31  C   UNL     1      45.878   4.460   8.311  0.00  0.00    +0.000 A 
ATOM     32  C   UNL     1      45.888   3.134   7.901  0.00  0.00    +0.000 A 
ATOM     33  C   UNL     1      45.250   2.204   8.699  0.00  0.00    +0.000 A 
ATOM     34  N   UNL     1      44.633   2.508   9.863  0.00  0.00    +0.000 NA
ENDBRANCH  26  29
ENDBRANCH  24  26
ENDBRANCH  23  24
ENDBRANCH   4  23
TORSDOF 8
ENDMDL
MODEL 6
REMARK VINA RESULT:    -6.411      5.765      7.172
REMARK INTER + INTRA:         -10.693
REMARK INTER:                  -9.193
REMARK INTRA:                  -1.500
REMARK UNBOUND:                -1.284
REMARK  Name = 
REMARK  11 active torsions:
REMARK  status: ('A' for Active; 'I' for Inactive)
REMARK    1  A    between atoms: C_1  and  O_2
REMARK    2  A    between atoms: O_2  and  C_3
REMARK    3  A    between atoms: C_10  and  C_11
REMARK    4  A    between atoms: N_13  and  C_14
REMARK    5  A    between atoms: C_14  and  C_15
REMARK    6  A    between atoms: C_18  and  C_19
REMARK    7  A    between atoms: C_19  and  N_20
REMARK    8  A    between atoms: N_20  and  C_21
REMARK    9  A    between atoms: C_21  and  C_22
REMARK   10  A    between atoms: C_21  and  C_23
REMARK   11  A    between atoms: C_21  and  C_24
REMARK                            x       y       z     vdW  Elec       q    Type
REMARK                         _______ _______ _______ _____ _____    ______ ____
ROOT
ATOM      1  C   UNL     1      49.714   7.697  12.420  0.00  0.00    +0.000 A 
ATOM      2  C   UNL     1      48.828   8.218  11.464  0.00  0.00    +0.000 A 
ATOM      3  C   UNL     1      47.447   8.033  11.596  0.00  0.00    +0.000 A 
ATOM      4  C   UNL     1      46.920   7.345  12.696  0.00  0.00    +0.000 A 
ATOM      5  C   UNL     1      47.806   6.821  13.648  0.00  0.00    +0.000 A 
ATOM      6  C   UNL     1      49.186   7.002  13.516  0.00  0.00    +0.000 A 
ENDROOT
BRANCH   1   7
ATOM      7  C   UNL     1      51.200   7.935  12.304  0.00  0.00    +0.000 C 
BRANCH   7  10
ATOM      8  C   UNL     1      52.523   8.615  10.340  0.00  0.00    +0.000 C 
ATOM      9  O   UNL     1      52.995   9.577  10.943  0.00  0.00    +0.000 OA
ATOM     10  N   UNL     1      51.641   7.762  10.943  0.00  0.00    +0.000 N 
ATOM     11  H   UNL     1      51.239   6.997  10.422  0.00  0.00    +0.000 HD
BRANCH   8  19
ATOM     12  C   UNL     1      53.591   5.791   8.679  0.00  0.00    +0.000 A 
ATOM     13  N   UNL     1      53.974   4.850   7.794  0.00  0.00    +0.000 NA
ATOM     14  C   UNL     1      54.114   5.212   6.516  0.00  0.00    +0.000 A 
ATOM     15  N   UNL     1      53.922   6.422   6.001  0.00  0.00    +0.000 NA
ATOM     16  C   UNL     1      53.530   7.327   6.914  0.00  0.00    +0.000 A 
ATOM     17  S   UNL     1      53.243   8.929   6.435  0.00  0.00    +0.000 S 
ATOM     18  C   UNL     1      52.818   9.379   8.018  0.00  0.00    +0.000 A 
ATOM     19  C   UNL     1      52.882   8.337   8.936  0.00  0.00    +0.000 A 
ATOM     20  C   UNL     1      53.324   7.109   8.273  0.00  0.00    +0.000 A 
BRANCH  12  22
ATOM     21  C   UNL     1      54.646   5.370  10.725  0.00  0.00    +0.000 C 
ATOM     22  O   UNL     1      53.424   5.412   9.995  0.00  0.00    +0.000 OA
ENDBRANCH  12  22
ENDBRANCH   8  19
ENDBRANCH   7  10
ENDBRANCH   1   7
BRANCH   4  23
ATOM     23  C   UNL     1      45.423   7.163  12.856  0.00  0.00    +0.000 C 
BRANCH  23  24
ATOM     24  N   UNL     1      44.832   6.613  11.640  0.00  0.00    +0.000 NA
ATOM     25  H   UNL     1      45.550   6.597  10.914  0.00  0.00    +0.000 HD
BRANCH  24  26
ATOM     26  C   UNL     1      44.256   5.242  11.740  0.00  0.00    +0.000 C 
ATOM     27  C   UNL     1      44.780   4.535  13.013  0.00  0.00    +0.000 C 
ATOM     28  C   UNL     1      42.716   5.279  11.780  0.00  0.00    +0.000 C 
BRANCH  26  29
ATOM     29  C   UNL     1      44.661   4.396  10.501  0.00  0.00    +0.000 A 
ATOM     30  C   UNL     1      44.286   3.055  10.387  0.00  0.00    +0.000 A 
ATOM     31  C   UNL     1      44.642   2.337   9.246  0.00  0.00    +0.000 A 
ATOM     32  C   UNL     1      45.382   2.961   8.251  0.00  0.00    +0.000 A 
ATOM     33  C   UNL     1      45.747   4.279   8.445  0.00  0.00    +0.000 A 
ATOM     34  N   UNL     1      45.410   5.000   9.538  0.00  0.00    +0.000 NA
ENDBRANCH  26  29
ENDBRANCH  24  26
ENDBRANCH  23  24
ENDBRANCH   4  23
TORSDOF 8
ENDMDL
MODEL 7
REMARK VINA RESULT:    -6.408      1.457      2.146
REMARK INTER + INTRA:         -10.689
REMARK INTER:                  -9.378
REMARK INTRA:                  -1.311
REMARK UNBOUND:                -1.284
REMARK  Name = 
REMARK  11 active torsions:
REMARK  status: ('A' for Active; 'I' for Inactive)
REMARK    1  A    between atoms: C_1  and  O_2
REMARK    2  A    between atoms: O_2  and  C_3
REMARK    3  A    between atoms: C_10  and  C_11
REMARK    4  A    between atoms: N_13  and  C_14
REMARK    5  A    between atoms: C_14  and  C_15
REMARK    6  A    between atoms: C_18  and  C_19
REMARK    7  A    between atoms: C_19  and  N_20
REMARK    8  A    between atoms: N_20  and  C_21
REMARK    9  A    between atoms: C_21  and  C_22
REMARK   10  A    between atoms: C_21  and  C_23
REMARK   11  A    between atoms: C_21  and  C_24
REMARK                            x       y       z     vdW  Elec       q    Type
REMARK                         _______ _______ _______ _____ _____    ______ ____
ROOT
ATOM      1  C   UNL     1      48.677   5.909  16.922  0.00  0.00    +0.000 A 
ATOM      2  C   UNL     1      48.768   6.638  15.727  0.00  0.00    +0.000 A 
ATOM      3  C   UNL     1      48.100   6.208  14.575  0.00  0.00    +0.000 A 
ATOM      4  C   UNL     1      47.307   5.054  14.598  0.00  0.00    +0.000 A 
ATOM      5  C   UNL     1      47.220   4.322  15.792  0.00  0.00    +0.000 A 
ATOM      6  C   UNL     1      47.890   4.750  16.942  0.00  0.00    +0.000 A 
ENDROOT
BRANCH   1   7
ATOM      7  C   UNL     1      49.359   6.395  18.177  0.00  0.00    +0.000 C 
BRANCH   7  10
ATOM      8  C   UNL     1      51.720   5.743  18.450  0.00  0.00    +0.000 C 
ATOM      9  O   UNL     1      52.109   6.805  17.966  0.00  0.00    +0.000 OA
ATOM     10  N   UNL     1      50.387   5.474  18.591  0.00  0.00    +0.000 N 
ATOM     11  H   UNL     1      50.086   4.583  18.960  0.00  0.00    +0.000 HD
BRANCH   8  19
ATOM     12  C   UNL     1      52.057   2.381  17.777  0.00  0.00    +0.000 A 
ATOM     13  N   UNL     1      52.436   1.093  17.662  0.00  0.00    +0.000 NA
ATOM     14  C   UNL     1      53.510   0.692  18.346  0.00  0.00    +0.000 A 
ATOM     15  N   UNL     1      54.266   1.430  19.153  0.00  0.00    +0.000 NA
ATOM     16  C   UNL     1      53.862   2.709  19.231  0.00  0.00    +0.000 A 
ATOM     17  S   UNL     1      54.708   3.796  20.222  0.00  0.00    +0.000 S 
ATOM     18  C   UNL     1      53.672   5.072  19.793  0.00  0.00    +0.000 A 
ATOM     19  C   UNL     1      52.671   4.709  18.898  0.00  0.00    +0.000 A 
ATOM     20  C   UNL     1      52.779   3.285  18.574  0.00  0.00    +0.000 A 
BRANCH  12  22
ATOM     21  C   UNL     1      50.087   1.736  16.692  0.00  0.00    +0.000 C 
ATOM     22  O   UNL     1      50.961   2.801  17.052  0.00  0.00    +0.000 OA
ENDBRANCH  12  22
ENDBRANCH   8  19
ENDBRANCH   7  10
ENDBRANCH   1   7
BRANCH   4  23
ATOM     23  C   UNL     1      46.561   4.597  13.360  0.00  0.00    +0.000 C 
BRANCH  23  24
ATOM     24  N   UNL     1      45.511   5.545  13.003  0.00  0.00    +0.000 NA
ATOM     25  H   UNL     1      45.547   6.325  13.661  0.00  0.00    +0.000 HD
BRANCH  24  26
ATOM     26  C   UNL     1      45.565   6.111  11.625  0.00  0.00    +0.000 C 
ATOM     27  C   UNL     1      44.535   7.257  11.478  0.00  0.00    +0.000 C 
ATOM     28  C   UNL     1      46.970   6.649  11.291  0.00  0.00    +0.000 C 
BRANCH  26  29
ATOM     29  C   UNL     1      45.234   5.011  10.578  0.00  0.00    +0.000 A 
ATOM     30  C   UNL     1      45.682   5.112   9.258  0.00  0.00    +0.000 A 
ATOM     31  C   UNL     1      45.392   4.089   8.355  0.00  0.00    +0.000 A 
ATOM     32  C   UNL     1      44.645   2.999   8.777  0.00  0.00    +0.000 A 
ATOM     33  C   UNL     1      44.207   2.981  10.087  0.00  0.00    +0.000 A 
ATOM     34  N   UNL     1      44.479   3.955  10.985  0.00  0.00    +0.000 NA
ENDBRANCH  26  29
ENDBRANCH  24  26
ENDBRANCH  23  24
ENDBRANCH   4  23
TORSDOF 8
ENDMDL
MODEL 8
REMARK VINA RESULT:    -6.187      3.201      4.855
REMARK INTER + INTRA:         -10.365
REMARK INTER:                  -9.090
REMARK INTRA:                  -1.274
REMARK UNBOUND:                -1.284
REMARK  Name = 
REMARK  11 active torsions:
REMARK  status: ('A' for Active; 'I' for Inactive)
REMARK    1  A    between atoms: C_1  and  O_2
REMARK    2  A    between atoms: O_2  and  C_3
REMARK    3  A    between atoms: C_10  and  C_11
REMARK    4  A    between atoms: N_13  and  C_14
REMARK    5  A    between atoms: C_14  and  C_15
REMARK    6  A    between atoms: C_18  and  C_19
REMARK    7  A    between atoms: C_19  and  N_20
REMARK    8  A    between atoms: N_20  and  C_21
REMARK    9  A    between atoms: C_21  and  C_22
REMARK   10  A    between atoms: C_21  and  C_23
REMARK   11  A    between atoms: C_21  and  C_24
REMARK                            x       y       z     vdW  Elec       q    Type
REMARK                         _______ _______ _______ _____ _____    ______ ____
ROOT
ATOM      1  C   UNL     1      47.219   4.747  14.626  0.00  0.00    +0.000 A 
ATOM      2  C   UNL     1      47.031   6.010  14.046  0.00  0.00    +0.000 A 
ATOM      3  C   UNL     1      46.323   6.147  12.845  0.00  0.00    +0.000 A 
ATOM      4  C   UNL     1      45.768   5.028  12.212  0.00  0.00    +0.000 A 
ATOM      5  C   UNL     1      45.961   3.765  12.790  0.00  0.00    +0.000 A 
ATOM      6  C   UNL     1      46.670   3.627  13.986  0.00  0.00    +0.000 A 
ENDROOT
BRANCH   1   7
ATOM      7  C   UNL     1      47.941   4.602  15.942  0.00  0.00    +0.000 C 
BRANCH   7  10
ATOM      8  C   UNL     1      48.182   5.856  18.050  0.00  0.00    +0.000 C 
ATOM      9  O   UNL     1      48.698   4.891  18.610  0.00  0.00    +0.000 OA
ATOM     10  N   UNL     1      47.790   5.792  16.742  0.00  0.00    +0.000 N 
ATOM     11  H   UNL     1      47.337   6.584  16.309  0.00  0.00    +0.000 HD
BRANCH   8  19
ATOM     12  C   UNL     1      48.314   9.166  17.099  0.00  0.00    +0.000 A 
ATOM     13  N   UNL     1      48.257  10.507  16.991  0.00  0.00    +0.000 NA
ATOM     14  C   UNL     1      47.926  11.210  18.077  0.00  0.00    +0.000 A 
ATOM     15  N   UNL     1      47.647  10.732  19.286  0.00  0.00    +0.000 NA
ATOM     16  C   UNL     1      47.704   9.391  19.348  0.00  0.00    +0.000 A 
ATOM     17  S   UNL     1      47.381   8.606  20.818  0.00  0.00    +0.000 S 
ATOM     18  C   UNL     1      47.627   7.080  20.114  0.00  0.00    +0.000 A 
ATOM     19  C   UNL     1      47.955   7.127  18.764  0.00  0.00    +0.000 A 
ATOM     20  C   UNL     1      48.015   8.518  18.309  0.00  0.00    +0.000 A 
BRANCH  12  22
ATOM     21  C   UNL     1      50.036   8.291  15.778  0.00  0.00    +0.000 C 
ATOM     22  O   UNL     1      48.633   8.438  15.971  0.00  0.00    +0.000 OA
ENDBRANCH  12  22
ENDBRANCH   8  19
ENDBRANCH   7  10
ENDBRANCH   1   7
BRANCH   4  23
ATOM     23  C   UNL     1      44.981   5.173  10.925  0.00  0.00    +0.000 C 
BRANCH  23  24
ATOM     24  N   UNL     1      45.686   4.550   9.809  0.00  0.00    +0.000 NA
ATOM     25  H   UNL     1      46.544   4.129  10.168  0.00  0.00    +0.000 HD
BRANCH  24  26
ATOM     26  C   UNL     1      44.944   3.500   9.055  0.00  0.00    +0.000 C 
ATOM     27  C   UNL     1      44.290   2.500  10.039  0.00  0.00    +0.000 C 
ATOM     28  C   UNL     1      43.852   4.114   8.158  0.00  0.00    +0.000 C 
BRANCH  26  29
ATOM     29  C   UNL     1      45.914   2.718   8.126  0.00  0.00    +0.000 A 
ATOM     30  C   UNL     1      46.564   3.351   7.063  0.00  0.00    +0.000 A 
ATOM     31  C   UNL     1      47.452   2.624   6.270  0.00  0.00    +0.000 A 
ATOM     32  C   UNL     1      47.658   1.278   6.536  0.00  0.00    +0.000 A 
ATOM     33  C   UNL     1      46.956   0.709   7.582  0.00  0.00    +0.000 A 
ATOM     34  N   UNL     1      46.096   1.392   8.370  0.00  0.00    +0.000 NA
ENDBRANCH  26  29
ENDBRANCH  24  26
ENDBRANCH  23  24
ENDBRANCH   4  23
TORSDOF 8
ENDMDL
MODEL 9
REMARK VINA RESULT:    -5.710      3.371      9.108
REMARK INTER + INTRA:          -9.665
REMARK INTER:                  -8.728
REMARK INTRA:                  -0.937
REMARK UNBOUND:                -1.284
REMARK  Name = 
REMARK  11 active torsions:
REMARK  status: ('A' for Active; 'I' for Inactive)
REMARK    1  A    between atoms: C_1  and  O_2
REMARK    2  A    between atoms: O_2  and  C_3
REMARK    3  A    between atoms: C_10  and  C_11
REMARK    4  A    between atoms: N_13  and  C_14
REMARK    5  A    between atoms: C_14  and  C_15
REMARK    6  A    between atoms: C_18  and  C_19
REMARK    7  A    between atoms: C_19  and  N_20
REMARK    8  A    between atoms: N_20  and  C_21
REMARK    9  A    between atoms: C_21  and  C_22
REMARK   10  A    between atoms: C_21  and  C_23
REMARK   11  A    between atoms: C_21  and  C_24
REMARK                            x       y       z     vdW  Elec       q    Type
REMARK                         _______ _______ _______ _____ _____    ______ ____
ROOT
ATOM      1  C   UNL     1      48.688   7.802  13.334  0.00  0.00    +0.000 A 
ATOM      2  C   UNL     1      49.660   8.624  13.924  0.00  0.00    +0.000 A 
ATOM      3  C   UNL     1      50.246   8.274  15.146  0.00  0.00    +0.000 A 
ATOM      4  C   UNL     1      49.892   7.084  15.793  0.00  0.00    +0.000 A 
ATOM      5  C   UNL     1      48.916   6.264  15.206  0.00  0.00    +0.000 A 
ATOM      6  C   UNL     1      48.328   6.615  13.987  0.00  0.00    +0.000 A 
ENDROOT
BRANCH   1   7
ATOM      7  C   UNL     1      48.089   8.154  11.995  0.00  0.00    +0.000 C 
BRANCH   7  10
ATOM      8  C   UNL     1      46.089   6.898  11.291  0.00  0.00    +0.000 C 
ATOM      9  O   UNL     1      45.342   7.792  11.685  0.00  0.00    +0.000 OA
ATOM     10  N   UNL     1      47.447   7.006  11.405  0.00  0.00    +0.000 N 
ATOM     11  H   UNL     1      48.042   6.247  11.106  0.00  0.00    +0.000 HD
BRANCH   8  19
ATOM     12  C   UNL     1      44.357   4.193  12.541  0.00  0.00    +0.000 A 
ATOM     13  N   UNL     1      43.656   3.062  12.750  0.00  0.00    +0.000 NA
ATOM     14  C   UNL     1      43.424   2.265  11.705  0.00  0.00    +0.000 A 
ATOM     15  N   UNL     1      43.818   2.457  10.449  0.00  0.00    +0.000 NA
ATOM     16  C   UNL     1      44.503   3.600  10.281  0.00  0.00    +0.000 A 
ATOM     17  S   UNL     1      45.090   4.006   8.741  0.00  0.00    +0.000 S 
ATOM     18  C   UNL     1      45.760   5.455   9.323  0.00  0.00    +0.000 A 
ATOM     19  C   UNL     1      45.556   5.664  10.683  0.00  0.00    +0.000 A 
ATOM     20  C   UNL     1      44.814   4.541  11.259  0.00  0.00    +0.000 A 
BRANCH  12  22
ATOM     21  C   UNL     1      45.779   4.731  14.320  0.00  0.00    +0.000 C 
ATOM     22  O   UNL     1      44.576   5.029  13.617  0.00  0.00    +0.000 OA
ENDBRANCH  12  22
ENDBRANCH   8  19
ENDBRANCH   7  10
ENDBRANCH   1   7
BRANCH   4  23
ATOM     23  C   UNL     1      50.540   6.688  17.105  0.00  0.00    +0.000 C 
BRANCH  23  24
ATOM     24  N   UNL     1      50.931   5.282  17.090  0.00  0.00    +0.000 NA
ATOM     25  H   UNL     1      51.006   4.981  16.118  0.00  0.00    +0.000 HD
BRANCH  24  26
ATOM     26  C   UNL     1      52.212   4.939  17.771  0.00  0.00    +0.000 C 
ATOM     27  C   UNL     1      53.400   5.615  17.045  0.00  0.00    +0.000 C 
ATOM     28  C   UNL     1      52.203   5.385  19.246  0.00  0.00    +0.000 C 
BRANCH  26  29
ATOM     29  C   UNL     1      52.434   3.401  17.759  0.00  0.00    +0.000 A 
ATOM     30  C   UNL     1      51.367   2.518  17.567  0.00  0.00    +0.000 A 
ATOM     31  C   UNL     1      51.610   1.146  17.530  0.00  0.00    +0.000 A 
ATOM     32  C   UNL     1      52.904   0.678  17.709  0.00  0.00    +0.000 A 
ATOM     33  C   UNL     1      53.905   1.605  17.928  0.00  0.00    +0.000 A 
ATOM     34  N   UNL     1      53.698   2.941  17.961  0.00  0.00    +0.000 NA
ENDBRANCH  26  29
ENDBRANCH  24  26
ENDBRANCH  23  24
ENDBRANCH   4  23
TORSDOF 8
ENDMDL
