MODEL 1
REMARK VINA RESULT:    -7.023      0.000      0.000
REMARK INTER + INTRA:          -9.503
REMARK INTER:                  -8.871
REMARK INTRA:                  -0.633
REMARK UNBOUND:                -0.633
REMARK  Name = 
REMARK  5 active torsions:
REMARK  status: ('A' for Active; 'I' for Inactive)
REMARK    1  A    between atoms: N_1  and  C_2
REMARK    2  A    between atoms: C_2  and  C_3
REMARK    3  A    between atoms: C_6  and  N_7
REMARK    4  A    between atoms: N_7  and  C_8
REMARK    5  A    between atoms: C_8  and  C_9
REMARK                            x       y       z     vdW  Elec       q    Type
REMARK                         _______ _______ _______ _____ _____    ______ ____
ROOT
ATOM      1  C   UNL     1      47.008   2.358   7.289  0.00  0.00    +0.000 A 
ATOM      2  C   UNL     1      46.538   3.667   7.286  0.00  0.00    +0.000 A 
ATOM      3  C   UNL     1      45.477   4.004   8.123  0.00  0.00    +0.000 A 
ATOM      4  C   UNL     1      44.890   3.046   8.953  0.00  0.00    +0.000 A 
ATOM      5  C   UNL     1      45.379   1.748   8.811  0.00  0.00    +0.000 A 
ATOM      6  N   UNL     1      46.430   1.385   8.033  0.00  0.00    +0.000 NA
ENDROOT
BRANCH   4   7
ATOM      7  N   UNL     1      43.835   3.437   9.772  0.00  0.00    +0.000 N 
ATOM      8  H   UNL     1      42.942   3.131   9.395  0.00  0.00    +0.000 HD
BRANCH   7   9
ATOM      9  C   UNL     1      43.814   4.767  10.379  0.00  0.00    +0.000 C 
BRANCH   9  10
ATOM     10  C   UNL     1      43.677   4.677  11.911  0.00  0.00    +0.000 C 
ATOM     11  C   UNL     1      44.583   5.715  12.600  0.00  0.00    +0.000 C 
ATOM     12  C   UNL     1      46.040   5.257  12.660  0.00  0.00    +0.000 C 
ATOM     13  C   UNL     1      46.144   3.869  13.284  0.00  0.00    +0.000 C 
ATOM     14  N   UNL     1      45.364   2.906  12.511  0.00  0.00    +0.000 NA
ATOM     15  C   UNL     1      43.947   3.270  12.475  0.00  0.00    +0.000 C 
ATOM     16  H   UNL     1      45.459   1.980  12.928  0.00  0.00    +0.000 HD
ENDBRANCH   9  10
ENDBRANCH   7   9
ENDBRANCH   4   7
BRANCH   1  17
ATOM     17  C   UNL     1      48.236   1.985   6.489  0.00  0.00    +0.000 C 
BRANCH  17  18
ATOM     18  N   UNL     1      48.220   2.576   5.144  0.00  0.00    +0.000 NA
ATOM     19  H   UNL     1      48.093   1.827   4.466  0.00  0.00    +0.000 HD
ATOM     20  H   UNL     1      49.150   2.957   4.965  0.00  0.00    +0.000 HD
ENDBRANCH  17  18
ENDBRANCH   1  17
TORSDOF 5
ENDMDL
MODEL 2
REMARK VINA RESULT:    -6.458      2.095      2.739
REMARK INTER + INTRA:          -8.789
REMARK INTER:                  -8.469
REMARK INTRA:                  -0.320
REMARK UNBOUND:                -0.633
REMARK  Name = 
REMARK  5 active torsions:
REMARK  status: ('A' for Active; 'I' for Inactive)
REMARK    1  A    between atoms: N_1  and  C_2
REMARK    2  A    between atoms: C_2  and  C_3
REMARK    3  A    between atoms: C_6  and  N_7
REMARK    4  A    between atoms: N_7  and  C_8
REMARK    5  A    between atoms: C_8  and  C_9
REMARK                            x       y       z     vdW  Elec       q    Type
REMARK                         _______ _______ _______ _____ _____    ______ ____
ROOT
ATOM      1  C   UNL     1      46.183   2.084   7.976  0.00  0.00    +0.000 A 
ATOM      2  C   UNL     1      46.213   3.429   7.624  0.00  0.00    +0.000 A 
ATOM      3  C   UNL     1      45.430   4.331   8.341  0.00  0.00    +0.000 A 
ATOM      4  C   UNL     1      44.624   3.896   9.396  0.00  0.00    +0.000 A 
ATOM      5  C   UNL     1      44.601   2.518   9.605  0.00  0.00    +0.000 A 
ATOM      6  N   UNL     1      45.372   1.611   8.952  0.00  0.00    +0.000 NA
ENDROOT
BRANCH   4   7
ATOM      7  N   UNL     1      43.865   4.840  10.081  0.00  0.00    +0.000 N 
ATOM      8  H   UNL     1      43.382   5.462   9.438  0.00  0.00    +0.000 HD
BRANCH   7   9
ATOM      9  C   UNL     1      44.388   5.492  11.280  0.00  0.00    +0.000 C 
BRANCH   9  10
ATOM     10  C   UNL     1      45.295   6.683  10.914  0.00  0.00    +0.000 C 
ATOM     11  C   UNL     1      46.711   6.484  11.486  0.00  0.00    +0.000 C 
ATOM     12  C   UNL     1      46.785   6.828  12.973  0.00  0.00    +0.000 C 
ATOM     13  C   UNL     1      46.231   8.225  13.231  0.00  0.00    +0.000 C 
ATOM     14  N   UNL     1      44.844   8.311  12.781  0.00  0.00    +0.000 NA
ATOM     15  C   UNL     1      44.729   8.048  11.347  0.00  0.00    +0.000 C 
ATOM     16  H   UNL     1      44.482   9.244  12.979  0.00  0.00    +0.000 HD
ENDBRANCH   9  10
ENDBRANCH   7   9
ENDBRANCH   4   7
BRANCH   1  17
ATOM     17  C   UNL     1      47.112   1.097   7.304  0.00  0.00    +0.000 C 
BRANCH  17  18
ATOM     18  N   UNL     1      46.853  -0.285   7.729  0.00  0.00    +0.000 NA
ATOM     19  H   UNL     1      46.022  -0.290   8.318  0.00  0.00    +0.000 HD
ATOM     20  H   UNL     1      47.623  -0.569   8.335  0.00  0.00    +0.000 HD
ENDBRANCH  17  18
ENDBRANCH   1  17
TORSDOF 5
ENDMDL
MODEL 3
REMARK VINA RESULT:    -5.670      1.313      5.640
REMARK INTER + INTRA:          -7.794
REMARK INTER:                  -7.596
REMARK INTRA:                  -0.198
REMARK UNBOUND:                -0.633
REMARK  Name = 
REMARK  5 active torsions:
REMARK  status: ('A' for Active; 'I' for Inactive)
REMARK    1  A    between atoms: N_1  and  C_2
REMARK    2  A    between atoms: C_2  and  C_3
REMARK    3  A    between atoms: C_6  and  N_7
REMARK    4  A    between atoms: N_7  and  C_8
REMARK    5  A    between atoms: C_8  and  C_9
REMARK                            x       y       z     vdW  Elec       q    Type
REMARK                         _______ _______ _______ _____ _____    ______ ____
ROOT
ATOM      1  C   UNL     1      45.832   4.539  12.831  0.00  0.00    +0.000 A 
ATOM      2  C   UNL     1      46.002   5.576  11.920  0.00  0.00    +0.000 A 
ATOM      3  C   UNL     1      45.379   5.491  10.677  0.00  0.00    +0.000 A 
ATOM      4  C   UNL     1      44.595   4.383  10.346  0.00  0.00    +0.000 A 
ATOM      5  C   UNL     1      44.565   3.363  11.297  0.00  0.00    +0.000 A 
ATOM      6  N   UNL     1      45.131   3.421  12.529  0.00  0.00    +0.000 NA
ENDROOT
BRANCH   4   7
ATOM      7  N   UNL     1      43.991   4.350   9.092  0.00  0.00    +0.000 N 
ATOM      8  H   UNL     1      42.979   4.306   9.171  0.00  0.00    +0.000 HD
BRANCH   7   9
ATOM      9  C   UNL     1      44.552   3.536   8.015  0.00  0.00    +0.000 C 
BRANCH   9  10
ATOM     10  C   UNL     1      46.059   3.296   8.227  0.00  0.00    +0.000 C 
ATOM     11  C   UNL     1      46.880   3.965   7.108  0.00  0.00    +0.000 C 
ATOM     12  C   UNL     1      46.884   3.138   5.823  0.00  0.00    +0.000 C 
ATOM     13  C   UNL     1      47.322   1.705   6.106  0.00  0.00    +0.000 C 
ATOM     14  N   UNL     1      46.429   1.084   7.080  0.00  0.00    +0.000 NA
ATOM     15  C   UNL     1      46.437   1.808   8.352  0.00  0.00    +0.000 C 
ATOM     16  H   UNL     1      46.723   0.121   7.243  0.00  0.00    +0.000 HD
ENDBRANCH   9  10
ENDBRANCH   7   9
ENDBRANCH   4   7
BRANCH   1  17
ATOM     17  C   UNL     1      46.389   4.655  14.232  0.00  0.00    +0.000 C 
BRANCH  17  18
ATOM     18  N   UNL     1      47.279   3.535  14.568  0.00  0.00    +0.000 NA
ATOM     19  H   UNL     1      46.712   2.774  14.937  0.00  0.00    +0.000 HD
ATOM     20  H   UNL     1      47.875   3.837  15.339  0.00  0.00    +0.000 HD
ENDBRANCH  17  18
ENDBRANCH   1  17
TORSDOF 5
ENDMDL
MODEL 4
REMARK VINA RESULT:    -5.313      1.949      2.970
REMARK INTER + INTRA:          -7.344
REMARK INTER:                  -7.262
REMARK INTRA:                  -0.082
REMARK UNBOUND:                -0.633
REMARK  Name = 
REMARK  5 active torsions:
REMARK  status: ('A' for Active; 'I' for Inactive)
REMARK    1  A    between atoms: N_1  and  C_2
REMARK    2  A    between atoms: C_2  and  C_3
REMARK    3  A    between atoms: C_6  and  N_7
REMARK    4  A    between atoms: N_7  and  C_8
REMARK    5  A    between atoms: C_8  and  C_9
REMARK                            x       y       z     vdW  Elec       q    Type
REMARK                         _______ _______ _______ _____ _____    ______ ____
ROOT
ATOM      1  C   UNL     1      45.597   3.472   8.185  0.00  0.00    +0.000 A 
ATOM      2  C   UNL     1      44.901   2.608   9.024  0.00  0.00    +0.000 A 
ATOM      3  C   UNL     1      44.353   3.110  10.202  0.00  0.00    +0.000 A 
ATOM      4  C   UNL     1      44.497   4.457  10.540  0.00  0.00    +0.000 A 
ATOM      5  C   UNL     1      45.288   5.212   9.675  0.00  0.00    +0.000 A 
ATOM      6  N   UNL     1      45.812   4.770   8.503  0.00  0.00    +0.000 NA
ENDROOT
BRANCH   4   7
ATOM      7  N   UNL     1      43.926   4.907  11.727  0.00  0.00    +0.000 N 
ATOM      8  H   UNL     1      43.406   5.769  11.583  0.00  0.00    +0.000 HD
BRANCH   7   9
ATOM      9  C   UNL     1      44.672   4.851  12.983  0.00  0.00    +0.000 C 
BRANCH   9  10
ATOM     10  C   UNL     1      46.188   4.761  12.725  0.00  0.00    +0.000 C 
ATOM     11  C   UNL     1      46.847   3.762  13.696  0.00  0.00    +0.000 C 
ATOM     12  C   UNL     1      47.073   4.368  15.080  0.00  0.00    +0.000 C 
ATOM     13  C   UNL     1      47.837   5.685  14.974  0.00  0.00    +0.000 C 
ATOM     14  N   UNL     1      47.098   6.633  14.143  0.00  0.00    +0.000 NA
ATOM     15  C   UNL     1      46.908   6.121  12.786  0.00  0.00    +0.000 C 
ATOM     16  H   UNL     1      47.611   7.513  14.098  0.00  0.00    +0.000 HD
ENDBRANCH   9  10
ENDBRANCH   7   9
ENDBRANCH   4   7
BRANCH   1  17
ATOM     17  C   UNL     1      46.098   2.992   6.840  0.00  0.00    +0.000 C 
BRANCH  17  18
ATOM     18  N   UNL     1      46.903   4.011   6.154  0.00  0.00    +0.000 NA
ATOM     19  H   UNL     1      46.281   4.750   5.832  0.00  0.00    +0.000 HD
ATOM     20  H   UNL     1      47.286   3.583   5.311  0.00  0.00    +0.000 HD
ENDBRANCH  17  18
ENDBRANCH   1  17
TORSDOF 5
ENDMDL
MODEL 5
REMARK VINA RESULT:    -5.264      2.624      6.468
REMARK INTER + INTRA:          -7.282
REMARK INTER:                  -6.732
REMARK INTRA:                  -0.549
REMARK UNBOUND:                -0.633
REMARK  Name = 
REMARK  5 active torsions:
REMARK  status: ('A' for Active; 'I' for Inactive)
REMARK    1  A    between atoms: N_1  and  C_2
REMARK    2  A    between atoms: C_2  and  C_3
REMARK    3  A    between atoms: C_6  and  N_7
REMARK    4  A    between atoms: N_7  and  C_8
REMARK    5  A    between atoms: C_8  and  C_9
REMARK                            x       y       z     vdW  Elec       q    Type
REMARK                         _______ _______ _______ _____ _____    ______ ____
ROOT
ATOM      1  C   UNL     1      47.813   5.650  15.024  0.00  0.00    +0.000 A 
ATOM      2  C   UNL     1      47.075   4.473  14.984  0.00  0.00    +0.000 A 
ATOM      3  C   UNL     1      46.316   4.191  13.850  0.00  0.00    +0.000 A 
ATOM      4  C   UNL     1      46.293   5.075  12.769  0.00  0.00    +0.000 A 
ATOM      5  C   UNL     1      46.997   6.265  12.951  0.00  0.00    +0.000 A 
ATOM      6  N   UNL     1      47.773   6.563  14.024  0.00  0.00    +0.000 NA
ENDROOT
BRANCH   4   7
ATOM      7  N   UNL     1      45.521   4.744  11.659  0.00  0.00    +0.000 N 
ATOM      8  H   UNL     1      44.853   5.479  11.441  0.00  0.00    +0.000 HD
BRANCH   7   9
ATOM      9  C   UNL     1      45.007   3.387  11.486  0.00  0.00    +0.000 C 
BRANCH   9  10
ATOM     10  C   UNL     1      44.116   3.285  10.232  0.00  0.00    +0.000 C 
ATOM     11  C   UNL     1      44.539   2.088   9.360  0.00  0.00    +0.000 C 
ATOM     12  C   UNL     1      45.772   2.400   8.513  0.00  0.00    +0.000 C 
ATOM     13  C   UNL     1      45.563   3.678   7.707  0.00  0.00    +0.000 C 
ATOM     14  N   UNL     1      45.291   4.801   8.600  0.00  0.00    +0.000 NA
ATOM     15  C   UNL     1      44.082   4.575   9.392  0.00  0.00    +0.000 C 
ATOM     16  H   UNL     1      45.174   5.651   8.048  0.00  0.00    +0.000 HD
ENDBRANCH   9  10
ENDBRANCH   7   9
ENDBRANCH   4   7
BRANCH   1  17
ATOM     17  C   UNL     1      48.745   5.929  16.183  0.00  0.00    +0.000 C 
BRANCH  17  18
ATOM     18  N   UNL     1      49.273   4.693  16.777  0.00  0.00    +0.000 NA
ATOM     19  H   UNL     1      48.723   3.909  16.431  0.00  0.00    +0.000 HD
ATOM     20  H   UNL     1      49.095   4.735  17.781  0.00  0.00    +0.000 HD
ENDBRANCH  17  18
ENDBRANCH   1  17
TORSDOF 5
ENDMDL
MODEL 6
REMARK VINA RESULT:    -5.151      3.423      5.897
REMARK INTER + INTRA:          -7.138
REMARK INTER:                  -6.516
REMARK INTRA:                  -0.622
REMARK UNBOUND:                -0.633
REMARK  Name = 
REMARK  5 active torsions:
REMARK  status: ('A' for Active; 'I' for Inactive)
REMARK    1  A    between atoms: N_1  and  C_2
REMARK    2  A    between atoms: C_2  and  C_3
REMARK    3  A    between atoms: C_6  and  N_7
REMARK    4  A    between atoms: N_7  and  C_8
REMARK    5  A    between atoms: C_8  and  C_9
REMARK                            x       y       z     vdW  Elec       q    Type
REMARK                         _______ _______ _______ _____ _____    ______ ____
ROOT
ATOM      1  C   UNL     1      48.995   6.984  13.777  0.00  0.00    +0.000 A 
ATOM      2  C   UNL     1      48.849   7.698  12.592  0.00  0.00    +0.000 A 
ATOM      3  C   UNL     1      47.782   7.394  11.749  0.00  0.00    +0.000 A 
ATOM      4  C   UNL     1      46.871   6.390  12.084  0.00  0.00    +0.000 A 
ATOM      5  C   UNL     1      47.161   5.679  13.248  0.00  0.00    +0.000 A 
ATOM      6  N   UNL     1      48.170   5.964  14.111  0.00  0.00    +0.000 NA
ENDROOT
BRANCH   4   7
ATOM      7  N   UNL     1      45.821   6.130  11.209  0.00  0.00    +0.000 N 
ATOM      8  H   UNL     1      46.134   6.147  10.242  0.00  0.00    +0.000 HD
BRANCH   7   9
ATOM      9  C   UNL     1      44.501   6.719  11.430  0.00  0.00    +0.000 C 
BRANCH   9  10
ATOM     10  C   UNL     1      43.381   5.726  11.066  0.00  0.00    +0.000 C 
ATOM     11  C   UNL     1      42.606   5.294  12.326  0.00  0.00    +0.000 C 
ATOM     12  C   UNL     1      43.353   4.227  13.124  0.00  0.00    +0.000 C 
ATOM     13  C   UNL     1      43.734   3.052  12.230  0.00  0.00    +0.000 C 
ATOM     14  N   UNL     1      44.573   3.508  11.125  0.00  0.00    +0.000 NA
ATOM     15  C   UNL     1      43.877   4.490  10.292  0.00  0.00    +0.000 C 
ATOM     16  H   UNL     1      44.836   2.709  10.547  0.00  0.00    +0.000 HD
ENDBRANCH   9  10
ENDBRANCH   7   9
ENDBRANCH   4   7
BRANCH   1  17
ATOM     17  C   UNL     1      50.065   7.369  14.774  0.00  0.00    +0.000 C 
BRANCH  17  18
ATOM     18  N   UNL     1      50.140   6.426  15.897  0.00  0.00    +0.000 NA
ATOM     19  H   UNL     1      49.708   5.550  15.611  0.00  0.00    +0.000 HD
ATOM     20  H   UNL     1      49.553   6.793  16.646  0.00  0.00    +0.000 HD
ENDBRANCH  17  18
ENDBRANCH   1  17
TORSDOF 5
ENDMDL
MODEL 7
REMARK VINA RESULT:    -5.143      3.673      5.595
REMARK INTER + INTRA:          -7.129
REMARK INTER:                  -6.453
REMARK INTRA:                  -0.676
REMARK UNBOUND:                -0.633
REMARK  Name = 
REMARK  5 active torsions:
REMARK  status: ('A' for Active; 'I' for Inactive)
REMARK    1  A    between atoms: N_1  and  C_2
REMARK    2  A    between atoms: C_2  and  C_3
REMARK    3  A    between atoms: C_6  and  N_7
REMARK    4  A    between atoms: N_7  and  C_8
REMARK    5  A    between atoms: C_8  and  C_9
REMARK                            x       y       z     vdW  Elec       q    Type
REMARK                         _______ _______ _______ _____ _____    ______ ____
ROOT
ATOM      1  C   UNL     1      44.227   4.210  11.524  0.00  0.00    +0.000 A 
ATOM      2  C   UNL     1      43.788   5.390  10.933  0.00  0.00    +0.000 A 
ATOM      3  C   UNL     1      44.168   6.607  11.496  0.00  0.00    +0.000 A 
ATOM      4  C   UNL     1      44.977   6.646  12.634  0.00  0.00    +0.000 A 
ATOM      5  C   UNL     1      45.285   5.407  13.194  0.00  0.00    +0.000 A 
ATOM      6  N   UNL     1      44.962   4.201  12.661  0.00  0.00    +0.000 NA
ENDROOT
BRANCH   4   7
ATOM      7  N   UNL     1      45.330   7.888  13.152  0.00  0.00    +0.000 N 
ATOM      8  H   UNL     1      44.627   8.231  13.801  0.00  0.00    +0.000 HD
BRANCH   7   9
ATOM      9  C   UNL     1      45.917   8.916  12.294  0.00  0.00    +0.000 C 
BRANCH   9  10
ATOM     10  C   UNL     1      47.309   9.337  12.803  0.00  0.00    +0.000 C 
ATOM     11  C   UNL     1      48.412   8.826  11.857  0.00  0.00    +0.000 C 
ATOM     12  C   UNL     1      48.728   7.349  12.085  0.00  0.00    +0.000 C 
ATOM     13  C   UNL     1      49.036   7.084  13.556  0.00  0.00    +0.000 C 
ATOM     14  N   UNL     1      47.901   7.473  14.389  0.00  0.00    +0.000 NA
ATOM     15  C   UNL     1      47.598   8.897  14.251  0.00  0.00    +0.000 C 
ATOM     16  H   UNL     1      48.115   7.272  15.366  0.00  0.00    +0.000 HD
ENDBRANCH   9  10
ENDBRANCH   7   9
ENDBRANCH   4   7
BRANCH   1  17
ATOM     17  C   UNL     1      43.939   2.876  10.871  0.00  0.00    +0.000 C 
BRANCH  17  18
ATOM     18  N   UNL     1      43.001   2.065  11.659  0.00  0.00    +0.000 NA
ATOM     19  H   UNL     1      43.525   1.588  12.390  0.00  0.00    +0.000 HD
ATOM     20  H   UNL     1      42.643   1.330  11.049  0.00  0.00    +0.000 HD
ENDBRANCH  17  18
ENDBRANCH   1  17
TORSDOF 5
ENDMDL
MODEL 8
REMARK VINA RESULT:    -5.028      3.173      6.584
REMARK INTER + INTRA:          -6.983
REMARK INTER:                  -6.327
REMARK INTRA:                  -0.656
REMARK UNBOUND:                -0.633
REMARK  Name = 
REMARK  5 active torsions:
REMARK  status: ('A' for Active; 'I' for Inactive)
REMARK    1  A    between atoms: N_1  and  C_2
REMARK    2  A    between atoms: C_2  and  C_3
REMARK    3  A    between atoms: C_6  and  N_7
REMARK    4  A    between atoms: N_7  and  C_8
REMARK    5  A    between atoms: C_8  and  C_9
REMARK                            x       y       z     vdW  Elec       q    Type
REMARK                         _______ _______ _______ _____ _____    ______ ____
ROOT
ATOM      1  C   UNL     1      47.729   4.864  16.046  0.00  0.00    +0.000 A 
ATOM      2  C   UNL     1      48.263   5.967  15.387  0.00  0.00    +0.000 A 
ATOM      3  C   UNL     1      47.841   6.245  14.089  0.00  0.00    +0.000 A 
ATOM      4  C   UNL     1      46.898   5.434  13.454  0.00  0.00    +0.000 A 
ATOM      5  C   UNL     1      46.497   4.307  14.171  0.00  0.00    +0.000 A 
ATOM      6  N   UNL     1      46.858   4.017  15.447  0.00  0.00    +0.000 NA
ENDROOT
BRANCH   4   7
ATOM      7  N   UNL     1      46.508   5.760  12.159  0.00  0.00    +0.000 N 
ATOM      8  H   UNL     1      47.308   6.016  11.586  0.00  0.00    +0.000 HD
BRANCH   7   9
ATOM      9  C   UNL     1      45.309   6.560  11.919  0.00  0.00    +0.000 C 
BRANCH   9  10
ATOM     10  C   UNL     1      44.345   5.842  10.954  0.00  0.00    +0.000 C 
ATOM     11  C   UNL     1      43.006   5.535  11.652  0.00  0.00    +0.000 C 
ATOM     12  C   UNL     1      43.095   4.302  12.550  0.00  0.00    +0.000 C 
ATOM     13  C   UNL     1      43.650   3.110  11.778  0.00  0.00    +0.000 C 
ATOM     14  N   UNL     1      44.975   3.421  11.250  0.00  0.00    +0.000 NA
ATOM     15  C   UNL     1      44.933   4.561  10.332  0.00  0.00    +0.000 C 
ATOM     16  H   UNL     1      45.341   2.609  10.753  0.00  0.00    +0.000 HD
ENDBRANCH   9  10
ENDBRANCH   7   9
ENDBRANCH   4   7
BRANCH   1  17
ATOM     17  C   UNL     1      48.069   4.603  17.496  0.00  0.00    +0.000 C 
BRANCH  17  18
ATOM     18  N   UNL     1      47.010   3.853  18.186  0.00  0.00    +0.000 NA
ATOM     19  H   UNL     1      46.158   3.918  17.633  0.00  0.00    +0.000 HD
ATOM     20  H   UNL     1      46.811   4.338  19.061  0.00  0.00    +0.000 HD
ENDBRANCH  17  18
ENDBRANCH   1  17
TORSDOF 5
ENDMDL
MODEL 9
REMARK VINA RESULT:    -4.971      3.781      6.090
REMARK INTER + INTRA:          -6.911
REMARK INTER:                  -6.338
REMARK INTRA:                  -0.573
REMARK UNBOUND:                -0.633
REMARK  Name = 
REMARK  5 active torsions:
REMARK  status: ('A' for Active; 'I' for Inactive)
REMARK    1  A    between atoms: N_1  and  C_2
REMARK    2  A    between atoms: C_2  and  C_3
REMARK    3  A    between atoms: C_6  and  N_7
REMARK    4  A    between atoms: N_7  and  C_8
REMARK    5  A    between atoms: C_8  and  C_9
REMARK                            x       y       z     vdW  Elec       q    Type
REMARK                         _______ _______ _______ _____ _____    ______ ____
ROOT
ATOM      1  C   UNL     1      44.742   3.884  11.657  0.00  0.00    +0.000 A 
ATOM      2  C   UNL     1      45.076   5.119  11.114  0.00  0.00    +0.000 A 
ATOM      3  C   UNL     1      45.895   5.978  11.845  0.00  0.00    +0.000 A 
ATOM      4  C   UNL     1      46.374   5.608  13.103  0.00  0.00    +0.000 A 
ATOM      5  C   UNL     1      45.905   4.388  13.590  0.00  0.00    +0.000 A 
ATOM      6  N   UNL     1      45.134   3.510  12.898  0.00  0.00    +0.000 NA
ENDROOT
BRANCH   4   7
ATOM      7  N   UNL     1      47.191   6.501  13.789  0.00  0.00    +0.000 N 
ATOM      8  H   UNL     1      46.701   7.368  13.993  0.00  0.00    +0.000 HD
BRANCH   7   9
ATOM      9  C   UNL     1      48.593   6.670  13.413  0.00  0.00    +0.000 C 
BRANCH   9  10
ATOM     10  C   UNL     1      49.012   8.152  13.476  0.00  0.00    +0.000 C 
ATOM     11  C   UNL     1      50.175   8.347  14.468  0.00  0.00    +0.000 C 
ATOM     12  C   UNL     1      49.697   8.374  15.918  0.00  0.00    +0.000 C 
ATOM     13  C   UNL     1      48.583   9.400  16.100  0.00  0.00    +0.000 C 
ATOM     14  N   UNL     1      47.458   9.086  15.224  0.00  0.00    +0.000 NA
ATOM     15  C   UNL     1      47.853   9.108  13.816  0.00  0.00    +0.000 C 
ATOM     16  H   UNL     1      46.714   9.769  15.372  0.00  0.00    +0.000 HD
ENDBRANCH   9  10
ENDBRANCH   7   9
ENDBRANCH   4   7
BRANCH   1  17
ATOM     17  C   UNL     1      43.960   2.877  10.842  0.00  0.00    +0.000 C 
BRANCH  17  18
ATOM     18  N   UNL     1      43.031   2.096  11.670  0.00  0.00    +0.000 NA
ATOM     19  H   UNL     1      42.196   2.655  11.831  0.00  0.00    +0.000 HD
ATOM     20  H   UNL     1      43.466   1.975  12.586  0.00  0.00    +0.000 HD
ENDBRANCH  17  18
ENDBRANCH   1  17
TORSDOF 5
ENDMDL
