MODEL 1
REMARK VINA RESULT:    -7.951      0.000      0.000
REMARK INTER + INTRA:         -10.926
REMARK INTER:                 -10.275
REMARK INTRA:                  -0.651
REMARK UNBOUND:                -0.651
REMARK  Name = 
REMARK  6 active torsions:
REMARK  status: ('A' for Active; 'I' for Inactive)
REMARK    1  A    between atoms: N_1  and  C_2
REMARK    2  A    between atoms: C_2  and  C_3
REMARK    3  A    between atoms: C_6  and  C_7
REMARK    4  A    between atoms: C_7  and  N_8
REMARK    5  A    between atoms: CA_14  and  C_15
REMARK    6  A    between atoms: C_15  and  OXT_17
REMARK                            x       y       z     vdW  Elec       q    Type
REMARK                         _______ _______ _______ _____ _____    ______ ____
ROOT
ATOM      1  N   UNL     1      44.898   5.182  11.548  0.00  0.00    +0.000 N 
ATOM      2  C   UNL     1      45.730   4.408  12.325  0.00  0.00    +0.000 A 
ATOM      3  C   UNL     1      46.454   5.245  13.146  0.00  0.00    +0.000 A 
ATOM      4  C   UNL     1      46.058   6.577  12.861  0.00  0.00    +0.000 A 
ATOM      5  C   UNL     1      46.428   7.847  13.338  0.00  0.00    +0.000 A 
ATOM      6  C   UNL     1      45.801   8.962  12.782  0.00  0.00    +0.000 A 
ATOM      7  CA  UNL     1      44.850   8.762  11.792  0.00  0.00    +0.000 A 
ATOM      8  N   UNL     1      44.460   7.557  11.283  0.00  0.00    +0.000 NA
ATOM      9  C   UNL     1      45.091   6.511  11.859  0.00  0.00    +0.000 A 
ENDROOT
BRANCH   7  10
ATOM     10  C   UNL     1      44.153   9.943  11.197  0.00  0.00    +0.000 C 
ATOM     11  O   UNL     1      44.028  11.025  11.743  0.00  0.00    +0.000 OA
BRANCH  10  12
ATOM     12  OXT UNL     1      43.658   9.650   9.967  0.00  0.00    +0.000 OA
ATOM     13  HXT UNL     1      44.400   9.365   9.379  0.00  0.00    +0.000 HD
ENDBRANCH  10  12
ENDBRANCH   7  10
BRANCH   1  14
ATOM     14  C   UNL     1      44.047   4.669  10.476  0.00  0.00    +0.000 C 
BRANCH  14  18
ATOM     15  C   UNL     1      46.419   2.429   7.632  0.00  0.00    +0.000 A 
ATOM     16  C   UNL     1      46.402   3.832   7.592  0.00  0.00    +0.000 A 
ATOM     17  C   UNL     1      45.621   4.567   8.491  0.00  0.00    +0.000 A 
ATOM     18  C   UNL     1      44.821   3.908   9.435  0.00  0.00    +0.000 A 
ATOM     19  C   UNL     1      44.786   2.511   9.410  0.00  0.00    +0.000 A 
ATOM     20  F   UNL     1      43.987   1.843  10.257  0.00  0.00    +0.000 F 
ATOM     21  C   UNL     1      45.578   1.773   8.535  0.00  0.00    +0.000 A 
BRANCH  15  22
ATOM     22  C   UNL     1      47.355   1.646   6.749  0.00  0.00    +0.000 C 
BRANCH  22  23
ATOM     23  N   UNL     1      48.533   2.440   6.417  0.00  0.00    +0.000 NA
ATOM     24  H   UNL     1      48.246   3.262   5.889  0.00  0.00    +0.000 HD
ATOM     25  H   UNL     1      49.131   1.896   5.795  0.00  0.00    +0.000 HD
ENDBRANCH  22  23
ENDBRANCH  15  22
ENDBRANCH  14  18
ENDBRANCH   1  14
TORSDOF 6
ENDMDL
MODEL 2
REMARK VINA RESULT:    -7.313      2.949      3.790
REMARK INTER + INTRA:         -10.102
REMARK INTER:                  -9.457
REMARK INTRA:                  -0.645
REMARK UNBOUND:                -0.651
REMARK  Name = 
REMARK  6 active torsions:
REMARK  status: ('A' for Active; 'I' for Inactive)
REMARK    1  A    between atoms: N_1  and  C_2
REMARK    2  A    between atoms: C_2  and  C_3
REMARK    3  A    between atoms: C_6  and  C_7
REMARK    4  A    between atoms: C_7  and  N_8
REMARK    5  A    between atoms: CA_14  and  C_15
REMARK    6  A    between atoms: C_15  and  OXT_17
REMARK                            x       y       z     vdW  Elec       q    Type
REMARK                         _______ _______ _______ _____ _____    ______ ____
ROOT
ATOM      1  N   UNL     1      44.629   6.278  11.459  0.00  0.00    +0.000 N 
ATOM      2  C   UNL     1      44.504   7.591  11.064  0.00  0.00    +0.000 A 
ATOM      3  C   UNL     1      45.422   8.341  11.768  0.00  0.00    +0.000 A 
ATOM      4  C   UNL     1      46.129   7.461  12.626  0.00  0.00    +0.000 A 
ATOM      5  C   UNL     1      47.153   7.612  13.579  0.00  0.00    +0.000 A 
ATOM      6  C   UNL     1      47.592   6.473  14.252  0.00  0.00    +0.000 A 
ATOM      7  CA  UNL     1      46.999   5.255  13.951  0.00  0.00    +0.000 A 
ATOM      8  N   UNL     1      45.997   5.051  13.046  0.00  0.00    +0.000 NA
ATOM      9  C   UNL     1      45.614   6.182  12.418  0.00  0.00    +0.000 A 
ENDROOT
BRANCH   7  10
ATOM     10  C   UNL     1      47.470   4.019  14.648  0.00  0.00    +0.000 C 
ATOM     11  O   UNL     1      47.393   2.892  14.192  0.00  0.00    +0.000 OA
BRANCH  10  12
ATOM     12  OXT UNL     1      47.983   4.313  15.870  0.00  0.00    +0.000 OA
ATOM     13  HXT UNL     1      48.530   3.552  16.183  0.00  0.00    +0.000 HD
ENDBRANCH  10  12
ENDBRANCH   7  10
BRANCH   1  14
ATOM     14  C   UNL     1      43.757   5.192  11.016  0.00  0.00    +0.000 C 
BRANCH  14  18
ATOM     15  C   UNL     1      45.815   2.528   8.295  0.00  0.00    +0.000 A 
ATOM     16  C   UNL     1      45.937   3.919   8.153  0.00  0.00    +0.000 A 
ATOM     17  C   UNL     1      45.257   4.791   9.012  0.00  0.00    +0.000 A 
ATOM     18  C   UNL     1      44.422   4.285  10.017  0.00  0.00    +0.000 A 
ATOM     19  C   UNL     1      44.248   2.900  10.095  0.00  0.00    +0.000 A 
ATOM     20  F   UNL     1      43.411   2.378  11.005  0.00  0.00    +0.000 F 
ATOM     21  C   UNL     1      44.939   2.026   9.261  0.00  0.00    +0.000 A 
BRANCH  15  22
ATOM     22  C   UNL     1      46.645   1.594   7.454  0.00  0.00    +0.000 C 
BRANCH  22  23
ATOM     23  N   UNL     1      46.556   0.229   7.960  0.00  0.00    +0.000 NA
ATOM     24  H   UNL     1      47.492  -0.119   8.154  0.00  0.00    +0.000 HD
ATOM     25  H   UNL     1      46.175  -0.370   7.226  0.00  0.00    +0.000 HD
ENDBRANCH  22  23
ENDBRANCH  15  22
ENDBRANCH  14  18
ENDBRANCH   1  14
TORSDOF 6
ENDMDL
MODEL 3
REMARK VINA RESULT:    -6.867      3.398      6.580
REMARK INTER + INTRA:          -9.526
REMARK INTER:                  -8.905
REMARK INTRA:                  -0.621
REMARK UNBOUND:                -0.651
REMARK  Name = 
REMARK  6 active torsions:
REMARK  status: ('A' for Active; 'I' for Inactive)
REMARK    1  A    between atoms: N_1  and  C_2
REMARK    2  A    between atoms: C_2  and  C_3
REMARK    3  A    between atoms: C_6  and  C_7
REMARK    4  A    between atoms: C_7  and  N_8
REMARK    5  A    between atoms: CA_14  and  C_15
REMARK    6  A    between atoms: C_15  and  OXT_17
REMARK                            x       y       z     vdW  Elec       q    Type
REMARK                         _______ _______ _______ _____ _____    ______ ____
ROOT
ATOM      1  N   UNL     1      44.407   5.324  11.300  0.00  0.00    +0.000 N 
ATOM      2  C   UNL     1      43.605   4.760  12.267  0.00  0.00    +0.000 A 
ATOM      3  C   UNL     1      43.365   3.449  11.916  0.00  0.00    +0.000 A 
ATOM      4  C   UNL     1      44.036   3.201  10.692  0.00  0.00    +0.000 A 
ATOM      5  C   UNL     1      44.163   2.092   9.836  0.00  0.00    +0.000 A 
ATOM      6  C   UNL     1      44.923   2.245   8.676  0.00  0.00    +0.000 A 
ATOM      7  CA  UNL     1      45.511   3.477   8.428  0.00  0.00    +0.000 A 
ATOM      8  N   UNL     1      45.413   4.588   9.216  0.00  0.00    +0.000 NA
ATOM      9  C   UNL     1      44.674   4.386  10.327  0.00  0.00    +0.000 A 
ENDROOT
BRANCH   7  10
ATOM     10  C   UNL     1      46.346   3.657   7.200  0.00  0.00    +0.000 C 
ATOM     11  O   UNL     1      46.301   2.938   6.218  0.00  0.00    +0.000 OA
BRANCH  10  12
ATOM     12  OXT UNL     1      47.178   4.722   7.327  0.00  0.00    +0.000 OA
ATOM     13  HXT UNL     1      48.068   4.482   6.970  0.00  0.00    +0.000 HD
ENDBRANCH  10  12
ENDBRANCH   7  10
BRANCH   1  14
ATOM     14  C   UNL     1      44.795   6.732  11.261  0.00  0.00    +0.000 C 
BRANCH  14  18
ATOM     15  C   UNL     1      48.177   7.764  13.757  0.00  0.00    +0.000 A 
ATOM     16  C   UNL     1      48.124   6.517  13.114  0.00  0.00    +0.000 A 
ATOM     17  C   UNL     1      47.025   6.163  12.323  0.00  0.00    +0.000 A 
ATOM     18  C   UNL     1      45.944   7.043  12.180  0.00  0.00    +0.000 A 
ATOM     19  C   UNL     1      45.974   8.247  12.891  0.00  0.00    +0.000 A 
ATOM     20  F   UNL     1      44.932   9.090  12.829  0.00  0.00    +0.000 F 
ATOM     21  C   UNL     1      47.074   8.617  13.659  0.00  0.00    +0.000 A 
BRANCH  15  22
ATOM     22  C   UNL     1      49.414   8.194  14.502  0.00  0.00    +0.000 C 
BRANCH  22  23
ATOM     23  N   UNL     1      50.359   7.088  14.611  0.00  0.00    +0.000 NA
ATOM     24  H   UNL     1      51.238   7.353  14.173  0.00  0.00    +0.000 HD
ATOM     25  H   UNL     1      50.001   6.296  14.075  0.00  0.00    +0.000 HD
ENDBRANCH  22  23
ENDBRANCH  15  22
ENDBRANCH  14  18
ENDBRANCH   1  14
TORSDOF 6
ENDMDL
MODEL 4
REMARK VINA RESULT:    -6.326      2.066      2.625
REMARK INTER + INTRA:          -8.827
REMARK INTER:                  -8.156
REMARK INTRA:                  -0.671
REMARK UNBOUND:                -0.651
REMARK  Name = 
REMARK  6 active torsions:
REMARK  status: ('A' for Active; 'I' for Inactive)
REMARK    1  A    between atoms: N_1  and  C_2
REMARK    2  A    between atoms: C_2  and  C_3
REMARK    3  A    between atoms: C_6  and  C_7
REMARK    4  A    between atoms: C_7  and  N_8
REMARK    5  A    between atoms: CA_14  and  C_15
REMARK    6  A    between atoms: C_15  and  OXT_17
REMARK                            x       y       z     vdW  Elec       q    Type
REMARK                         _______ _______ _______ _____ _____    ______ ____
ROOT
ATOM      1  N   UNL     1      45.612   5.664  13.053  0.00  0.00    +0.000 N 
ATOM      2  C   UNL     1      45.954   4.506  13.714  0.00  0.00    +0.000 A 
ATOM      3  C   UNL     1      47.126   4.733  14.403  0.00  0.00    +0.000 A 
ATOM      4  C   UNL     1      47.519   6.073  14.153  0.00  0.00    +0.000 A 
ATOM      5  C   UNL     1      48.602   6.879  14.545  0.00  0.00    +0.000 A 
ATOM      6  C   UNL     1      48.650   8.189  14.067  0.00  0.00    +0.000 A 
ATOM      7  CA  UNL     1      47.631   8.626  13.232  0.00  0.00    +0.000 A 
ATOM      8  N   UNL     1      46.564   7.886  12.810  0.00  0.00    +0.000 NA
ATOM      9  C   UNL     1      46.562   6.630  13.306  0.00  0.00    +0.000 A 
ENDROOT
BRANCH   7  10
ATOM     10  C   UNL     1      47.653  10.032  12.724  0.00  0.00    +0.000 C 
ATOM     11  O   UNL     1      47.287  10.376  11.615  0.00  0.00    +0.000 OA
BRANCH  10  12
ATOM     12  OXT UNL     1      48.151  10.881  13.659  0.00  0.00    +0.000 OA
ATOM     13  HXT UNL     1      47.492  10.982  14.389  0.00  0.00    +0.000 HD
ENDBRANCH  10  12
ENDBRANCH   7  10
BRANCH   1  14
ATOM     14  C   UNL     1      44.487   5.792  12.130  0.00  0.00    +0.000 C 
BRANCH  14  18
ATOM     15  C   UNL     1      45.427   3.934   8.336  0.00  0.00    +0.000 A 
ATOM     16  C   UNL     1      46.081   5.112   8.730  0.00  0.00    +0.000 A 
ATOM     17  C   UNL     1      45.769   5.735   9.944  0.00  0.00    +0.000 A 
ATOM     18  C   UNL     1      44.776   5.202  10.777  0.00  0.00    +0.000 A 
ATOM     19  C   UNL     1      44.078   4.075  10.334  0.00  0.00    +0.000 A 
ATOM     20  F   UNL     1      43.079   3.569  11.074  0.00  0.00    +0.000 F 
ATOM     21  C   UNL     1      44.399   3.436   9.140  0.00  0.00    +0.000 A 
BRANCH  15  22
ATOM     22  C   UNL     1      45.853   3.197   7.093  0.00  0.00    +0.000 C 
BRANCH  22  23
ATOM     23  N   UNL     1      46.832   3.977   6.343  0.00  0.00    +0.000 NA
ATOM     24  H   UNL     1      46.557   4.957   6.350  0.00  0.00    +0.000 HD
ATOM     25  H   UNL     1      46.808   3.682   5.367  0.00  0.00    +0.000 HD
ENDBRANCH  22  23
ENDBRANCH  15  22
ENDBRANCH  14  18
ENDBRANCH   1  14
TORSDOF 6
ENDMDL
MODEL 5
REMARK VINA RESULT:    -6.307      5.558      7.746
REMARK INTER + INTRA:          -8.801
REMARK INTER:                  -8.292
REMARK INTRA:                  -0.510
REMARK UNBOUND:                -0.651
REMARK  Name = 
REMARK  6 active torsions:
REMARK  status: ('A' for Active; 'I' for Inactive)
REMARK    1  A    between atoms: N_1  and  C_2
REMARK    2  A    between atoms: C_2  and  C_3
REMARK    3  A    between atoms: C_6  and  C_7
REMARK    4  A    between atoms: C_7  and  N_8
REMARK    5  A    between atoms: CA_14  and  C_15
REMARK    6  A    between atoms: C_15  and  OXT_17
REMARK                            x       y       z     vdW  Elec       q    Type
REMARK                         _______ _______ _______ _____ _____    ______ ____
ROOT
ATOM      1  N   UNL     1      47.711   5.511  15.497  0.00  0.00    +0.000 N 
ATOM      2  C   UNL     1      48.719   6.432  15.322  0.00  0.00    +0.000 A 
ATOM      3  C   UNL     1      48.658   6.896  14.024  0.00  0.00    +0.000 A 
ATOM      4  C   UNL     1      47.581   6.234  13.381  0.00  0.00    +0.000 A 
ATOM      5  C   UNL     1      47.029   6.260  12.088  0.00  0.00    +0.000 A 
ATOM      6  C   UNL     1      45.942   5.427  11.824  0.00  0.00    +0.000 A 
ATOM      7  CA  UNL     1      45.464   4.619  12.845  0.00  0.00    +0.000 A 
ATOM      8  N   UNL     1      45.965   4.544  14.113  0.00  0.00    +0.000 NA
ATOM      9  C   UNL     1      47.010   5.374  14.319  0.00  0.00    +0.000 A 
ENDROOT
BRANCH   7  10
ATOM     10  C   UNL     1      44.288   3.732  12.588  0.00  0.00    +0.000 C 
ATOM     11  O   UNL     1      43.149   4.124  12.407  0.00  0.00    +0.000 OA
BRANCH  10  12
ATOM     12  OXT UNL     1      44.650   2.424  12.597  0.00  0.00    +0.000 OA
ATOM     13  HXT UNL     1      45.075   2.199  11.734  0.00  0.00    +0.000 HD
ENDBRANCH  10  12
ENDBRANCH   7  10
BRANCH   1  14
ATOM     14  C   UNL     1      47.513   4.718  16.708  0.00  0.00    +0.000 C 
BRANCH  14  18
ATOM     15  C   UNL     1      51.001   2.265  17.448  0.00  0.00    +0.000 A 
ATOM     16  C   UNL     1      49.898   1.739  16.757  0.00  0.00    +0.000 A 
ATOM     17  C   UNL     1      48.755   2.515  16.532  0.00  0.00    +0.000 A 
ATOM     18  C   UNL     1      48.685   3.828  17.017  0.00  0.00    +0.000 A 
ATOM     19  C   UNL     1      49.759   4.310  17.772  0.00  0.00    +0.000 A 
ATOM     20  F   UNL     1      49.706   5.541  18.306  0.00  0.00    +0.000 F 
ATOM     21  C   UNL     1      50.908   3.554  17.979  0.00  0.00    +0.000 A 
BRANCH  15  22
ATOM     22  C   UNL     1      52.276   1.473  17.577  0.00  0.00    +0.000 C 
BRANCH  22  23
ATOM     23  N   UNL     1      52.013   0.169  18.179  0.00  0.00    +0.000 NA
ATOM     24  H   UNL     1      52.543  -0.542  17.680  0.00  0.00    +0.000 HD
ATOM     25  H   UNL     1      51.029  -0.061  18.046  0.00  0.00    +0.000 HD
ENDBRANCH  22  23
ENDBRANCH  15  22
ENDBRANCH  14  18
ENDBRANCH   1  14
TORSDOF 6
ENDMDL
MODEL 6
REMARK VINA RESULT:    -6.254      4.274      7.235
REMARK INTER + INTRA:          -8.734
REMARK INTER:                  -8.056
REMARK INTRA:                  -0.677
REMARK UNBOUND:                -0.651
REMARK  Name = 
REMARK  6 active torsions:
REMARK  status: ('A' for Active; 'I' for Inactive)
REMARK    1  A    between atoms: N_1  and  C_2
REMARK    2  A    between atoms: C_2  and  C_3
REMARK    3  A    between atoms: C_6  and  C_7
REMARK    4  A    between atoms: C_7  and  N_8
REMARK    5  A    between atoms: CA_14  and  C_15
REMARK    6  A    between atoms: C_15  and  OXT_17
REMARK                            x       y       z     vdW  Elec       q    Type
REMARK                         _______ _______ _______ _____ _____    ______ ____
ROOT
ATOM      1  N   UNL     1      46.546   6.519  12.829  0.00  0.00    +0.000 N 
ATOM      2  C   UNL     1      46.358   7.881  12.890  0.00  0.00    +0.000 A 
ATOM      3  C   UNL     1      45.126   8.169  12.342  0.00  0.00    +0.000 A 
ATOM      4  C   UNL     1      44.542   6.945  11.927  0.00  0.00    +0.000 A 
ATOM      5  C   UNL     1      43.335   6.582  11.302  0.00  0.00    +0.000 A 
ATOM      6  C   UNL     1      43.118   5.230  11.036  0.00  0.00    +0.000 A 
ATOM      7  CA  UNL     1      44.099   4.318  11.398  0.00  0.00    +0.000 A 
ATOM      8  N   UNL     1      45.291   4.614  11.996  0.00  0.00    +0.000 NA
ATOM      9  C   UNL     1      45.448   5.932  12.238  0.00  0.00    +0.000 A 
ENDROOT
BRANCH   7  10
ATOM     10  C   UNL     1      43.877   2.862  11.139  0.00  0.00    +0.000 C 
ATOM     11  O   UNL     1      43.012   2.186  11.665  0.00  0.00    +0.000 OA
BRANCH  10  12
ATOM     12  OXT UNL     1      44.781   2.382  10.247  0.00  0.00    +0.000 OA
ATOM     13  HXT UNL     1      44.456   2.558   9.330  0.00  0.00    +0.000 HD
ENDBRANCH  10  12
ENDBRANCH   7  10
BRANCH   1  14
ATOM     14  C   UNL     1      47.778   5.833  13.216  0.00  0.00    +0.000 C 
BRANCH  14  18
ATOM     15  C   UNL     1      48.187   4.973  17.438  0.00  0.00    +0.000 A 
ATOM     16  C   UNL     1      47.366   4.173  16.628  0.00  0.00    +0.000 A 
ATOM     17  C   UNL     1      47.207   4.455  15.266  0.00  0.00    +0.000 A 
ATOM     18  C   UNL     1      47.850   5.560  14.693  0.00  0.00    +0.000 A 
ATOM     19  C   UNL     1      48.600   6.394  15.529  0.00  0.00    +0.000 A 
ATOM     20  F   UNL     1      49.183   7.496  15.032  0.00  0.00    +0.000 F 
ATOM     21  C   UNL     1      48.783   6.106  16.878  0.00  0.00    +0.000 A 
BRANCH  15  22
ATOM     22  C   UNL     1      48.457   4.593  18.870  0.00  0.00    +0.000 C 
BRANCH  22  23
ATOM     23  N   UNL     1      48.222   3.168  19.078  0.00  0.00    +0.000 NA
ATOM     24  H   UNL     1      48.340   2.950  20.065  0.00  0.00    +0.000 HD
ATOM     25  H   UNL     1      48.941   2.642  18.582  0.00  0.00    +0.000 HD
ENDBRANCH  22  23
ENDBRANCH  15  22
ENDBRANCH  14  18
ENDBRANCH   1  14
TORSDOF 6
ENDMDL
MODEL 7
REMARK VINA RESULT:    -6.212      4.973      6.728
REMARK INTER + INTRA:          -8.679
REMARK INTER:                  -8.052
REMARK INTRA:                  -0.627
REMARK UNBOUND:                -0.651
REMARK  Name = 
REMARK  6 active torsions:
REMARK  status: ('A' for Active; 'I' for Inactive)
REMARK    1  A    between atoms: N_1  and  C_2
REMARK    2  A    between atoms: C_2  and  C_3
REMARK    3  A    between atoms: C_6  and  C_7
REMARK    4  A    between atoms: C_7  and  N_8
REMARK    5  A    between atoms: CA_14  and  C_15
REMARK    6  A    between atoms: C_15  and  OXT_17
REMARK                            x       y       z     vdW  Elec       q    Type
REMARK                         _______ _______ _______ _____ _____    ______ ____
ROOT
ATOM      1  N   UNL     1      48.533   6.915  14.383  0.00  0.00    +0.000 N 
ATOM      2  C   UNL     1      48.779   8.262  14.526  0.00  0.00    +0.000 A 
ATOM      3  C   UNL     1      48.877   8.540  15.874  0.00  0.00    +0.000 A 
ATOM      4  C   UNL     1      48.680   7.325  16.579  0.00  0.00    +0.000 A 
ATOM      5  C   UNL     1      48.647   6.960  17.937  0.00  0.00    +0.000 A 
ATOM      6  C   UNL     1      48.404   5.622  18.248  0.00  0.00    +0.000 A 
ATOM      7  CA  UNL     1      48.208   4.725  17.207  0.00  0.00    +0.000 A 
ATOM      8  N   UNL     1      48.218   5.025  15.875  0.00  0.00    +0.000 NA
ATOM      9  C   UNL     1      48.463   6.329  15.628  0.00  0.00    +0.000 A 
ENDROOT
BRANCH   7  10
ATOM     10  C   UNL     1      47.966   3.283  17.519  0.00  0.00    +0.000 C 
ATOM     11  O   UNL     1      48.838   2.441  17.633  0.00  0.00    +0.000 OA
BRANCH  10  12
ATOM     12  OXT UNL     1      46.639   3.027  17.645  0.00  0.00    +0.000 OA
ATOM     13  HXT UNL     1      46.354   2.422  16.917  0.00  0.00    +0.000 HD
ENDBRANCH  10  12
ENDBRANCH   7  10
BRANCH   1  14
ATOM     14  C   UNL     1      48.262   6.252  13.109  0.00  0.00    +0.000 C 
BRANCH  14  18
ATOM     15  C   UNL     1      44.084   5.541  12.227  0.00  0.00    +0.000 A 
ATOM     16  C   UNL     1      44.605   6.844  12.190  0.00  0.00    +0.000 A 
ATOM     17  C   UNL     1      45.949   7.090  12.496  0.00  0.00    +0.000 A 
ATOM     18  C   UNL     1      46.793   6.035  12.869  0.00  0.00    +0.000 A 
ATOM     19  C   UNL     1      46.241   4.755  12.979  0.00  0.00    +0.000 A 
ATOM     20  F   UNL     1      47.001   3.728  13.391  0.00  0.00    +0.000 F 
ATOM     21  C   UNL     1      44.913   4.499  12.652  0.00  0.00    +0.000 A 
BRANCH  15  22
ATOM     22  C   UNL     1      42.675   5.264  11.774  0.00  0.00    +0.000 C 
BRANCH  22  23
ATOM     23  N   UNL     1      41.883   6.489  11.778  0.00  0.00    +0.000 NA
ATOM     24  H   UNL     1      41.961   6.936  12.689  0.00  0.00    +0.000 HD
ATOM     25  H   UNL     1      40.899   6.244  11.664  0.00  0.00    +0.000 HD
ENDBRANCH  22  23
ENDBRANCH  15  22
ENDBRANCH  14  18
ENDBRANCH   1  14
TORSDOF 6
ENDMDL
MODEL 8
REMARK VINA RESULT:    -6.140      2.268      2.862
REMARK INTER + INTRA:          -8.587
REMARK INTER:                  -8.155
REMARK INTRA:                  -0.432
REMARK UNBOUND:                -0.651
REMARK  Name = 
REMARK  6 active torsions:
REMARK  status: ('A' for Active; 'I' for Inactive)
REMARK    1  A    between atoms: N_1  and  C_2
REMARK    2  A    between atoms: C_2  and  C_3
REMARK    3  A    between atoms: C_6  and  C_7
REMARK    4  A    between atoms: C_7  and  N_8
REMARK    5  A    between atoms: CA_14  and  C_15
REMARK    6  A    between atoms: C_15  and  OXT_17
REMARK                            x       y       z     vdW  Elec       q    Type
REMARK                         _______ _______ _______ _____ _____    ______ ____
ROOT
ATOM      1  N   UNL     1      44.831   4.246  11.370  0.00  0.00    +0.000 N 
ATOM      2  C   UNL     1      44.526   3.146  12.139  0.00  0.00    +0.000 A 
ATOM      3  C   UNL     1      45.303   3.188  13.277  0.00  0.00    +0.000 A 
ATOM      4  C   UNL     1      46.113   4.349  13.203  0.00  0.00    +0.000 A 
ATOM      5  C   UNL     1      47.098   4.928  14.024  0.00  0.00    +0.000 A 
ATOM      6  C   UNL     1      47.700   6.108  13.590  0.00  0.00    +0.000 A 
ATOM      7  CA  UNL     1      47.300   6.648  12.376  0.00  0.00    +0.000 A 
ATOM      8  N   UNL     1      46.360   6.126  11.534  0.00  0.00    +0.000 NA
ATOM      9  C   UNL     1      45.803   4.989  12.003  0.00  0.00    +0.000 A 
ENDROOT
BRANCH   7  10
ATOM     10  C   UNL     1      47.920   7.924  11.902  0.00  0.00    +0.000 C 
ATOM     11  O   UNL     1      49.050   8.025  11.461  0.00  0.00    +0.000 OA
BRANCH  10  12
ATOM     12  OXT UNL     1      47.060   8.965  12.039  0.00  0.00    +0.000 OA
ATOM     13  HXT UNL     1      46.290   8.680  12.591  0.00  0.00    +0.000 HD
ENDBRANCH  10  12
ENDBRANCH   7  10
BRANCH   1  14
ATOM     14  C   UNL     1      44.292   4.501  10.036  0.00  0.00    +0.000 C 
BRANCH  14  18
ATOM     15  C   UNL     1      46.669   2.993   6.748  0.00  0.00    +0.000 A 
ATOM     16  C   UNL     1      45.743   2.159   7.395  0.00  0.00    +0.000 A 
ATOM     17  C   UNL     1      44.985   2.628   8.474  0.00  0.00    +0.000 A 
ATOM     18  C   UNL     1      45.158   3.938   8.943  0.00  0.00    +0.000 A 
ATOM     19  C   UNL     1      46.140   4.730   8.341  0.00  0.00    +0.000 A 
ATOM     20  F   UNL     1      46.379   5.969   8.799  0.00  0.00    +0.000 F 
ATOM     21  C   UNL     1      46.880   4.279   7.252  0.00  0.00    +0.000 A 
BRANCH  15  22
ATOM     22  C   UNL     1      47.388   2.527   5.509  0.00  0.00    +0.000 C 
BRANCH  22  23
ATOM     23  N   UNL     1      48.448   1.586   5.853  0.00  0.00    +0.000 NA
ATOM     24  H   UNL     1      48.629   1.635   6.853  0.00  0.00    +0.000 HD
ATOM     25  H   UNL     1      49.310   1.879   5.392  0.00  0.00    +0.000 HD
ENDBRANCH  22  23
ENDBRANCH  15  22
ENDBRANCH  14  18
ENDBRANCH   1  14
TORSDOF 6
ENDMDL
MODEL 9
REMARK VINA RESULT:    -5.594      4.066      5.461
REMARK INTER + INTRA:          -7.881
REMARK INTER:                  -7.421
REMARK INTRA:                  -0.460
REMARK UNBOUND:                -0.651
REMARK  Name = 
REMARK  6 active torsions:
REMARK  status: ('A' for Active; 'I' for Inactive)
REMARK    1  A    between atoms: N_1  and  C_2
REMARK    2  A    between atoms: C_2  and  C_3
REMARK    3  A    between atoms: C_6  and  C_7
REMARK    4  A    between atoms: C_7  and  N_8
REMARK    5  A    between atoms: CA_14  and  C_15
REMARK    6  A    between atoms: C_15  and  OXT_17
REMARK                            x       y       z     vdW  Elec       q    Type
REMARK                         _______ _______ _______ _____ _____    ______ ____
ROOT
ATOM      1  N   UNL     1      47.338   8.081  12.734  0.00  0.00    +0.000 N 
ATOM      2  C   UNL     1      46.296   8.978  12.798  0.00  0.00    +0.000 A 
ATOM      3  C   UNL     1      46.712  10.163  12.229  0.00  0.00    +0.000 A 
ATOM      4  C   UNL     1      48.055   9.989  11.807  0.00  0.00    +0.000 A 
ATOM      5  C   UNL     1      49.015  10.809  11.187  0.00  0.00    +0.000 A 
ATOM      6  C   UNL     1      50.275  10.266  10.936  0.00  0.00    +0.000 A 
ATOM      7  CA  UNL     1      50.515   8.951  11.310  0.00  0.00    +0.000 A 
ATOM      8  N   UNL     1      49.628   8.114  11.923  0.00  0.00    +0.000 NA
ATOM      9  C   UNL     1      48.423   8.685  12.137  0.00  0.00    +0.000 A 
ENDROOT
BRANCH   7  10
ATOM     10  C   UNL     1      51.853   8.343  11.032  0.00  0.00    +0.000 C 
ATOM     11  O   UNL     1      52.886   8.972  10.888  0.00  0.00    +0.000 OA
BRANCH  10  12
ATOM     12  OXT UNL     1      51.767   6.991  10.945  0.00  0.00    +0.000 OA
ATOM     13  HXT UNL     1      51.468   6.628  11.814  0.00  0.00    +0.000 HD
ENDBRANCH  10  12
ENDBRANCH   7  10
BRANCH   1  14
ATOM     14  C   UNL     1      47.322   6.746  13.328  0.00  0.00    +0.000 C 
BRANCH  14  18
ATOM     15  C   UNL     1      44.736   3.920  11.313  0.00  0.00    +0.000 A 
ATOM     16  C   UNL     1      45.187   5.070  10.645  0.00  0.00    +0.000 A 
ATOM     17  C   UNL     1      46.004   6.003  11.293  0.00  0.00    +0.000 A 
ATOM     18  C   UNL     1      46.367   5.814  12.634  0.00  0.00    +0.000 A 
ATOM     19  C   UNL     1      45.846   4.706  13.309  0.00  0.00    +0.000 A 
ATOM     20  F   UNL     1      46.120   4.521  14.609  0.00  0.00    +0.000 F 
ATOM     21  C   UNL     1      45.053   3.761  12.664  0.00  0.00    +0.000 A 
BRANCH  15  22
ATOM     22  C   UNL     1      43.964   2.857  10.576  0.00  0.00    +0.000 C 
BRANCH  22  23
ATOM     23  N   UNL     1      43.030   2.184  11.473  0.00  0.00    +0.000 NA
ATOM     24  H   UNL     1      42.523   1.471  10.955  0.00  0.00    +0.000 HD
ATOM     25  H   UNL     1      42.333   2.860  11.787  0.00  0.00    +0.000 HD
ENDBRANCH  22  23
ENDBRANCH  15  22
ENDBRANCH  14  18
ENDBRANCH   1  14
TORSDOF 6
ENDMDL
