MODEL 1
REMARK VINA RESULT:    -7.363      0.000      0.000
REMARK INTER + INTRA:         -10.116
REMARK INTER:                  -9.515
REMARK INTRA:                  -0.601
REMARK UNBOUND:                -0.601
REMARK  Name = 
REMARK  6 active torsions:
REMARK  status: ('A' for Active; 'I' for Inactive)
REMARK    1  A    between atoms: C_1  and  C_2
REMARK    2  A    between atoms: C_2  and  N_3
REMARK    3  A    between atoms: N_3  and  C_4
REMARK    4  A    between atoms: N_3  and  C_14
REMARK    5  A    between atoms: C_4  and  C_5
REMARK    6  A    between atoms: C_8  and  C_9
REMARK                            x       y       z     vdW  Elec       q    Type
REMARK                         _______ _______ _______ _____ _____    ______ ____
ROOT
ATOM      1  C   UNL     1      44.858   3.758   9.175  0.00  0.00    +0.000 A 
ATOM      2  C   UNL     1      45.566   4.538   8.276  0.00  0.00    +0.000 A 
ATOM      3  N   UNL     1      46.456   4.058   7.389  0.00  0.00    +0.000 NA
ATOM      4  C   UNL     1      46.640   2.718   7.428  0.00  0.00    +0.000 A 
ATOM      5  N   UNL     1      46.015   1.857   8.254  0.00  0.00    +0.000 NA
ATOM      6  C   UNL     1      45.130   2.405   9.115  0.00  0.00    +0.000 A 
ENDROOT
BRANCH   4   7
ATOM      7  C   UNL     1      47.683   2.170   6.477  0.00  0.00    +0.000 C 
ATOM      8  N   UNL     1      47.916   2.933   5.352  0.00  0.00    +0.000 N 
ATOM      9  O   UNL     1      48.309   1.138   6.666  0.00  0.00    +0.000 OA
ATOM     10  H   UNL     1      47.420   3.805   5.218  0.00  0.00    +0.000 HD
ATOM     11  H   UNL     1      48.640   2.643   4.710  0.00  0.00    +0.000 HD
ENDBRANCH   4   7
BRANCH   1  12
ATOM     12  C   UNL     1      43.925   4.382  10.170  0.00  0.00    +0.000 C 
BRANCH  12  13
ATOM     13  N   UNL     1      44.215   4.176  11.608  0.00  0.00    +0.000 NA
BRANCH  13  14
ATOM     14  C   UNL     1      45.559   4.783  11.932  0.00  0.00    +0.000 C 
ATOM     15  C   UNL     1      45.966   4.596  13.415  0.00  0.00    +0.000 C 
ATOM     16  C   UNL     1      47.309   5.245  13.756  0.00  0.00    +0.000 C 
ATOM     17  C   UNL     1      47.315   6.720  13.378  0.00  0.00    +0.000 C 
ATOM     18  C   UNL     1      47.051   6.884  11.890  0.00  0.00    +0.000 C 
ATOM     19  C   UNL     1      45.717   6.262  11.488  0.00  0.00    +0.000 C 
ENDBRANCH  13  14
BRANCH  13  21
ATOM     20  C   UNL     1      42.167   5.692  11.948  0.00  0.00    +0.000 C 
ATOM     21  C   UNL     1      43.157   4.679  12.513  0.00  0.00    +0.000 C 
ENDBRANCH  13  21
ENDBRANCH  12  13
ENDBRANCH   1  12
TORSDOF 5
ENDMDL
MODEL 2
REMARK VINA RESULT:    -6.721      1.138      1.796
REMARK INTER + INTRA:          -9.286
REMARK INTER:                  -8.680
REMARK INTRA:                  -0.606
REMARK UNBOUND:                -0.601
REMARK  Name = 
REMARK  6 active torsions:
REMARK  status: ('A' for Active; 'I' for Inactive)
REMARK    1  A    between atoms: C_1  and  C_2
REMARK    2  A    between atoms: C_2  and  N_3
REMARK    3  A    between atoms: N_3  and  C_4
REMARK    4  A    between atoms: N_3  and  C_14
REMARK    5  A    between atoms: C_4  and  C_5
REMARK    6  A    between atoms: C_8  and  C_9
REMARK                            x       y       z     vdW  Elec       q    Type
REMARK                         _______ _______ _______ _____ _____    ______ ____
ROOT
ATOM      1  C   UNL     1      45.100   4.180   9.330  0.00  0.00    +0.000 A 
ATOM      2  C   UNL     1      45.919   4.731   8.359  0.00  0.00    +0.000 A 
ATOM      3  N   UNL     1      46.638   4.016   7.476  0.00  0.00    +0.000 NA
ATOM      4  C   UNL     1      46.526   2.673   7.597  0.00  0.00    +0.000 A 
ATOM      5  N   UNL     1      45.767   2.021   8.499  0.00  0.00    +0.000 NA
ATOM      6  C   UNL     1      45.065   2.800   9.350  0.00  0.00    +0.000 A 
ENDROOT
BRANCH   4   7
ATOM      7  C   UNL     1      47.377   1.854   6.650  0.00  0.00    +0.000 C 
ATOM      8  N   UNL     1      48.384   2.546   6.011  0.00  0.00    +0.000 N 
ATOM      9  O   UNL     1      47.227   0.657   6.452  0.00  0.00    +0.000 OA
ATOM     10  H   UNL     1      48.526   3.530   6.205  0.00  0.00    +0.000 HD
ATOM     11  H   UNL     1      49.016   2.038   5.409  0.00  0.00    +0.000 HD
ENDBRANCH   4   7
BRANCH   1  12
ATOM     12  C   UNL     1      44.374   5.052  10.312  0.00  0.00    +0.000 C 
BRANCH  12  13
ATOM     13  N   UNL     1      44.682   4.872  11.749  0.00  0.00    +0.000 NA
BRANCH  13  14
ATOM     14  C   UNL     1      45.126   6.194  12.329  0.00  0.00    +0.000 C 
ATOM     15  C   UNL     1      44.718   7.406  11.455  0.00  0.00    +0.000 C 
ATOM     16  C   UNL     1      45.202   8.743  12.020  0.00  0.00    +0.000 C 
ATOM     17  C   UNL     1      46.707   8.728  12.249  0.00  0.00    +0.000 C 
ATOM     18  C   UNL     1      47.081   7.619  13.218  0.00  0.00    +0.000 C 
ATOM     19  C   UNL     1      46.631   6.253  12.706  0.00  0.00    +0.000 C 
ENDBRANCH  13  14
BRANCH  13  21
ATOM     20  C   UNL     1      43.445   2.759  12.534  0.00  0.00    +0.000 C 
ATOM     21  C   UNL     1      43.575   4.279  12.533  0.00  0.00    +0.000 C 
ENDBRANCH  13  21
ENDBRANCH  12  13
ENDBRANCH   1  12
TORSDOF 5
ENDMDL
MODEL 3
REMARK VINA RESULT:    -6.505      3.204      6.089
REMARK INTER + INTRA:          -9.008
REMARK INTER:                  -9.084
REMARK INTRA:                   0.076
REMARK UNBOUND:                -0.601
REMARK  Name = 
REMARK  6 active torsions:
REMARK  status: ('A' for Active; 'I' for Inactive)
REMARK    1  A    between atoms: C_1  and  C_2
REMARK    2  A    between atoms: C_2  and  N_3
REMARK    3  A    between atoms: N_3  and  C_4
REMARK    4  A    between atoms: N_3  and  C_14
REMARK    5  A    between atoms: C_4  and  C_5
REMARK    6  A    between atoms: C_8  and  C_9
REMARK                            x       y       z     vdW  Elec       q    Type
REMARK                         _______ _______ _______ _____ _____    ______ ____
ROOT
ATOM      1  C   UNL     1      46.026   5.275  11.989  0.00  0.00    +0.000 A 
ATOM      2  C   UNL     1      46.517   6.230  12.863  0.00  0.00    +0.000 A 
ATOM      3  N   UNL     1      46.935   5.972  14.115  0.00  0.00    +0.000 NA
ATOM      4  C   UNL     1      46.837   4.677  14.498  0.00  0.00    +0.000 A 
ATOM      5  N   UNL     1      46.376   3.662  13.742  0.00  0.00    +0.000 NA
ATOM      6  C   UNL     1      45.979   3.990  12.494  0.00  0.00    +0.000 A 
ENDROOT
BRANCH   4   7
ATOM      7  C   UNL     1      47.247   4.381  15.924  0.00  0.00    +0.000 C 
ATOM      8  N   UNL     1      48.066   5.322  16.512  0.00  0.00    +0.000 N 
ATOM      9  O   UNL     1      46.883   3.398  16.553  0.00  0.00    +0.000 OA
ATOM     10  H   UNL     1      48.336   6.152  15.998  0.00  0.00    +0.000 HD
ATOM     11  H   UNL     1      48.326   5.202  17.481  0.00  0.00    +0.000 HD
ENDBRANCH   4   7
BRANCH   1  12
ATOM     12  C   UNL     1      45.527   5.659  10.627  0.00  0.00    +0.000 C 
BRANCH  12  13
ATOM     13  N   UNL     1      44.252   5.063  10.168  0.00  0.00    +0.000 NA
BRANCH  13  14
ATOM     14  C   UNL     1      44.547   3.998   9.138  0.00  0.00    +0.000 C 
ATOM     15  C   UNL     1      44.633   2.576   9.746  0.00  0.00    +0.000 C 
ATOM     16  C   UNL     1      44.971   1.500   8.711  0.00  0.00    +0.000 C 
ATOM     17  C   UNL     1      46.252   1.845   7.963  0.00  0.00    +0.000 C 
ATOM     18  C   UNL     1      46.106   3.182   7.255  0.00  0.00    +0.000 C 
ATOM     19  C   UNL     1      45.775   4.301   8.239  0.00  0.00    +0.000 C 
ENDBRANCH  13  14
BRANCH  13  21
ATOM     20  C   UNL     1      42.334   5.470  11.831  0.00  0.00    +0.000 C 
ATOM     21  C   UNL     1      43.403   4.541  11.262  0.00  0.00    +0.000 C 
ENDBRANCH  13  21
ENDBRANCH  12  13
ENDBRANCH   1  12
TORSDOF 5
ENDMDL
MODEL 4
REMARK VINA RESULT:    -6.496      3.377      6.353
REMARK INTER + INTRA:          -8.996
REMARK INTER:                  -8.402
REMARK INTRA:                  -0.594
REMARK UNBOUND:                -0.601
REMARK  Name = 
REMARK  6 active torsions:
REMARK  status: ('A' for Active; 'I' for Inactive)
REMARK    1  A    between atoms: C_1  and  C_2
REMARK    2  A    between atoms: C_2  and  N_3
REMARK    3  A    between atoms: N_3  and  C_4
REMARK    4  A    between atoms: N_3  and  C_14
REMARK    5  A    between atoms: C_4  and  C_5
REMARK    6  A    between atoms: C_8  and  C_9
REMARK                            x       y       z     vdW  Elec       q    Type
REMARK                         _______ _______ _______ _____ _____    ______ ____
ROOT
ATOM      1  C   UNL     1      46.110   4.969  12.788  0.00  0.00    +0.000 A 
ATOM      2  C   UNL     1      46.570   4.460  13.991  0.00  0.00    +0.000 A 
ATOM      3  N   UNL     1      47.476   5.067  14.776  0.00  0.00    +0.000 NA
ATOM      4  C   UNL     1      47.945   6.247  14.307  0.00  0.00    +0.000 A 
ATOM      5  N   UNL     1      47.578   6.842  13.156  0.00  0.00    +0.000 NA
ATOM      6  C   UNL     1      46.659   6.181  12.419  0.00  0.00    +0.000 A 
ENDROOT
BRANCH   4   7
ATOM      7  C   UNL     1      49.011   6.913  15.150  0.00  0.00    +0.000 C 
ATOM      8  N   UNL     1      48.589   7.376  16.379  0.00  0.00    +0.000 N 
ATOM      9  O   UNL     1      50.178   7.036  14.810  0.00  0.00    +0.000 OA
ATOM     10  H   UNL     1      47.629   7.240  16.671  0.00  0.00    +0.000 HD
ATOM     11  H   UNL     1      49.271   7.780  17.006  0.00  0.00    +0.000 HD
ENDBRANCH   4   7
BRANCH   1  12
ATOM     12  C   UNL     1      45.137   4.198  11.945  0.00  0.00    +0.000 C 
BRANCH  12  13
ATOM     13  N   UNL     1      44.561   4.878  10.763  0.00  0.00    +0.000 NA
BRANCH  13  14
ATOM     14  C   UNL     1      44.738   3.996   9.550  0.00  0.00    +0.000 C 
ATOM     15  C   UNL     1      44.993   2.512   9.912  0.00  0.00    +0.000 C 
ATOM     16  C   UNL     1      45.212   1.623   8.686  0.00  0.00    +0.000 C 
ATOM     17  C   UNL     1      46.334   2.165   7.812  0.00  0.00    +0.000 C 
ATOM     18  C   UNL     1      46.008   3.575   7.347  0.00  0.00    +0.000 C 
ATOM     19  C   UNL     1      45.786   4.515   8.530  0.00  0.00    +0.000 C 
ENDBRANCH  13  14
BRANCH  13  21
ATOM     20  C   UNL     1      42.575   5.272  12.348  0.00  0.00    +0.000 C 
ATOM     21  C   UNL     1      43.150   5.291  10.934  0.00  0.00    +0.000 C 
ENDBRANCH  13  21
ENDBRANCH  12  13
ENDBRANCH   1  12
TORSDOF 5
ENDMDL
MODEL 5
REMARK VINA RESULT:    -6.095      3.827      6.391
REMARK INTER + INTRA:          -8.478
REMARK INTER:                  -7.828
REMARK INTRA:                  -0.649
REMARK UNBOUND:                -0.601
REMARK  Name = 
REMARK  6 active torsions:
REMARK  status: ('A' for Active; 'I' for Inactive)
REMARK    1  A    between atoms: C_1  and  C_2
REMARK    2  A    between atoms: C_2  and  N_3
REMARK    3  A    between atoms: N_3  and  C_4
REMARK    4  A    between atoms: N_3  and  C_14
REMARK    5  A    between atoms: C_4  and  C_5
REMARK    6  A    between atoms: C_8  and  C_9
REMARK                            x       y       z     vdW  Elec       q    Type
REMARK                         _______ _______ _______ _____ _____    ______ ____
ROOT
ATOM      1  C   UNL     1      46.090   6.601  11.967  0.00  0.00    +0.000 A 
ATOM      2  C   UNL     1      45.467   7.650  12.621  0.00  0.00    +0.000 A 
ATOM      3  N   UNL     1      46.066   8.811  12.940  0.00  0.00    +0.000 NA
ATOM      4  C   UNL     1      47.368   8.902  12.582  0.00  0.00    +0.000 A 
ATOM      5  N   UNL     1      48.082   7.954  11.947  0.00  0.00    +0.000 NA
ATOM      6  C   UNL     1      47.417   6.816  11.651  0.00  0.00    +0.000 A 
ENDROOT
BRANCH   4   7
ATOM      7  C   UNL     1      48.072  10.179  12.988  0.00  0.00    +0.000 C 
ATOM      8  N   UNL     1      47.320  11.330  12.880  0.00  0.00    +0.000 N 
ATOM      9  O   UNL     1      49.221  10.227  13.405  0.00  0.00    +0.000 OA
ATOM     10  H   UNL     1      46.358  11.280  12.568  0.00  0.00    +0.000 HD
ATOM     11  H   UNL     1      47.722  12.204  13.189  0.00  0.00    +0.000 HD
ENDBRANCH   4   7
BRANCH   1  12
ATOM     12  C   UNL     1      45.363   5.316  11.700  0.00  0.00    +0.000 C 
BRANCH  12  13
ATOM     13  N   UNL     1      44.195   5.363  10.790  0.00  0.00    +0.000 NA
BRANCH  13  14
ATOM     14  C   UNL     1      44.383   4.343   9.692  0.00  0.00    +0.000 C 
ATOM     15  C   UNL     1      44.407   2.886  10.218  0.00  0.00    +0.000 C 
ATOM     16  C   UNL     1      44.637   1.852   9.113  0.00  0.00    +0.000 C 
ATOM     17  C   UNL     1      45.904   2.163   8.329  0.00  0.00    +0.000 C 
ATOM     18  C   UNL     1      45.811   3.544   7.701  0.00  0.00    +0.000 C 
ATOM     19  C   UNL     1      45.589   4.624   8.757  0.00  0.00    +0.000 C 
ENDBRANCH  13  14
BRANCH  13  21
ATOM     20  C   UNL     1      42.910   4.959  12.980  0.00  0.00    +0.000 C 
ATOM     21  C   UNL     1      42.893   5.195  11.473  0.00  0.00    +0.000 C 
ENDBRANCH  13  21
ENDBRANCH  12  13
ENDBRANCH   1  12
TORSDOF 5
ENDMDL
MODEL 6
REMARK VINA RESULT:    -5.665      4.201      6.823
REMARK INTER + INTRA:          -7.922
REMARK INTER:                  -7.523
REMARK INTRA:                  -0.399
REMARK UNBOUND:                -0.601
REMARK  Name = 
REMARK  6 active torsions:
REMARK  status: ('A' for Active; 'I' for Inactive)
REMARK    1  A    between atoms: C_1  and  C_2
REMARK    2  A    between atoms: C_2  and  N_3
REMARK    3  A    between atoms: N_3  and  C_4
REMARK    4  A    between atoms: N_3  and  C_14
REMARK    5  A    between atoms: C_4  and  C_5
REMARK    6  A    between atoms: C_8  and  C_9
REMARK                            x       y       z     vdW  Elec       q    Type
REMARK                         _______ _______ _______ _____ _____    ______ ____
ROOT
ATOM      1  C   UNL     1      47.335   5.699  13.349  0.00  0.00    +0.000 A 
ATOM      2  C   UNL     1      48.157   6.312  14.280  0.00  0.00    +0.000 A 
ATOM      3  N   UNL     1      48.317   5.892  15.547  0.00  0.00    +0.000 NA
ATOM      4  C   UNL     1      47.594   4.799  15.885  0.00  0.00    +0.000 A 
ATOM      5  N   UNL     1      46.761   4.120  15.073  0.00  0.00    +0.000 NA
ATOM      6  C   UNL     1      46.653   4.591  13.813  0.00  0.00    +0.000 A 
ENDROOT
BRANCH   4   7
ATOM      7  C   UNL     1      47.716   4.350  17.326  0.00  0.00    +0.000 C 
ATOM      8  N   UNL     1      46.899   5.007  18.221  0.00  0.00    +0.000 N 
ATOM      9  O   UNL     1      48.460   3.458  17.706  0.00  0.00    +0.000 OA
ATOM     10  H   UNL     1      46.258   5.720  17.895  0.00  0.00    +0.000 HD
ATOM     11  H   UNL     1      46.899   4.711  19.187  0.00  0.00    +0.000 HD
ENDBRANCH   4   7
BRANCH   1  12
ATOM     12  C   UNL     1      47.172   6.268  11.971  0.00  0.00    +0.000 C 
BRANCH  12  13
ATOM     13  N   UNL     1      46.016   7.161  11.728  0.00  0.00    +0.000 NA
BRANCH  13  14
ATOM     14  C   UNL     1      44.844   6.336  11.255  0.00  0.00    +0.000 C 
ATOM     15  C   UNL     1      43.849   5.989  12.391  0.00  0.00    +0.000 C 
ATOM     16  C   UNL     1      42.682   5.119  11.922  0.00  0.00    +0.000 C 
ATOM     17  C   UNL     1      43.182   3.853  11.239  0.00  0.00    +0.000 C 
ATOM     18  C   UNL     1      44.046   4.207  10.040  0.00  0.00    +0.000 C 
ATOM     19  C   UNL     1      45.238   5.071  10.445  0.00  0.00    +0.000 C 
ENDBRANCH  13  14
BRANCH  13  21
ATOM     20  C   UNL     1      45.283   9.460  12.614  0.00  0.00    +0.000 C 
ATOM     21  C   UNL     1      45.654   8.006  12.888  0.00  0.00    +0.000 C 
ENDBRANCH  13  21
ENDBRANCH  12  13
ENDBRANCH   1  12
TORSDOF 5
ENDMDL
MODEL 7
REMARK VINA RESULT:    -5.463      4.392      6.512
REMARK INTER + INTRA:          -7.660
REMARK INTER:                  -7.018
REMARK INTRA:                  -0.642
REMARK UNBOUND:                -0.601
REMARK  Name = 
REMARK  6 active torsions:
REMARK  status: ('A' for Active; 'I' for Inactive)
REMARK    1  A    between atoms: C_1  and  C_2
REMARK    2  A    between atoms: C_2  and  N_3
REMARK    3  A    between atoms: N_3  and  C_4
REMARK    4  A    between atoms: N_3  and  C_14
REMARK    5  A    between atoms: C_4  and  C_5
REMARK    6  A    between atoms: C_8  and  C_9
REMARK                            x       y       z     vdW  Elec       q    Type
REMARK                         _______ _______ _______ _____ _____    ______ ____
ROOT
ATOM      1  C   UNL     1      47.113   5.429  13.424  0.00  0.00    +0.000 A 
ATOM      2  C   UNL     1      47.750   5.874  14.570  0.00  0.00    +0.000 A 
ATOM      3  N   UNL     1      48.112   5.082  15.594  0.00  0.00    +0.000 NA
ATOM      4  C   UNL     1      47.799   3.773  15.447  0.00  0.00    +0.000 A 
ATOM      5  N   UNL     1      47.181   3.223  14.385  0.00  0.00    +0.000 NA
ATOM      6  C   UNL     1      46.852   4.073  13.389  0.00  0.00    +0.000 A 
ENDROOT
BRANCH   4   7
ATOM      7  C   UNL     1      48.146   2.879  16.618  0.00  0.00    +0.000 C 
ATOM      8  N   UNL     1      47.169   2.765  17.585  0.00  0.00    +0.000 N 
ATOM      9  O   UNL     1      49.199   2.268  16.728  0.00  0.00    +0.000 OA
ATOM     10  H   UNL     1      46.284   3.246  17.472  0.00  0.00    +0.000 HD
ATOM     11  H   UNL     1      47.325   2.139  18.362  0.00  0.00    +0.000 HD
ENDBRANCH   4   7
BRANCH   1  12
ATOM     12  C   UNL     1      46.693   6.391  12.351  0.00  0.00    +0.000 C 
BRANCH  12  13
ATOM     13  N   UNL     1      45.364   7.029  12.482  0.00  0.00    +0.000 NA
BRANCH  13  14
ATOM     14  C   UNL     1      45.534   8.530  12.481  0.00  0.00    +0.000 C 
ATOM     15  C   UNL     1      44.545   9.251  11.531  0.00  0.00    +0.000 C 
ATOM     16  C   UNL     1      44.742  10.768  11.498  0.00  0.00    +0.000 C 
ATOM     17  C   UNL     1      46.181  11.125  11.150  0.00  0.00    +0.000 C 
ATOM     18  C   UNL     1      47.135  10.526  12.171  0.00  0.00    +0.000 C 
ATOM     19  C   UNL     1      46.992   9.008  12.245  0.00  0.00    +0.000 C 
ENDBRANCH  13  14
BRANCH  13  21
ATOM     20  C   UNL     1      44.710   5.336  10.662  0.00  0.00    +0.000 C 
ATOM     21  C   UNL     1      44.383   6.592  11.464  0.00  0.00    +0.000 C 
ENDBRANCH  13  21
ENDBRANCH  12  13
ENDBRANCH   1  12
TORSDOF 5
ENDMDL
MODEL 8
REMARK VINA RESULT:    -5.308      3.336      5.517
REMARK INTER + INTRA:          -7.460
REMARK INTER:                  -6.806
REMARK INTRA:                  -0.654
REMARK UNBOUND:                -0.601
REMARK  Name = 
REMARK  6 active torsions:
REMARK  status: ('A' for Active; 'I' for Inactive)
REMARK    1  A    between atoms: C_1  and  C_2
REMARK    2  A    between atoms: C_2  and  N_3
REMARK    3  A    between atoms: N_3  and  C_4
REMARK    4  A    between atoms: N_3  and  C_14
REMARK    5  A    between atoms: C_4  and  C_5
REMARK    6  A    between atoms: C_8  and  C_9
REMARK                            x       y       z     vdW  Elec       q    Type
REMARK                         _______ _______ _______ _____ _____    ______ ____
ROOT
ATOM      1  C   UNL     1      46.299   6.108  12.628  0.00  0.00    +0.000 A 
ATOM      2  C   UNL     1      45.780   6.078  11.345  0.00  0.00    +0.000 A 
ATOM      3  N   UNL     1      45.028   5.079  10.851  0.00  0.00    +0.000 NA
ATOM      4  C   UNL     1      44.803   4.054  11.705  0.00  0.00    +0.000 A 
ATOM      5  N   UNL     1      45.254   3.966  12.971  0.00  0.00    +0.000 NA
ATOM      6  C   UNL     1      45.997   5.007  13.405  0.00  0.00    +0.000 A 
ENDROOT
BRANCH   4   7
ATOM      7  C   UNL     1      44.010   2.893  11.144  0.00  0.00    +0.000 C 
ATOM      8  N   UNL     1      44.551   2.291  10.028  0.00  0.00    +0.000 N 
ATOM      9  O   UNL     1      42.967   2.476  11.628  0.00  0.00    +0.000 OA
ATOM     10  H   UNL     1      45.433   2.617   9.653  0.00  0.00    +0.000 HD
ATOM     11  H   UNL     1      44.092   1.477   9.644  0.00  0.00    +0.000 HD
ENDBRANCH   4   7
BRANCH   1  12
ATOM     12  C   UNL     1      47.176   7.237  13.080  0.00  0.00    +0.000 C 
BRANCH  12  13
ATOM     13  N   UNL     1      48.638   7.088  12.898  0.00  0.00    +0.000 NA
BRANCH  13  14
ATOM     14  C   UNL     1      49.120   8.121  11.907  0.00  0.00    +0.000 C 
ATOM     15  C   UNL     1      50.658   8.302  11.920  0.00  0.00    +0.000 C 
ATOM     16  C   UNL     1      51.146   9.376  10.946  0.00  0.00    +0.000 C 
ATOM     17  C   UNL     1      50.445  10.704  11.200  0.00  0.00    +0.000 C 
ATOM     18  C   UNL     1      48.941  10.544  11.048  0.00  0.00    +0.000 C 
ATOM     19  C   UNL     1      48.391   9.488  12.003  0.00  0.00    +0.000 C 
ENDBRANCH  13  14
BRANCH  13  21
ATOM     20  C   UNL     1      48.711   7.704  15.393  0.00  0.00    +0.000 C 
ATOM     21  C   UNL     1      49.411   7.142  14.159  0.00  0.00    +0.000 C 
ENDBRANCH  13  21
ENDBRANCH  12  13
ENDBRANCH   1  12
TORSDOF 5
ENDMDL
MODEL 9
REMARK VINA RESULT:    -5.197      3.823      6.028
REMARK INTER + INTRA:          -7.318
REMARK INTER:                  -6.644
REMARK INTRA:                  -0.674
REMARK UNBOUND:                -0.601
REMARK  Name = 
REMARK  6 active torsions:
REMARK  status: ('A' for Active; 'I' for Inactive)
REMARK    1  A    between atoms: C_1  and  C_2
REMARK    2  A    between atoms: C_2  and  N_3
REMARK    3  A    between atoms: N_3  and  C_4
REMARK    4  A    between atoms: N_3  and  C_14
REMARK    5  A    between atoms: C_4  and  C_5
REMARK    6  A    between atoms: C_8  and  C_9
REMARK                            x       y       z     vdW  Elec       q    Type
REMARK                         _______ _______ _______ _____ _____    ______ ____
ROOT
ATOM      1  C   UNL     1      47.187   5.750  12.886  0.00  0.00    +0.000 A 
ATOM      2  C   UNL     1      46.834   4.583  13.543  0.00  0.00    +0.000 A 
ATOM      3  N   UNL     1      45.771   3.823  13.225  0.00  0.00    +0.000 NA
ATOM      4  C   UNL     1      45.026   4.280  12.192  0.00  0.00    +0.000 A 
ATOM      5  N   UNL     1      45.265   5.397  11.479  0.00  0.00    +0.000 NA
ATOM      6  C   UNL     1      46.351   6.110  11.847  0.00  0.00    +0.000 A 
ENDROOT
BRANCH   4   7
ATOM      7  C   UNL     1      43.793   3.468  11.861  0.00  0.00    +0.000 C 
ATOM      8  N   UNL     1      43.699   2.248  12.498  0.00  0.00    +0.000 N 
ATOM      9  O   UNL     1      42.909   3.839  11.102  0.00  0.00    +0.000 OA
ATOM     10  H   UNL     1      44.417   1.961  13.153  0.00  0.00    +0.000 HD
ATOM     11  H   UNL     1      42.871   1.688  12.356  0.00  0.00    +0.000 HD
ENDBRANCH   4   7
BRANCH   1  12
ATOM     12  C   UNL     1      48.357   6.569  13.343  0.00  0.00    +0.000 C 
BRANCH  12  13
ATOM     13  N   UNL     1      48.123   7.569  14.409  0.00  0.00    +0.000 NA
BRANCH  13  14
ATOM     14  C   UNL     1      49.056   7.290  15.563  0.00  0.00    +0.000 C 
ATOM     15  C   UNL     1      50.550   7.323  15.155  0.00  0.00    +0.000 C 
ATOM     16  C   UNL     1      51.497   7.001  16.313  0.00  0.00    +0.000 C 
ATOM     17  C   UNL     1      51.142   5.666  16.954  0.00  0.00    +0.000 C 
ATOM     18  C   UNL     1      49.715   5.693  17.475  0.00  0.00    +0.000 C 
ATOM     19  C   UNL     1      48.719   6.002  16.361  0.00  0.00    +0.000 C 
ENDBRANCH  13  14
BRANCH  13  21
ATOM     20  C   UNL     1      48.389   9.218  12.454  0.00  0.00    +0.000 C 
ATOM     21  C   UNL     1      48.228   8.973  13.952  0.00  0.00    +0.000 C 
ENDBRANCH  13  21
ENDBRANCH  12  13
ENDBRANCH   1  12
TORSDOF 5
ENDMDL
