MODEL 1
REMARK VINA RESULT:    -8.467      0.000      0.000
REMARK INTER + INTRA:         -11.618
REMARK INTER:                 -10.942
REMARK INTRA:                  -0.676
REMARK UNBOUND:                -0.676
REMARK  Name = 
REMARK  5 active torsions:
REMARK  status: ('A' for Active; 'I' for Inactive)
REMARK    1  A    between atoms: C_2  and  C_4
REMARK    2  A    between atoms: C_8  and  N_9
REMARK    3  A    between atoms: N_9  and  C_10
REMARK    4  A    between atoms: C_10  and  C_11
REMARK    5  A    between atoms: C_15  and  C_16
REMARK                            x       y       z     vdW  Elec       q    Type
REMARK                         _______ _______ _______ _____ _____    ______ ____
ROOT
ATOM      1  C   UNL     1      44.178   4.183  11.850  0.00  0.00    +0.000 C 
ATOM      2  C   UNL     1      43.026   4.078  12.850  0.00  0.00    +0.000 C 
ATOM      3  C   UNL     1      42.983   5.116  11.780  0.00  0.00    +0.000 C 
ENDROOT
BRANCH   1   4
ATOM      4  C   UNL     1      45.488   4.807  12.327  0.00  0.00    +0.000 A 
ATOM      5  C   UNL     1      46.051   5.915  11.674  0.00  0.00    +0.000 A 
ATOM      6  C   UNL     1      47.161   6.577  12.190  0.00  0.00    +0.000 A 
ATOM      7  C   UNL     1      47.719   6.158  13.395  0.00  0.00    +0.000 A 
ATOM      8  C   UNL     1      47.193   5.062  14.097  0.00  0.00    +0.000 A 
ATOM      9  C   UNL     1      46.118   4.370  13.510  0.00  0.00    +0.000 A 
BRANCH   8  10
ATOM     10  C   UNL     1      47.655   4.725  15.461  0.00  0.00    +0.000 A 
ATOM     11  C   UNL     1      47.506   3.421  15.955  0.00  0.00    +0.000 A 
ATOM     12  C   UNL     1      48.019   3.097  17.202  0.00  0.00    +0.000 A 
ATOM     13  N   UNL     1      48.673   3.972  17.989  0.00  0.00    +0.000 NA
ATOM     14  C   UNL     1      48.815   5.223  17.508  0.00  0.00    +0.000 A 
ATOM     15  C   UNL     1      48.327   5.642  16.277  0.00  0.00    +0.000 A 
ENDBRANCH   8  10
ENDBRANCH   1   4
BRANCH   1  16
ATOM     16  N   UNL     1      44.326   3.006  10.973  0.00  0.00    +0.000 N 
ATOM     17  H   UNL     1      44.537   2.139  11.465  0.00  0.00    +0.000 HD
BRANCH  16  22
ATOM     18  C   UNL     1      46.284   2.153   7.906  0.00  0.00    +0.000 A 
ATOM     19  C   UNL     1      46.018   3.300   7.173  0.00  0.00    +0.000 A 
ATOM     20  N   UNL     1      45.268   4.322   7.639  0.00  0.00    +0.000 NA
ATOM     21  C   UNL     1      44.738   4.160   8.876  0.00  0.00    +0.000 A 
ATOM     22  C   UNL     1      44.896   3.029   9.686  0.00  0.00    +0.000 A 
ATOM     23  C   UNL     1      45.731   2.033   9.183  0.00  0.00    +0.000 A 
BRANCH  18  25
ATOM     24  N   UNL     1      46.721  -0.235   7.702  0.00  0.00    +0.000 N 
ATOM     25  C   UNL     1      47.081   1.034   7.355  0.00  0.00    +0.000 C 
ATOM     26  O   UNL     1      48.019   1.242   6.594  0.00  0.00    +0.000 OA
ATOM     27  H   UNL     1      47.224  -0.980   7.238  0.00  0.00    +0.000 HD
ATOM     28  H   UNL     1      45.826  -0.465   8.109  0.00  0.00    +0.000 HD
ENDBRANCH  18  25
ENDBRANCH  16  22
ENDBRANCH   1  16
TORSDOF 5
ENDMDL
MODEL 2
REMARK VINA RESULT:    -8.205      2.660      3.898
REMARK INTER + INTRA:         -11.280
REMARK INTER:                 -10.984
REMARK INTRA:                  -0.296
REMARK UNBOUND:                -0.676
REMARK  Name = 
REMARK  5 active torsions:
REMARK  status: ('A' for Active; 'I' for Inactive)
REMARK    1  A    between atoms: C_2  and  C_4
REMARK    2  A    between atoms: C_8  and  N_9
REMARK    3  A    between atoms: N_9  and  C_10
REMARK    4  A    between atoms: C_10  and  C_11
REMARK    5  A    between atoms: C_15  and  C_16
REMARK                            x       y       z     vdW  Elec       q    Type
REMARK                         _______ _______ _______ _____ _____    ______ ____
ROOT
ATOM      1  C   UNL     1      43.953   5.140  10.944  0.00  0.00    +0.000 C 
ATOM      2  C   UNL     1      42.799   4.294  11.481  0.00  0.00    +0.000 C 
ATOM      3  C   UNL     1      42.664   5.778  11.431  0.00  0.00    +0.000 C 
ENDROOT
BRANCH   1   4
ATOM      4  C   UNL     1      45.176   5.335  11.837  0.00  0.00    +0.000 A 
ATOM      5  C   UNL     1      45.634   4.313  12.684  0.00  0.00    +0.000 A 
ATOM      6  C   UNL     1      46.830   4.433  13.387  0.00  0.00    +0.000 A 
ATOM      7  C   UNL     1      47.611   5.575  13.236  0.00  0.00    +0.000 A 
ATOM      8  C   UNL     1      47.208   6.626  12.396  0.00  0.00    +0.000 A 
ATOM      9  C   UNL     1      45.960   6.504  11.758  0.00  0.00    +0.000 A 
BRANCH   8  10
ATOM     10  C   UNL     1      48.111   7.753  12.082  0.00  0.00    +0.000 A 
ATOM     11  C   UNL     1      49.445   7.510  11.719  0.00  0.00    +0.000 A 
ATOM     12  C   UNL     1      50.257   8.570  11.345  0.00  0.00    +0.000 A 
ATOM     13  N   UNL     1      49.840   9.849  11.300  0.00  0.00    +0.000 NA
ATOM     14  C   UNL     1      48.558  10.076  11.647  0.00  0.00    +0.000 A 
ATOM     15  C   UNL     1      47.674   9.082  12.044  0.00  0.00    +0.000 A 
ENDBRANCH   8  10
ENDBRANCH   1   4
BRANCH   1  16
ATOM     16  N   UNL     1      44.247   4.923   9.514  0.00  0.00    +0.000 N 
ATOM     17  H   UNL     1      43.509   5.229   8.883  0.00  0.00    +0.000 HD
BRANCH  16  22
ATOM     18  C   UNL     1      46.413   2.726   7.407  0.00  0.00    +0.000 A 
ATOM     19  C   UNL     1      46.177   1.525   8.059  0.00  0.00    +0.000 A 
ATOM     20  N   UNL     1      45.340   1.405   9.113  0.00  0.00    +0.000 NA
ATOM     21  C   UNL     1      44.753   2.548   9.544  0.00  0.00    +0.000 A 
ATOM     22  C   UNL     1      44.954   3.821   8.997  0.00  0.00    +0.000 A 
ATOM     23  C   UNL     1      45.776   3.877   7.873  0.00  0.00    +0.000 A 
BRANCH  18  25
ATOM     24  N   UNL     1      48.660   2.477   6.498  0.00  0.00    +0.000 N 
ATOM     25  C   UNL     1      47.362   2.832   6.275  0.00  0.00    +0.000 C 
ATOM     26  O   UNL     1      46.987   3.206   5.170  0.00  0.00    +0.000 OA
ATOM     27  H   UNL     1      49.263   2.471   5.686  0.00  0.00    +0.000 HD
ATOM     28  H   UNL     1      48.957   1.936   7.298  0.00  0.00    +0.000 HD
ENDBRANCH  18  25
ENDBRANCH  16  22
ENDBRANCH   1  16
TORSDOF 5
ENDMDL
MODEL 3
REMARK VINA RESULT:    -7.694      2.289      2.995
REMARK INTER + INTRA:         -10.619
REMARK INTER:                 -10.377
REMARK INTRA:                  -0.242
REMARK UNBOUND:                -0.676
REMARK  Name = 
REMARK  5 active torsions:
REMARK  status: ('A' for Active; 'I' for Inactive)
REMARK    1  A    between atoms: C_2  and  C_4
REMARK    2  A    between atoms: C_8  and  N_9
REMARK    3  A    between atoms: N_9  and  C_10
REMARK    4  A    between atoms: C_10  and  C_11
REMARK    5  A    between atoms: C_15  and  C_16
REMARK                            x       y       z     vdW  Elec       q    Type
REMARK                         _______ _______ _______ _____ _____    ______ ____
ROOT
ATOM      1  C   UNL     1      44.194   3.865  11.580  0.00  0.00    +0.000 C 
ATOM      2  C   UNL     1      44.805   2.918  12.612  0.00  0.00    +0.000 C 
ATOM      3  C   UNL     1      43.427   3.447  12.822  0.00  0.00    +0.000 C 
ENDROOT
BRANCH   1   4
ATOM      4  C   UNL     1      44.686   5.311  11.552  0.00  0.00    +0.000 A 
ATOM      5  C   UNL     1      43.794   6.385  11.400  0.00  0.00    +0.000 A 
ATOM      6  C   UNL     1      44.218   7.705  11.522  0.00  0.00    +0.000 A 
ATOM      7  C   UNL     1      45.548   7.980  11.827  0.00  0.00    +0.000 A 
ATOM      8  C   UNL     1      46.483   6.947  12.000  0.00  0.00    +0.000 A 
ATOM      9  C   UNL     1      46.038   5.628  11.797  0.00  0.00    +0.000 A 
BRANCH   8  10
ATOM     10  C   UNL     1      47.845   7.216  12.508  0.00  0.00    +0.000 A 
ATOM     11  C   UNL     1      48.771   7.908  11.713  0.00  0.00    +0.000 A 
ATOM     12  C   UNL     1      50.016   8.228  12.232  0.00  0.00    +0.000 A 
ATOM     13  N   UNL     1      50.405   7.915  13.482  0.00  0.00    +0.000 NA
ATOM     14  C   UNL     1      49.511   7.253  14.242  0.00  0.00    +0.000 A 
ATOM     15  C   UNL     1      48.246   6.882  13.806  0.00  0.00    +0.000 A 
ENDBRANCH   8  10
ENDBRANCH   1   4
BRANCH   1  16
ATOM     16  N   UNL     1      43.968   3.253  10.257  0.00  0.00    +0.000 N 
ATOM     17  H   UNL     1      43.431   2.388  10.281  0.00  0.00    +0.000 HD
BRANCH  16  22
ATOM     18  C   UNL     1      46.538   2.255   7.734  0.00  0.00    +0.000 A 
ATOM     19  C   UNL     1      46.757   3.502   7.167  0.00  0.00    +0.000 A 
ATOM     20  N   UNL     1      46.135   4.627   7.583  0.00  0.00    +0.000 NA
ATOM     21  C   UNL     1      45.232   4.477   8.583  0.00  0.00    +0.000 A 
ATOM     22  C   UNL     1      44.894   3.264   9.197  0.00  0.00    +0.000 A 
ATOM     23  C   UNL     1      45.611   2.148   8.773  0.00  0.00    +0.000 A 
BRANCH  18  25
ATOM     24  N   UNL     1      46.781  -0.169   7.715  0.00  0.00    +0.000 N 
ATOM     25  C   UNL     1      47.209   1.034   7.234  0.00  0.00    +0.000 C 
ATOM     26  O   UNL     1      48.103   1.103   6.398  0.00  0.00    +0.000 OA
ATOM     27  H   UNL     1      47.194  -0.988   7.287  0.00  0.00    +0.000 HD
ATOM     28  H   UNL     1      45.903  -0.292   8.198  0.00  0.00    +0.000 HD
ENDBRANCH  18  25
ENDBRANCH  16  22
ENDBRANCH   1  16
TORSDOF 5
ENDMDL
MODEL 4
REMARK VINA RESULT:    -7.567      2.816      7.549
REMARK INTER + INTRA:         -10.456
REMARK INTER:                  -9.431
REMARK INTRA:                  -1.024
REMARK UNBOUND:                -0.676
REMARK  Name = 
REMARK  5 active torsions:
REMARK  status: ('A' for Active; 'I' for Inactive)
REMARK    1  A    between atoms: C_2  and  C_4
REMARK    2  A    between atoms: C_8  and  N_9
REMARK    3  A    between atoms: N_9  and  C_10
REMARK    4  A    between atoms: C_10  and  C_11
REMARK    5  A    between atoms: C_15  and  C_16
REMARK                            x       y       z     vdW  Elec       q    Type
REMARK                         _______ _______ _______ _____ _____    ______ ____
ROOT
ATOM      1  C   UNL     1      46.266   7.272  12.471  0.00  0.00    +0.000 C 
ATOM      2  C   UNL     1      46.300   8.670  11.852  0.00  0.00    +0.000 C 
ATOM      3  C   UNL     1      45.611   8.459  13.157  0.00  0.00    +0.000 C 
ENDROOT
BRANCH   1   4
ATOM      4  C   UNL     1      45.316   6.242  11.865  0.00  0.00    +0.000 A 
ATOM      5  C   UNL     1      43.928   6.318  12.067  0.00  0.00    +0.000 A 
ATOM      6  C   UNL     1      43.048   5.471  11.398  0.00  0.00    +0.000 A 
ATOM      7  C   UNL     1      43.540   4.542  10.486  0.00  0.00    +0.000 A 
ATOM      8  C   UNL     1      44.917   4.428  10.235  0.00  0.00    +0.000 A 
ATOM      9  C   UNL     1      45.783   5.247  10.983  0.00  0.00    +0.000 A 
BRANCH   8  10
ATOM     10  C   UNL     1      45.435   3.582   9.138  0.00  0.00    +0.000 A 
ATOM     11  C   UNL     1      46.051   4.171   8.024  0.00  0.00    +0.000 A 
ATOM     12  C   UNL     1      46.608   3.364   7.043  0.00  0.00    +0.000 A 
ATOM     13  N   UNL     1      46.601   2.019   7.092  0.00  0.00    +0.000 NA
ATOM     14  C   UNL     1      46.011   1.460   8.166  0.00  0.00    +0.000 A 
ATOM     15  C   UNL     1      45.419   2.184   9.192  0.00  0.00    +0.000 A 
ENDBRANCH   8  10
ENDBRANCH   1   4
BRANCH   1  16
ATOM     16  N   UNL     1      47.589   6.753  12.865  0.00  0.00    +0.000 N 
ATOM     17  H   UNL     1      48.042   6.178  12.156  0.00  0.00    +0.000 HD
BRANCH  16  22
ATOM     18  C   UNL     1      47.903   4.842  16.061  0.00  0.00    +0.000 A 
ATOM     19  C   UNL     1      48.632   5.776  16.782  0.00  0.00    +0.000 A 
ATOM     20  N   UNL     1      48.991   6.981  16.287  0.00  0.00    +0.000 NA
ATOM     21  C   UNL     1      48.631   7.233  15.005  0.00  0.00    +0.000 A 
ATOM     22  C   UNL     1      47.940   6.350  14.167  0.00  0.00    +0.000 A 
ATOM     23  C   UNL     1      47.540   5.148  14.748  0.00  0.00    +0.000 A 
BRANCH  18  25
ATOM     24  N   UNL     1      48.527   2.560  16.641  0.00  0.00    +0.000 N 
ATOM     25  C   UNL     1      47.554   3.516  16.618  0.00  0.00    +0.000 C 
ATOM     26  O   UNL     1      46.435   3.294  17.065  0.00  0.00    +0.000 OA
ATOM     27  H   UNL     1      48.287   1.696  17.111  0.00  0.00    +0.000 HD
ATOM     28  H   UNL     1      49.509   2.765  16.522  0.00  0.00    +0.000 HD
ENDBRANCH  18  25
ENDBRANCH  16  22
ENDBRANCH   1  16
TORSDOF 5
ENDMDL
MODEL 5
REMARK VINA RESULT:    -7.101      2.565      7.402
REMARK INTER + INTRA:          -9.853
REMARK INTER:                  -8.869
REMARK INTRA:                  -0.984
REMARK UNBOUND:                -0.676
REMARK  Name = 
REMARK  5 active torsions:
REMARK  status: ('A' for Active; 'I' for Inactive)
REMARK    1  A    between atoms: C_2  and  C_4
REMARK    2  A    between atoms: C_8  and  N_9
REMARK    3  A    between atoms: N_9  and  C_10
REMARK    4  A    between atoms: C_10  and  C_11
REMARK    5  A    between atoms: C_15  and  C_16
REMARK                            x       y       z     vdW  Elec       q    Type
REMARK                         _______ _______ _______ _____ _____    ______ ____
ROOT
ATOM      1  C   UNL     1      44.244   5.677  11.539  0.00  0.00    +0.000 C 
ATOM      2  C   UNL     1      43.015   6.497  11.147  0.00  0.00    +0.000 C 
ATOM      3  C   UNL     1      43.103   5.909  12.514  0.00  0.00    +0.000 C 
ENDROOT
BRANCH   1   4
ATOM      4  C   UNL     1      44.370   4.261  10.981  0.00  0.00    +0.000 A 
ATOM      5  C   UNL     1      43.519   3.229  11.406  0.00  0.00    +0.000 A 
ATOM      6  C   UNL     1      43.532   1.978  10.795  0.00  0.00    +0.000 A 
ATOM      7  C   UNL     1      44.385   1.740   9.721  0.00  0.00    +0.000 A 
ATOM      8  C   UNL     1      45.251   2.738   9.246  0.00  0.00    +0.000 A 
ATOM      9  C   UNL     1      45.266   3.966   9.933  0.00  0.00    +0.000 A 
BRANCH   8  10
ATOM     10  C   UNL     1      46.020   2.561   7.996  0.00  0.00    +0.000 A 
ATOM     11  C   UNL     1      46.097   3.605   7.061  0.00  0.00    +0.000 A 
ATOM     12  C   UNL     1      46.890   3.457   5.933  0.00  0.00    +0.000 A 
ATOM     13  N   UNL     1      47.616   2.354   5.671  0.00  0.00    +0.000 NA
ATOM     14  C   UNL     1      47.540   1.356   6.574  0.00  0.00    +0.000 A 
ATOM     15  C   UNL     1      46.766   1.409   7.726  0.00  0.00    +0.000 A 
ENDBRANCH   8  10
ENDBRANCH   1   4
BRANCH   1  16
ATOM     16  N   UNL     1      45.500   6.452  11.579  0.00  0.00    +0.000 N 
ATOM     17  H   UNL     1      45.939   6.585  10.670  0.00  0.00    +0.000 HD
BRANCH  16  22
ATOM     18  C   UNL     1      47.400   5.466  14.642  0.00  0.00    +0.000 A 
ATOM     19  C   UNL     1      48.335   6.491  14.637  0.00  0.00    +0.000 A 
ATOM     20  N   UNL     1      48.351   7.477  13.712  0.00  0.00    +0.000 NA
ATOM     21  C   UNL     1      47.410   7.400  12.740  0.00  0.00    +0.000 A 
ATOM     22  C   UNL     1      46.449   6.389  12.616  0.00  0.00    +0.000 A 
ATOM     23  C   UNL     1      46.438   5.434  13.630  0.00  0.00    +0.000 A 
BRANCH  18  25
ATOM     24  N   UNL     1      47.244   4.721  16.956  0.00  0.00    +0.000 N 
ATOM     25  C   UNL     1      47.428   4.381  15.648  0.00  0.00    +0.000 C 
ATOM     26  O   UNL     1      47.590   3.213  15.312  0.00  0.00    +0.000 OA
ATOM     27  H   UNL     1      47.176   3.950  17.608  0.00  0.00    +0.000 HD
ATOM     28  H   UNL     1      46.864   5.609  17.249  0.00  0.00    +0.000 HD
ENDBRANCH  18  25
ENDBRANCH  16  22
ENDBRANCH   1  16
TORSDOF 5
ENDMDL
MODEL 6
REMARK VINA RESULT:    -6.903      3.001      7.842
REMARK INTER + INTRA:          -9.597
REMARK INTER:                  -8.472
REMARK INTRA:                  -1.125
REMARK UNBOUND:                -0.676
REMARK  Name = 
REMARK  5 active torsions:
REMARK  status: ('A' for Active; 'I' for Inactive)
REMARK    1  A    between atoms: C_2  and  C_4
REMARK    2  A    between atoms: C_8  and  N_9
REMARK    3  A    between atoms: N_9  and  C_10
REMARK    4  A    between atoms: C_10  and  C_11
REMARK    5  A    between atoms: C_15  and  C_16
REMARK                            x       y       z     vdW  Elec       q    Type
REMARK                         _______ _______ _______ _____ _____    ______ ____
ROOT
ATOM      1  C   UNL     1      48.750   8.026  12.563  0.00  0.00    +0.000 C 
ATOM      2  C   UNL     1      49.613   8.592  11.435  0.00  0.00    +0.000 C 
ATOM      3  C   UNL     1      49.154   9.490  12.534  0.00  0.00    +0.000 C 
ENDROOT
BRANCH   1   4
ATOM      4  C   UNL     1      47.282   7.731  12.264  0.00  0.00    +0.000 A 
ATOM      5  C   UNL     1      46.294   8.719  12.404  0.00  0.00    +0.000 A 
ATOM      6  C   UNL     1      44.982   8.499  11.993  0.00  0.00    +0.000 A 
ATOM      7  C   UNL     1      44.635   7.287  11.405  0.00  0.00    +0.000 A 
ATOM      8  C   UNL     1      45.582   6.266  11.230  0.00  0.00    +0.000 A 
ATOM      9  C   UNL     1      46.880   6.493  11.723  0.00  0.00    +0.000 A 
BRANCH   8  10
ATOM     10  C   UNL     1      45.275   5.054  10.440  0.00  0.00    +0.000 A 
ATOM     11  C   UNL     1      44.538   4.006  11.013  0.00  0.00    +0.000 A 
ATOM     12  C   UNL     1      44.184   2.913  10.237  0.00  0.00    +0.000 A 
ATOM     13  N   UNL     1      44.503   2.789   8.935  0.00  0.00    +0.000 NA
ATOM     14  C   UNL     1      45.207   3.800   8.390  0.00  0.00    +0.000 A 
ATOM     15  C   UNL     1      45.615   4.928   9.089  0.00  0.00    +0.000 A 
ENDBRANCH   8  10
ENDBRANCH   1   4
BRANCH   1  16
ATOM     16  N   UNL     1      49.434   7.024  13.403  0.00  0.00    +0.000 N 
ATOM     17  H   UNL     1      49.666   6.159  12.919  0.00  0.00    +0.000 HD
BRANCH  16  22
ATOM     18  C   UNL     1      48.138   5.648  16.626  0.00  0.00    +0.000 A 
ATOM     19  C   UNL     1      48.673   6.600  17.481  0.00  0.00    +0.000 A 
ATOM     20  N   UNL     1      49.398   7.658  17.054  0.00  0.00    +0.000 NA
ATOM     21  C   UNL     1      49.618   7.732  15.718  0.00  0.00    +0.000 A 
ATOM     22  C   UNL     1      49.171   6.806  14.768  0.00  0.00    +0.000 A 
ATOM     23  C   UNL     1      48.376   5.771  15.256  0.00  0.00    +0.000 A 
BRANCH  18  25
ATOM     24  N   UNL     1      47.172   4.385  18.472  0.00  0.00    +0.000 N 
ATOM     25  C   UNL     1      47.377   4.481  17.126  0.00  0.00    +0.000 C 
ATOM     26  O   UNL     1      46.927   3.643  16.354  0.00  0.00    +0.000 OA
ATOM     27  H   UNL     1      46.572   3.629  18.774  0.00  0.00    +0.000 HD
ATOM     28  H   UNL     1      47.299   5.159  19.108  0.00  0.00    +0.000 HD
ENDBRANCH  18  25
ENDBRANCH  16  22
ENDBRANCH   1  16
TORSDOF 5
ENDMDL
MODEL 7
REMARK VINA RESULT:    -6.782      2.250      4.284
REMARK INTER + INTRA:          -9.440
REMARK INTER:                  -8.582
REMARK INTRA:                  -0.859
REMARK UNBOUND:                -0.676
REMARK  Name = 
REMARK  5 active torsions:
REMARK  status: ('A' for Active; 'I' for Inactive)
REMARK    1  A    between atoms: C_2  and  C_4
REMARK    2  A    between atoms: C_8  and  N_9
REMARK    3  A    between atoms: N_9  and  C_10
REMARK    4  A    between atoms: C_10  and  C_11
REMARK    5  A    between atoms: C_15  and  C_16
REMARK                            x       y       z     vdW  Elec       q    Type
REMARK                         _______ _______ _______ _____ _____    ______ ____
ROOT
ATOM      1  C   UNL     1      47.848   8.029  12.644  0.00  0.00    +0.000 C 
ATOM      2  C   UNL     1      48.424   9.129  11.752  0.00  0.00    +0.000 C 
ATOM      3  C   UNL     1      48.938   7.735  11.628  0.00  0.00    +0.000 C 
ENDROOT
BRANCH   1   4
ATOM      4  C   UNL     1      48.273   7.996  14.110  0.00  0.00    +0.000 A 
ATOM      5  C   UNL     1      48.163   9.132  14.929  0.00  0.00    +0.000 A 
ATOM      6  C   UNL     1      48.409   9.068  16.297  0.00  0.00    +0.000 A 
ATOM      7  C   UNL     1      48.747   7.852  16.884  0.00  0.00    +0.000 A 
ATOM      8  C   UNL     1      48.862   6.681  16.118  0.00  0.00    +0.000 A 
ATOM      9  C   UNL     1      48.680   6.796  14.727  0.00  0.00    +0.000 A 
BRANCH   8  10
ATOM     10  C   UNL     1      49.033   5.357  16.751  0.00  0.00    +0.000 A 
ATOM     11  C   UNL     1      48.022   4.389  16.649  0.00  0.00    +0.000 A 
ATOM     12  C   UNL     1      48.230   3.123  17.174  0.00  0.00    +0.000 A 
ATOM     13  N   UNL     1      49.368   2.747  17.787  0.00  0.00    +0.000 NA
ATOM     14  C   UNL     1      50.336   3.680  17.880  0.00  0.00    +0.000 A 
ATOM     15  C   UNL     1      50.216   4.975  17.393  0.00  0.00    +0.000 A 
ENDBRANCH   8  10
ENDBRANCH   1   4
BRANCH   1  16
ATOM     16  N   UNL     1      46.423   7.734  12.396  0.00  0.00    +0.000 N 
ATOM     17  H   UNL     1      45.779   8.234  13.005  0.00  0.00    +0.000 HD
BRANCH  16  22
ATOM     18  C   UNL     1      45.232   4.799  10.413  0.00  0.00    +0.000 A 
ATOM     19  C   UNL     1      44.796   4.009  11.466  0.00  0.00    +0.000 A 
ATOM     20  N   UNL     1      44.850   4.398  12.759  0.00  0.00    +0.000 NA
ATOM     21  C   UNL     1      45.400   5.614  12.995  0.00  0.00    +0.000 A 
ATOM     22  C   UNL     1      45.917   6.476  12.019  0.00  0.00    +0.000 A 
ATOM     23  C   UNL     1      45.778   6.052  10.699  0.00  0.00    +0.000 A 
BRANCH  18  25
ATOM     24  N   UNL     1      44.194   3.470   8.654  0.00  0.00    +0.000 N 
ATOM     25  C   UNL     1      45.192   4.330   9.009  0.00  0.00    +0.000 C 
ATOM     26  O   UNL     1      46.015   4.722   8.189  0.00  0.00    +0.000 OA
ATOM     27  H   UNL     1      44.138   3.242   7.670  0.00  0.00    +0.000 HD
ATOM     28  H   UNL     1      43.366   3.322   9.212  0.00  0.00    +0.000 HD
ENDBRANCH  18  25
ENDBRANCH  16  22
ENDBRANCH   1  16
TORSDOF 5
ENDMDL
MODEL 8
REMARK VINA RESULT:    -6.315      4.106      8.750
REMARK INTER + INTRA:          -8.838
REMARK INTER:                  -7.826
REMARK INTRA:                  -1.011
REMARK UNBOUND:                -0.676
REMARK  Name = 
REMARK  5 active torsions:
REMARK  status: ('A' for Active; 'I' for Inactive)
REMARK    1  A    between atoms: C_2  and  C_4
REMARK    2  A    between atoms: C_8  and  N_9
REMARK    3  A    between atoms: N_9  and  C_10
REMARK    4  A    between atoms: C_10  and  C_11
REMARK    5  A    between atoms: C_15  and  C_16
REMARK                            x       y       z     vdW  Elec       q    Type
REMARK                         _______ _______ _______ _____ _____    ______ ____
ROOT
ATOM      1  C   UNL     1      49.058   7.780  12.613  0.00  0.00    +0.000 C 
ATOM      2  C   UNL     1      49.999   7.770  11.408  0.00  0.00    +0.000 C 
ATOM      3  C   UNL     1      49.689   9.059  12.091  0.00  0.00    +0.000 C 
ENDROOT
BRANCH   1   4
ATOM      4  C   UNL     1      47.561   7.618  12.355  0.00  0.00    +0.000 A 
ATOM      5  C   UNL     1      46.664   8.677  12.569  0.00  0.00    +0.000 A 
ATOM      6  C   UNL     1      45.326   8.583  12.197  0.00  0.00    +0.000 A 
ATOM      7  C   UNL     1      44.860   7.428  11.575  0.00  0.00    +0.000 A 
ATOM      8  C   UNL     1      45.713   6.340  11.327  0.00  0.00    +0.000 A 
ATOM      9  C   UNL     1      47.041   6.440  11.782  0.00  0.00    +0.000 A 
BRANCH   8  10
ATOM     10  C   UNL     1      45.281   5.191  10.503  0.00  0.00    +0.000 A 
ATOM     11  C   UNL     1      45.675   5.097   9.160  0.00  0.00    +0.000 A 
ATOM     12  C   UNL     1      45.334   3.973   8.423  0.00  0.00    +0.000 A 
ATOM     13  N   UNL     1      44.636   2.936   8.924  0.00  0.00    +0.000 NA
ATOM     14  C   UNL     1      44.263   3.031  10.216  0.00  0.00    +0.000 A 
ATOM     15  C   UNL     1      44.550   4.120  11.029  0.00  0.00    +0.000 A 
ENDBRANCH   8  10
ENDBRANCH   1   4
BRANCH   1  16
ATOM     16  N   UNL     1      49.575   7.056  13.790  0.00  0.00    +0.000 N 
ATOM     17  H   UNL     1      49.752   6.066  13.630  0.00  0.00    +0.000 HD
BRANCH  16  22
ATOM     18  C   UNL     1      48.841   8.733  17.047  0.00  0.00    +0.000 A 
ATOM     19  C   UNL     1      48.522   7.604  17.787  0.00  0.00    +0.000 A 
ATOM     20  N   UNL     1      48.562   6.351  17.284  0.00  0.00    +0.000 NA
ATOM     21  C   UNL     1      48.901   6.242  15.976  0.00  0.00    +0.000 A 
ATOM     22  C   UNL     1      49.195   7.311  15.121  0.00  0.00    +0.000 A 
ATOM     23  C   UNL     1      49.200   8.574  15.707  0.00  0.00    +0.000 A 
BRANCH  18  25
ATOM     24  N   UNL     1      47.737  10.900  17.191  0.00  0.00    +0.000 N 
ATOM     25  C   UNL     1      48.755  10.097  17.617  0.00  0.00    +0.000 C 
ATOM     26  O   UNL     1      49.557  10.481  18.459  0.00  0.00    +0.000 OA
ATOM     27  H   UNL     1      47.649  11.790  17.664  0.00  0.00    +0.000 HD
ATOM     28  H   UNL     1      46.925  10.553  16.703  0.00  0.00    +0.000 HD
ENDBRANCH  18  25
ENDBRANCH  16  22
ENDBRANCH   1  16
TORSDOF 5
ENDMDL
MODEL 9
REMARK VINA RESULT:    -6.182      2.856      4.780
REMARK INTER + INTRA:          -8.665
REMARK INTER:                  -7.954
REMARK INTRA:                  -0.711
REMARK UNBOUND:                -0.676
REMARK  Name = 
REMARK  5 active torsions:
REMARK  status: ('A' for Active; 'I' for Inactive)
REMARK    1  A    between atoms: C_2  and  C_4
REMARK    2  A    between atoms: C_8  and  N_9
REMARK    3  A    between atoms: N_9  and  C_10
REMARK    4  A    between atoms: C_10  and  C_11
REMARK    5  A    between atoms: C_15  and  C_16
REMARK                            x       y       z     vdW  Elec       q    Type
REMARK                         _______ _______ _______ _____ _____    ______ ____
ROOT
ATOM      1  C   UNL     1      47.945   7.560  13.313  0.00  0.00    +0.000 C 
ATOM      2  C   UNL     1      47.810   8.970  12.739  0.00  0.00    +0.000 C 
ATOM      3  C   UNL     1      48.363   7.877  11.888  0.00  0.00    +0.000 C 
ENDROOT
BRANCH   1   4
ATOM      4  C   UNL     1      49.079   7.291  14.300  0.00  0.00    +0.000 A 
ATOM      5  C   UNL     1      50.351   7.860  14.124  0.00  0.00    +0.000 A 
ATOM      6  C   UNL     1      51.342   7.739  15.094  0.00  0.00    +0.000 A 
ATOM      7  C   UNL     1      51.070   7.065  16.281  0.00  0.00    +0.000 A 
ATOM      8  C   UNL     1      49.814   6.485  16.517  0.00  0.00    +0.000 A 
ATOM      9  C   UNL     1      48.860   6.561  15.485  0.00  0.00    +0.000 A 
BRANCH   8  10
ATOM     10  C   UNL     1      49.454   5.934  17.841  0.00  0.00    +0.000 A 
ATOM     11  C   UNL     1      48.981   4.617  17.953  0.00  0.00    +0.000 A 
ATOM     12  C   UNL     1      48.727   4.085  19.208  0.00  0.00    +0.000 A 
ATOM     13  N   UNL     1      48.914   4.762  20.356  0.00  0.00    +0.000 NA
ATOM     14  C   UNL     1      49.371   6.025  20.242  0.00  0.00    +0.000 A 
ATOM     15  C   UNL     1      49.643   6.645  19.030  0.00  0.00    +0.000 A 
ENDBRANCH   8  10
ENDBRANCH   1   4
BRANCH   1  16
ATOM     16  N   UNL     1      46.658   6.917  13.644  0.00  0.00    +0.000 N 
ATOM     17  H   UNL     1      46.384   7.007  14.621  0.00  0.00    +0.000 HD
BRANCH  16  22
ATOM     18  C   UNL     1      44.833   4.415  11.553  0.00  0.00    +0.000 A 
ATOM     19  C   UNL     1      45.299   3.262  12.167  0.00  0.00    +0.000 A 
ATOM     20  N   UNL     1      46.142   3.272  13.224  0.00  0.00    +0.000 NA
ATOM     21  C   UNL     1      46.554   4.491  13.649  0.00  0.00    +0.000 A 
ATOM     22  C   UNL     1      46.191   5.717  13.078  0.00  0.00    +0.000 A 
ATOM     23  C   UNL     1      45.272   5.651  12.033  0.00  0.00    +0.000 A 
BRANCH  18  25
ATOM     24  N   UNL     1      44.146   3.388   9.454  0.00  0.00    +0.000 N 
ATOM     25  C   UNL     1      43.938   4.372  10.375  0.00  0.00    +0.000 C 
ATOM     26  O   UNL     1      43.026   5.181  10.246  0.00  0.00    +0.000 OA
ATOM     27  H   UNL     1      43.463   3.327   8.710  0.00  0.00    +0.000 HD
ATOM     28  H   UNL     1      44.705   2.567   9.637  0.00  0.00    +0.000 HD
ENDBRANCH  18  25
ENDBRANCH  16  22
ENDBRANCH   1  16
TORSDOF 5
ENDMDL
