MODEL 1
REMARK VINA RESULT:    -8.261      0.000      0.000
REMARK INTER + INTRA:         -13.043
REMARK INTER:                 -12.125
REMARK INTRA:                  -0.919
REMARK UNBOUND:                -0.919
REMARK  Name = 
REMARK  9 active torsions:
REMARK  status: ('A' for Active; 'I' for Inactive)
REMARK    1  A    between atoms: C_2  and  C_22
REMARK    2  A    between atoms: N_3  and  C_4
REMARK    3  A    between atoms: C_4  and  C_5
REMARK    4  A    between atoms: C_8  and  C_9
REMARK    5  A    between atoms: C_9  and  C_10
REMARK    6  A    between atoms: C_10  and  O_11
REMARK    7  A    between atoms: C_10  and  C_12
REMARK    8  A    between atoms: C_12  and  N_13
REMARK    9  A    between atoms: C_16  and  O_17
REMARK                            x       y       z     vdW  Elec       q    Type
REMARK                         _______ _______ _______ _____ _____    ______ ____
ROOT
ATOM      1  C   UNL     1      47.414   6.000  14.070  0.00  0.00    +0.000 A 
ATOM      2  C   UNL     1      47.036   6.484  12.822  0.00  0.00    +0.000 A 
ATOM      3  C   UNL     1      46.133   5.752  12.029  0.00  0.00    +0.000 A 
ATOM      4  C   UNL     1      45.643   4.517  12.476  0.00  0.00    +0.000 A 
ATOM      5  N   UNL     1      46.003   4.024  13.679  0.00  0.00    +0.000 NA
ATOM      6  C   UNL     1      46.868   4.767  14.431  0.00  0.00    +0.000 A 
ENDROOT
BRANCH   1   7
ATOM      7  C   UNL     1      48.200   6.812  15.072  0.00  0.00    +0.000 C 
BRANCH   7  10
ATOM      8  O   UNL     1      48.544   6.036  17.644  0.00  0.00    +0.000 OA
ATOM      9  C   UNL     1      49.476   5.804  16.875  0.00  0.00    +0.000 C 
ATOM     10  N   UNL     1      49.457   6.277  15.565  0.00  0.00    +0.000 N 
ATOM     11  H   UNL     1      50.088   5.839  14.897  0.00  0.00    +0.000 HD
BRANCH   9  12
ATOM     12  C   UNL     1      50.636   5.022  17.342  0.00  0.00    +0.000 A 
ATOM     13  C   UNL     1      51.705   5.675  17.947  0.00  0.00    +0.000 A 
ATOM     14  S   UNL     1      52.971   4.638  18.426  0.00  0.00    +0.000 S 
ATOM     15  C   UNL     1      52.111   3.270  17.897  0.00  0.00    +0.000 A 
ATOM     16  N   UNL     1      52.629   2.025  18.053  0.00  0.00    +0.000 NA
ATOM     17  C   UNL     1      51.853   1.071  17.667  0.00  0.00    +0.000 A 
ATOM     18  N   UNL     1      50.603   1.258  17.125  0.00  0.00    +0.000 N 
ATOM     19  C   UNL     1      50.053   2.504  16.920  0.00  0.00    +0.000 A 
ATOM     20  O   UNL     1      48.941   2.643  16.424  0.00  0.00    +0.000 OA
ATOM     21  C   UNL     1      50.886   3.605  17.353  0.00  0.00    +0.000 A 
ATOM     22  H   UNL     1      50.037   0.467  16.851  0.00  0.00    +0.000 HD
ENDBRANCH   9  12
ENDBRANCH   7  10
ENDBRANCH   1   7
BRANCH   4  23
ATOM     23  C   UNL     1      44.789   3.672  11.538  0.00  0.00    +0.000 C 
BRANCH  23  24
ATOM     24  C   UNL     1      44.631   4.087  10.054  0.00  0.00    +0.000 C 
BRANCH  24  25
ATOM     25  O   UNL     1      43.443   4.919   9.992  0.00  0.00    +0.000 OA
ATOM     26  H   UNL     1      43.301   5.150   9.056  0.00  0.00    +0.000 HD
ENDBRANCH  24  25
BRANCH  24  27
ATOM     27  C   UNL     1      44.469   2.934   9.016  0.00  0.00    +0.000 C 
BRANCH  27  28
ATOM     28  N   UNL     1      45.707   2.742   8.256  0.00  0.00    +0.000 NA
ATOM     29  C   UNL     1      46.410   1.480   8.232  0.00  0.00    +0.000 C 
ATOM     30  C   UNL     1      46.874   1.106   6.818  0.00  0.00    +0.000 C 
ATOM     31  C   UNL     1      47.459   2.259   6.000  0.00  0.00    +0.000 C 
ATOM     32  C   UNL     1      46.763   3.602   6.218  0.00  0.00    +0.000 C 
ATOM     33  C   UNL     1      46.369   3.882   7.668  0.00  0.00    +0.000 C 
BRANCH  31  34
ATOM     34  O   UNL     1      48.867   2.399   6.201  0.00  0.00    +0.000 OA
ATOM     35  H   UNL     1      49.335   2.066   5.423  0.00  0.00    +0.000 HD
ENDBRANCH  31  34
ENDBRANCH  27  28
ENDBRANCH  24  27
ENDBRANCH  23  24
ENDBRANCH   4  23
TORSDOF 9
ENDMDL
MODEL 2
REMARK VINA RESULT:    -8.054      1.572      2.098
REMARK INTER + INTRA:         -12.740
REMARK INTER:                 -11.556
REMARK INTRA:                  -1.184
REMARK UNBOUND:                -0.919
REMARK  Name = 
REMARK  9 active torsions:
REMARK  status: ('A' for Active; 'I' for Inactive)
REMARK    1  A    between atoms: C_2  and  C_22
REMARK    2  A    between atoms: N_3  and  C_4
REMARK    3  A    between atoms: C_4  and  C_5
REMARK    4  A    between atoms: C_8  and  C_9
REMARK    5  A    between atoms: C_9  and  C_10
REMARK    6  A    between atoms: C_10  and  O_11
REMARK    7  A    between atoms: C_10  and  C_12
REMARK    8  A    between atoms: C_12  and  N_13
REMARK    9  A    between atoms: C_16  and  O_17
REMARK                            x       y       z     vdW  Elec       q    Type
REMARK                         _______ _______ _______ _____ _____    ______ ____
ROOT
ATOM      1  C   UNL     1      48.087   5.644  15.446  0.00  0.00    +0.000 A 
ATOM      2  C   UNL     1      47.907   6.213  14.189  0.00  0.00    +0.000 A 
ATOM      3  C   UNL     1      47.106   5.563  13.232  0.00  0.00    +0.000 A 
ATOM      4  C   UNL     1      46.518   4.325  13.528  0.00  0.00    +0.000 A 
ATOM      5  N   UNL     1      46.686   3.751  14.737  0.00  0.00    +0.000 NA
ATOM      6  C   UNL     1      47.457   4.415  15.649  0.00  0.00    +0.000 A 
ENDROOT
BRANCH   1   7
ATOM      7  C   UNL     1      48.746   6.366  16.597  0.00  0.00    +0.000 C 
BRANCH   7  10
ATOM      8  O   UNL     1      48.958   4.722  18.739  0.00  0.00    +0.000 OA
ATOM      9  C   UNL     1      49.996   4.946  18.118  0.00  0.00    +0.000 C 
ATOM     10  N   UNL     1      50.024   5.877  17.082  0.00  0.00    +0.000 N 
ATOM     11  H   UNL     1      50.801   5.828  16.426  0.00  0.00    +0.000 HD
BRANCH   9  12
ATOM     12  C   UNL     1      51.234   4.227  18.473  0.00  0.00    +0.000 A 
ATOM     13  C   UNL     1      52.129   4.804  19.369  0.00  0.00    +0.000 A 
ATOM     14  S   UNL     1      53.514   3.856  19.675  0.00  0.00    +0.000 S 
ATOM     15  C   UNL     1      52.939   2.612  18.668  0.00  0.00    +0.000 A 
ATOM     16  N   UNL     1      53.647   1.464  18.515  0.00  0.00    +0.000 NA
ATOM     17  C   UNL     1      53.075   0.577  17.775  0.00  0.00    +0.000 A 
ATOM     18  N   UNL     1      51.855   0.746  17.163  0.00  0.00    +0.000 N 
ATOM     19  C   UNL     1      51.119   1.906  17.266  0.00  0.00    +0.000 A 
ATOM     20  O   UNL     1      50.039   2.035  16.701  0.00  0.00    +0.000 OA
ATOM     21  C   UNL     1      51.719   2.925  18.100  0.00  0.00    +0.000 A 
ATOM     22  H   UNL     1      51.453   0.008  16.604  0.00  0.00    +0.000 HD
ENDBRANCH   9  12
ENDBRANCH   7  10
ENDBRANCH   1   7
BRANCH   4  23
ATOM     23  C   UNL     1      45.782   3.569  12.429  0.00  0.00    +0.000 C 
BRANCH  23  24
ATOM     24  C   UNL     1      44.277   3.840  12.180  0.00  0.00    +0.000 C 
BRANCH  24  25
ATOM     25  O   UNL     1      43.621   3.678  13.465  0.00  0.00    +0.000 OA
ATOM     26  H   UNL     1      43.844   2.789  13.793  0.00  0.00    +0.000 HD
ENDBRANCH  24  25
BRANCH  24  27
ATOM     27  C   UNL     1      43.558   2.916  11.150  0.00  0.00    +0.000 C 
BRANCH  27  28
ATOM     28  N   UNL     1      44.191   3.016   9.832  0.00  0.00    +0.000 NA
ATOM     29  C   UNL     1      44.313   4.271   9.128  0.00  0.00    +0.000 C 
ATOM     30  C   UNL     1      45.703   4.449   8.503  0.00  0.00    +0.000 C 
ATOM     31  C   UNL     1      46.278   3.200   7.831  0.00  0.00    +0.000 C 
ATOM     32  C   UNL     1      45.953   1.892   8.551  0.00  0.00    +0.000 C 
ATOM     33  C   UNL     1      44.532   1.813   9.110  0.00  0.00    +0.000 C 
BRANCH  31  34
ATOM     34  O   UNL     1      45.899   3.109   6.456  0.00  0.00    +0.000 OA
ATOM     35  H   UNL     1      45.561   3.965   6.161  0.00  0.00    +0.000 HD
ENDBRANCH  31  34
ENDBRANCH  27  28
ENDBRANCH  24  27
ENDBRANCH  23  24
ENDBRANCH   4  23
TORSDOF 9
ENDMDL
MODEL 3
REMARK VINA RESULT:    -7.870      2.394      2.938
REMARK INTER + INTRA:         -12.470
REMARK INTER:                 -11.445
REMARK INTRA:                  -1.025
REMARK UNBOUND:                -0.919
REMARK  Name = 
REMARK  9 active torsions:
REMARK  status: ('A' for Active; 'I' for Inactive)
REMARK    1  A    between atoms: C_2  and  C_22
REMARK    2  A    between atoms: N_3  and  C_4
REMARK    3  A    between atoms: C_4  and  C_5
REMARK    4  A    between atoms: C_8  and  C_9
REMARK    5  A    between atoms: C_9  and  C_10
REMARK    6  A    between atoms: C_10  and  O_11
REMARK    7  A    between atoms: C_10  and  C_12
REMARK    8  A    between atoms: C_12  and  N_13
REMARK    9  A    between atoms: C_16  and  O_17
REMARK                            x       y       z     vdW  Elec       q    Type
REMARK                         _______ _______ _______ _____ _____    ______ ____
ROOT
ATOM      1  C   UNL     1      47.157   6.127  13.104  0.00  0.00    +0.000 A 
ATOM      2  C   UNL     1      46.942   6.570  11.803  0.00  0.00    +0.000 A 
ATOM      3  C   UNL     1      45.776   6.189  11.114  0.00  0.00    +0.000 A 
ATOM      4  C   UNL     1      44.847   5.332  11.721  0.00  0.00    +0.000 A 
ATOM      5  N   UNL     1      45.039   4.882  12.978  0.00  0.00    +0.000 NA
ATOM      6  C   UNL     1      46.174   5.283  13.625  0.00  0.00    +0.000 A 
ENDROOT
BRANCH   1   7
ATOM      7  C   UNL     1      48.262   6.653  13.989  0.00  0.00    +0.000 C 
BRANCH   7  10
ATOM      8  O   UNL     1      50.095   7.615  15.735  0.00  0.00    +0.000 OA
ATOM      9  C   UNL     1      49.111   7.063  16.226  0.00  0.00    +0.000 C 
ATOM     10  N   UNL     1      48.175   6.420  15.420  0.00  0.00    +0.000 N 
ATOM     11  H   UNL     1      47.259   6.230  15.821  0.00  0.00    +0.000 HD
BRANCH   9  12
ATOM     12  C   UNL     1      48.917   7.073  17.688  0.00  0.00    +0.000 A 
ATOM     13  C   UNL     1      48.720   8.283  18.346  0.00  0.00    +0.000 A 
ATOM     14  S   UNL     1      48.517   8.132  20.032  0.00  0.00    +0.000 S 
ATOM     15  C   UNL     1      48.625   6.437  19.939  0.00  0.00    +0.000 A 
ATOM     16  N   UNL     1      48.491   5.674  21.053  0.00  0.00    +0.000 NA
ATOM     17  C   UNL     1      48.532   4.403  20.838  0.00  0.00    +0.000 A 
ATOM     18  N   UNL     1      48.707   3.830  19.601  0.00  0.00    +0.000 N 
ATOM     19  C   UNL     1      48.878   4.567  18.450  0.00  0.00    +0.000 A 
ATOM     20  O   UNL     1      49.044   4.031  17.361  0.00  0.00    +0.000 OA
ATOM     21  C   UNL     1      48.825   6.001  18.643  0.00  0.00    +0.000 A 
ATOM     22  H   UNL     1      48.719   2.826  19.496  0.00  0.00    +0.000 HD
ENDBRANCH   9  12
ENDBRANCH   7  10
ENDBRANCH   1   7
BRANCH   4  23
ATOM     23  C   UNL     1      43.671   4.811  10.904  0.00  0.00    +0.000 C 
BRANCH  23  24
ATOM     24  C   UNL     1      43.600   3.311  10.524  0.00  0.00    +0.000 C 
BRANCH  24  25
ATOM     25  O   UNL     1      42.858   2.660  11.587  0.00  0.00    +0.000 OA
ATOM     26  H   UNL     1      42.620   3.347  12.236  0.00  0.00    +0.000 HD
ENDBRANCH  24  25
BRANCH  24  27
ATOM     27  C   UNL     1      44.960   2.565  10.355  0.00  0.00    +0.000 C 
BRANCH  27  28
ATOM     28  N   UNL     1      45.410   2.613   8.962  0.00  0.00    +0.000 NA
ATOM     29  C   UNL     1      45.331   3.816   8.167  0.00  0.00    +0.000 C 
ATOM     30  C   UNL     1      46.611   4.055   7.353  0.00  0.00    +0.000 C 
ATOM     31  C   UNL     1      47.204   2.807   6.695  0.00  0.00    +0.000 C 
ATOM     32  C   UNL     1      47.089   1.537   7.537  0.00  0.00    +0.000 C 
ATOM     33  C   UNL     1      45.763   1.389   8.283  0.00  0.00    +0.000 C 
BRANCH  31  34
ATOM     34  O   UNL     1      46.665   2.581   5.391  0.00  0.00    +0.000 OA
ATOM     35  H   UNL     1      46.999   1.741   5.049  0.00  0.00    +0.000 HD
ENDBRANCH  31  34
ENDBRANCH  27  28
ENDBRANCH  24  27
ENDBRANCH  23  24
ENDBRANCH   4  23
TORSDOF 9
ENDMDL
MODEL 4
REMARK VINA RESULT:    -7.407      2.909      3.922
REMARK INTER + INTRA:         -11.789
REMARK INTER:                 -10.445
REMARK INTRA:                  -1.344
REMARK UNBOUND:                -0.919
REMARK  Name = 
REMARK  9 active torsions:
REMARK  status: ('A' for Active; 'I' for Inactive)
REMARK    1  A    between atoms: C_2  and  C_22
REMARK    2  A    between atoms: N_3  and  C_4
REMARK    3  A    between atoms: C_4  and  C_5
REMARK    4  A    between atoms: C_8  and  C_9
REMARK    5  A    between atoms: C_9  and  C_10
REMARK    6  A    between atoms: C_10  and  O_11
REMARK    7  A    between atoms: C_10  and  C_12
REMARK    8  A    between atoms: C_12  and  N_13
REMARK    9  A    between atoms: C_16  and  O_17
REMARK                            x       y       z     vdW  Elec       q    Type
REMARK                         _______ _______ _______ _____ _____    ______ ____
ROOT
ATOM      1  C   UNL     1      48.059   5.176  16.490  0.00  0.00    +0.000 A 
ATOM      2  C   UNL     1      47.194   4.307  15.831  0.00  0.00    +0.000 A 
ATOM      3  C   UNL     1      46.887   4.516  14.474  0.00  0.00    +0.000 A 
ATOM      4  C   UNL     1      47.421   5.619  13.792  0.00  0.00    +0.000 A 
ATOM      5  N   UNL     1      48.254   6.478  14.413  0.00  0.00    +0.000 NA
ATOM      6  C   UNL     1      48.544   6.239  15.726  0.00  0.00    +0.000 A 
ENDROOT
BRANCH   1   7
ATOM      7  C   UNL     1      48.609   4.911  17.870  0.00  0.00    +0.000 C 
BRANCH   7  10
ATOM      8  O   UNL     1      51.154   5.835  17.906  0.00  0.00    +0.000 OA
ATOM      9  C   UNL     1      51.007   4.634  18.125  0.00  0.00    +0.000 C 
ATOM     10  N   UNL     1      49.757   4.032  18.002  0.00  0.00    +0.000 N 
ATOM     11  H   UNL     1      49.622   3.129  18.454  0.00  0.00    +0.000 HD
BRANCH   9  12
ATOM     12  C   UNL     1      52.167   3.811  18.518  0.00  0.00    +0.000 A 
ATOM     13  C   UNL     1      53.115   4.335  19.392  0.00  0.00    +0.000 A 
ATOM     14  S   UNL     1      54.398   3.269  19.746  0.00  0.00    +0.000 S 
ATOM     15  C   UNL     1      53.703   2.045  18.792  0.00  0.00    +0.000 A 
ATOM     16  N   UNL     1      54.294   0.827  18.693  0.00  0.00    +0.000 NA
ATOM     17  C   UNL     1      53.636  -0.031  17.990  0.00  0.00    +0.000 A 
ATOM     18  N   UNL     1      52.440   0.232  17.365  0.00  0.00    +0.000 N 
ATOM     19  C   UNL     1      51.822   1.462  17.413  0.00  0.00    +0.000 A 
ATOM     20  O   UNL     1      50.761   1.673  16.838  0.00  0.00    +0.000 OA
ATOM     21  C   UNL     1      52.520   2.452  18.205  0.00  0.00    +0.000 A 
ATOM     22  H   UNL     1      51.966  -0.487  16.836  0.00  0.00    +0.000 HD
ENDBRANCH   9  12
ENDBRANCH   7  10
ENDBRANCH   1   7
BRANCH   4  23
ATOM     23  C   UNL     1      46.957   5.911  12.370  0.00  0.00    +0.000 C 
BRANCH  23  24
ATOM     24  C   UNL     1      46.154   7.201  12.070  0.00  0.00    +0.000 C 
BRANCH  24  25
ATOM     25  O   UNL     1      45.716   7.712  13.356  0.00  0.00    +0.000 OA
ATOM     26  H   UNL     1      45.018   7.114  13.681  0.00  0.00    +0.000 HD
ENDBRANCH  24  25
BRANCH  24  27
ATOM     27  C   UNL     1      44.899   7.050  11.156  0.00  0.00    +0.000 C 
BRANCH  27  28
ATOM     28  N   UNL     1      44.345   5.698  11.253  0.00  0.00    +0.000 NA
ATOM     29  C   UNL     1      44.665   4.662  10.299  0.00  0.00    +0.000 C 
ATOM     30  C   UNL     1      44.958   3.319  10.982  0.00  0.00    +0.000 C 
ATOM     31  C   UNL     1      44.016   2.956  12.133  0.00  0.00    +0.000 C 
ATOM     32  C   UNL     1      43.587   4.145  12.992  0.00  0.00    +0.000 C 
ATOM     33  C   UNL     1      43.295   5.423  12.205  0.00  0.00    +0.000 C 
BRANCH  31  34
ATOM     34  O   UNL     1      42.867   2.239  11.679  0.00  0.00    +0.000 OA
ATOM     35  H   UNL     1      42.325   1.989  12.441  0.00  0.00    +0.000 HD
ENDBRANCH  31  34
ENDBRANCH  27  28
ENDBRANCH  24  27
ENDBRANCH  23  24
ENDBRANCH   4  23
TORSDOF 9
ENDMDL
MODEL 5
REMARK VINA RESULT:    -7.244      1.940      2.111
REMARK INTER + INTRA:         -11.550
REMARK INTER:                 -10.589
REMARK INTRA:                  -0.961
REMARK UNBOUND:                -0.919
REMARK  Name = 
REMARK  9 active torsions:
REMARK  status: ('A' for Active; 'I' for Inactive)
REMARK    1  A    between atoms: C_2  and  C_22
REMARK    2  A    between atoms: N_3  and  C_4
REMARK    3  A    between atoms: C_4  and  C_5
REMARK    4  A    between atoms: C_8  and  C_9
REMARK    5  A    between atoms: C_9  and  C_10
REMARK    6  A    between atoms: C_10  and  O_11
REMARK    7  A    between atoms: C_10  and  C_12
REMARK    8  A    between atoms: C_12  and  N_13
REMARK    9  A    between atoms: C_16  and  O_17
REMARK                            x       y       z     vdW  Elec       q    Type
REMARK                         _______ _______ _______ _____ _____    ______ ____
ROOT
ATOM      1  C   UNL     1      47.542   6.338  13.663  0.00  0.00    +0.000 A 
ATOM      2  C   UNL     1      46.964   6.825  12.494  0.00  0.00    +0.000 A 
ATOM      3  C   UNL     1      46.004   6.056  11.811  0.00  0.00    +0.000 A 
ATOM      4  C   UNL     1      45.654   4.783  12.284  0.00  0.00    +0.000 A 
ATOM      5  N   UNL     1      46.207   4.287  13.409  0.00  0.00    +0.000 NA
ATOM      6  C   UNL     1      47.125   5.065  14.057  0.00  0.00    +0.000 A 
ENDROOT
BRANCH   1   7
ATOM      7  C   UNL     1      48.411   7.174  14.570  0.00  0.00    +0.000 C 
BRANCH   7  10
ATOM      8  O   UNL     1      48.564   8.255  17.049  0.00  0.00    +0.000 OA
ATOM      9  C   UNL     1      49.012   7.116  16.921  0.00  0.00    +0.000 C 
ATOM     10  N   UNL     1      49.102   6.519  15.666  0.00  0.00    +0.000 N 
ATOM     11  H   UNL     1      49.206   5.507  15.633  0.00  0.00    +0.000 HD
BRANCH   9  12
ATOM     12  C   UNL     1      49.469   6.370  18.109  0.00  0.00    +0.000 A 
ATOM     13  C   UNL     1      48.582   6.135  19.154  0.00  0.00    +0.000 A 
ATOM     14  S   UNL     1      49.258   5.266  20.457  0.00  0.00    +0.000 S 
ATOM     15  C   UNL     1      50.745   5.119  19.646  0.00  0.00    +0.000 A 
ATOM     16  N   UNL     1      51.774   4.436  20.208  0.00  0.00    +0.000 NA
ATOM     17  C   UNL     1      52.825   4.346  19.466  0.00  0.00    +0.000 A 
ATOM     18  N   UNL     1      52.938   4.894  18.210  0.00  0.00    +0.000 N 
ATOM     19  C   UNL     1      51.930   5.622  17.616  0.00  0.00    +0.000 A 
ATOM     20  O   UNL     1      52.061   6.109  16.499  0.00  0.00    +0.000 OA
ATOM     21  C   UNL     1      50.725   5.735  18.409  0.00  0.00    +0.000 A 
ATOM     22  H   UNL     1      53.785   4.779  17.672  0.00  0.00    +0.000 HD
ENDBRANCH   9  12
ENDBRANCH   7  10
ENDBRANCH   1   7
BRANCH   4  23
ATOM     23  C   UNL     1      44.729   3.907  11.448  0.00  0.00    +0.000 C 
BRANCH  23  24
ATOM     24  C   UNL     1      44.577   4.175   9.930  0.00  0.00    +0.000 C 
BRANCH  24  25
ATOM     25  O   UNL     1      43.365   4.959   9.778  0.00  0.00    +0.000 OA
ATOM     26  H   UNL     1      42.981   4.732   8.912  0.00  0.00    +0.000 HD
ENDBRANCH  24  25
BRANCH  24  27
ATOM     27  C   UNL     1      44.463   2.924   9.004  0.00  0.00    +0.000 C 
BRANCH  27  28
ATOM     28  N   UNL     1      45.697   2.731   8.239  0.00  0.00    +0.000 NA
ATOM     29  C   UNL     1      46.416   1.479   8.238  0.00  0.00    +0.000 C 
ATOM     30  C   UNL     1      46.874   1.077   6.829  0.00  0.00    +0.000 C 
ATOM     31  C   UNL     1      47.437   2.219   5.979  0.00  0.00    +0.000 C 
ATOM     32  C   UNL     1      46.724   3.556   6.172  0.00  0.00    +0.000 C 
ATOM     33  C   UNL     1      46.338   3.866   7.619  0.00  0.00    +0.000 C 
BRANCH  31  34
ATOM     34  O   UNL     1      48.845   2.382   6.165  0.00  0.00    +0.000 OA
ATOM     35  H   UNL     1      49.246   1.519   6.336  0.00  0.00    +0.000 HD
ENDBRANCH  31  34
ENDBRANCH  27  28
ENDBRANCH  24  27
ENDBRANCH  23  24
ENDBRANCH   4  23
TORSDOF 9
ENDMDL
MODEL 6
REMARK VINA RESULT:    -6.669      3.304      9.532
REMARK INTER + INTRA:         -10.707
REMARK INTER:                  -9.301
REMARK INTRA:                  -1.406
REMARK UNBOUND:                -0.919
REMARK  Name = 
REMARK  9 active torsions:
REMARK  status: ('A' for Active; 'I' for Inactive)
REMARK    1  A    between atoms: C_2  and  C_22
REMARK    2  A    between atoms: N_3  and  C_4
REMARK    3  A    between atoms: C_4  and  C_5
REMARK    4  A    between atoms: C_8  and  C_9
REMARK    5  A    between atoms: C_9  and  C_10
REMARK    6  A    between atoms: C_10  and  O_11
REMARK    7  A    between atoms: C_10  and  C_12
REMARK    8  A    between atoms: C_12  and  N_13
REMARK    9  A    between atoms: C_16  and  O_17
REMARK                            x       y       z     vdW  Elec       q    Type
REMARK                         _______ _______ _______ _____ _____    ______ ____
ROOT
ATOM      1  C   UNL     1      48.042   7.558  14.535  0.00  0.00    +0.000 A 
ATOM      2  C   UNL     1      48.060   8.664  15.379  0.00  0.00    +0.000 A 
ATOM      3  C   UNL     1      49.042   8.769  16.380  0.00  0.00    +0.000 A 
ATOM      4  C   UNL     1      49.982   7.743  16.555  0.00  0.00    +0.000 A 
ATOM      5  N   UNL     1      49.978   6.657  15.755  0.00  0.00    +0.000 NA
ATOM      6  C   UNL     1      49.021   6.593  14.783  0.00  0.00    +0.000 A 
ENDROOT
BRANCH   1   7
ATOM      7  C   UNL     1      47.168   7.464  13.308  0.00  0.00    +0.000 C 
BRANCH   7  10
ATOM      8  O   UNL     1      44.940   7.325  11.775  0.00  0.00    +0.000 OA
ATOM      9  C   UNL     1      45.417   6.252  12.142  0.00  0.00    +0.000 C 
ATOM     10  N   UNL     1      46.482   6.212  13.038  0.00  0.00    +0.000 N 
ATOM     11  H   UNL     1      47.018   5.349  13.095  0.00  0.00    +0.000 HD
BRANCH   9  12
ATOM     12  C   UNL     1      44.853   4.986  11.637  0.00  0.00    +0.000 A 
ATOM     13  C   UNL     1      44.010   4.237  12.451  0.00  0.00    +0.000 A 
ATOM     14  S   UNL     1      43.445   2.798  11.729  0.00  0.00    +0.000 S 
ATOM     15  C   UNL     1      44.260   3.153  10.279  0.00  0.00    +0.000 A 
ATOM     16  N   UNL     1      44.159   2.324   9.210  0.00  0.00    +0.000 NA
ATOM     17  C   UNL     1      44.774   2.736   8.154  0.00  0.00    +0.000 A 
ATOM     18  N   UNL     1      45.492   3.906   8.081  0.00  0.00    +0.000 N 
ATOM     19  C   UNL     1      45.645   4.760   9.150  0.00  0.00    +0.000 A 
ATOM     20  O   UNL     1      46.300   5.792   9.061  0.00  0.00    +0.000 OA
ATOM     21  C   UNL     1      44.959   4.343  10.354  0.00  0.00    +0.000 A 
ATOM     22  H   UNL     1      45.943   4.181   7.220  0.00  0.00    +0.000 HD
ENDBRANCH   9  12
ENDBRANCH   7  10
ENDBRANCH   1   7
BRANCH   4  23
ATOM     23  C   UNL     1      50.939   7.805  17.740  0.00  0.00    +0.000 C 
BRANCH  23  24
ATOM     24  C   UNL     1      50.424   7.483  19.166  0.00  0.00    +0.000 C 
BRANCH  24  25
ATOM     25  O   UNL     1      51.198   8.313  20.071  0.00  0.00    +0.000 OA
ATOM     26  H   UNL     1      52.054   8.487  19.640  0.00  0.00    +0.000 HD
ENDBRANCH  24  25
BRANCH  24  27
ATOM     27  C   UNL     1      50.549   6.002  19.639  0.00  0.00    +0.000 C 
BRANCH  27  28
ATOM     28  N   UNL     1      49.424   5.203  19.147  0.00  0.00    +0.000 NA
ATOM     29  C   UNL     1      48.051   5.537  19.444  0.00  0.00    +0.000 C 
ATOM     30  C   UNL     1      47.147   5.416  18.210  0.00  0.00    +0.000 C 
ATOM     31  C   UNL     1      47.404   4.186  17.336  0.00  0.00    +0.000 C 
ATOM     32  C   UNL     1      48.877   3.797  17.215  0.00  0.00    +0.000 C 
ATOM     33  C   UNL     1      49.676   3.931  18.511  0.00  0.00    +0.000 C 
BRANCH  31  34
ATOM     34  O   UNL     1      46.632   3.059  17.755  0.00  0.00    +0.000 OA
ATOM     35  H   UNL     1      47.176   2.261  17.696  0.00  0.00    +0.000 HD
ENDBRANCH  31  34
ENDBRANCH  27  28
ENDBRANCH  24  27
ENDBRANCH  23  24
ENDBRANCH   4  23
TORSDOF 9
ENDMDL
MODEL 7
REMARK VINA RESULT:    -6.649      4.639      5.269
REMARK INTER + INTRA:         -10.678
REMARK INTER:                  -9.353
REMARK INTRA:                  -1.324
REMARK UNBOUND:                -0.919
REMARK  Name = 
REMARK  9 active torsions:
REMARK  status: ('A' for Active; 'I' for Inactive)
REMARK    1  A    between atoms: C_2  and  C_22
REMARK    2  A    between atoms: N_3  and  C_4
REMARK    3  A    between atoms: C_4  and  C_5
REMARK    4  A    between atoms: C_8  and  C_9
REMARK    5  A    between atoms: C_9  and  C_10
REMARK    6  A    between atoms: C_10  and  O_11
REMARK    7  A    between atoms: C_10  and  C_12
REMARK    8  A    between atoms: C_12  and  N_13
REMARK    9  A    between atoms: C_16  and  O_17
REMARK                            x       y       z     vdW  Elec       q    Type
REMARK                         _______ _______ _______ _____ _____    ______ ____
ROOT
ATOM      1  C   UNL     1      46.361   7.882  12.297  0.00  0.00    +0.000 A 
ATOM      2  C   UNL     1      45.241   7.574  11.531  0.00  0.00    +0.000 A 
ATOM      3  C   UNL     1      44.772   6.248  11.474  0.00  0.00    +0.000 A 
ATOM      4  C   UNL     1      45.453   5.230  12.156  0.00  0.00    +0.000 A 
ATOM      5  N   UNL     1      46.545   5.504  12.897  0.00  0.00    +0.000 NA
ATOM      6  C   UNL     1      46.966   6.803  12.944  0.00  0.00    +0.000 A 
ENDROOT
BRANCH   1   7
ATOM      7  C   UNL     1      46.804   9.295  12.589  0.00  0.00    +0.000 C 
BRANCH   7  10
ATOM      8  O   UNL     1      48.705   9.997  14.386  0.00  0.00    +0.000 OA
ATOM      9  C   UNL     1      49.065   9.924  13.212  0.00  0.00    +0.000 C 
ATOM     10  N   UNL     1      48.142   9.699  12.193  0.00  0.00    +0.000 N 
ATOM     11  H   UNL     1      48.498   9.369  11.299  0.00  0.00    +0.000 HD
BRANCH   9  12
ATOM     12  C   UNL     1      50.491  10.081  12.870  0.00  0.00    +0.000 A 
ATOM     13  C   UNL     1      51.203  11.162  13.380  0.00  0.00    +0.000 A 
ATOM     14  S   UNL     1      52.837  11.210  12.891  0.00  0.00    +0.000 S 
ATOM     15  C   UNL     1      52.668   9.755  12.027  0.00  0.00    +0.000 A 
ATOM     16  N   UNL     1      53.730   9.204  11.388  0.00  0.00    +0.000 NA
ATOM     17  C   UNL     1      53.485   8.071  10.822  0.00  0.00    +0.000 A 
ATOM     18  N   UNL     1      52.260   7.447  10.833  0.00  0.00    +0.000 N 
ATOM     19  C   UNL     1      51.149   7.986  11.443  0.00  0.00    +0.000 A 
ATOM     20  O   UNL     1      50.066   7.413  11.428  0.00  0.00    +0.000 OA
ATOM     21  C   UNL     1      51.383   9.252  12.103  0.00  0.00    +0.000 A 
ATOM     22  H   UNL     1      52.134   6.553  10.381  0.00  0.00    +0.000 HD
ENDBRANCH   9  12
ENDBRANCH   7  10
ENDBRANCH   1   7
BRANCH   4  23
ATOM     23  C   UNL     1      45.018   3.782  11.957  0.00  0.00    +0.000 C 
BRANCH  23  24
ATOM     24  C   UNL     1      44.095   3.411  10.770  0.00  0.00    +0.000 C 
BRANCH  24  25
ATOM     25  O   UNL     1      42.769   3.231  11.331  0.00  0.00    +0.000 OA
ATOM     26  H   UNL     1      42.659   2.280  11.513  0.00  0.00    +0.000 HD
ENDBRANCH  24  25
BRANCH  24  27
ATOM     27  C   UNL     1      44.462   2.121   9.972  0.00  0.00    +0.000 C 
BRANCH  27  28
ATOM     28  N   UNL     1      45.155   2.460   8.727  0.00  0.00    +0.000 NA
ATOM     29  C   UNL     1      45.048   3.763   8.114  0.00  0.00    +0.000 C 
ATOM     30  C   UNL     1      46.407   4.287   7.631  0.00  0.00    +0.000 C 
ATOM     31  C   UNL     1      47.295   3.249   6.940  0.00  0.00    +0.000 C 
ATOM     32  C   UNL     1      47.216   1.850   7.548  0.00  0.00    +0.000 C 
ATOM     33  C   UNL     1      45.810   1.420   7.969  0.00  0.00    +0.000 C 
BRANCH  31  34
ATOM     34  O   UNL     1      47.052   3.187   5.533  0.00  0.00    +0.000 OA
ATOM     35  H   UNL     1      46.603   3.996   5.251  0.00  0.00    +0.000 HD
ENDBRANCH  31  34
ENDBRANCH  27  28
ENDBRANCH  24  27
ENDBRANCH  23  24
ENDBRANCH   4  23
TORSDOF 9
ENDMDL
MODEL 8
REMARK VINA RESULT:    -6.570      4.904      6.362
REMARK INTER + INTRA:         -10.561
REMARK INTER:                  -9.566
REMARK INTRA:                  -0.994
REMARK UNBOUND:                -0.919
REMARK  Name = 
REMARK  9 active torsions:
REMARK  status: ('A' for Active; 'I' for Inactive)
REMARK    1  A    between atoms: C_2  and  C_22
REMARK    2  A    between atoms: N_3  and  C_4
REMARK    3  A    between atoms: C_4  and  C_5
REMARK    4  A    between atoms: C_8  and  C_9
REMARK    5  A    between atoms: C_9  and  C_10
REMARK    6  A    between atoms: C_10  and  O_11
REMARK    7  A    between atoms: C_10  and  C_12
REMARK    8  A    between atoms: C_12  and  N_13
REMARK    9  A    between atoms: C_16  and  O_17
REMARK                            x       y       z     vdW  Elec       q    Type
REMARK                         _______ _______ _______ _____ _____    ______ ____
ROOT
ATOM      1  C   UNL     1      47.677   6.797  12.653  0.00  0.00    +0.000 A 
ATOM      2  C   UNL     1      46.811   7.172  11.630  0.00  0.00    +0.000 A 
ATOM      3  C   UNL     1      45.547   6.564  11.521  0.00  0.00    +0.000 A 
ATOM      4  C   UNL     1      45.171   5.554  12.418  0.00  0.00    +0.000 A 
ATOM      5  N   UNL     1      45.997   5.168  13.411  0.00  0.00    +0.000 NA
ATOM      6  C   UNL     1      47.211   5.788  13.499  0.00  0.00    +0.000 A 
ENDROOT
BRANCH   1   7
ATOM      7  C   UNL     1      48.952   7.538  12.975  0.00  0.00    +0.000 C 
BRANCH   7  10
ATOM      8  O   UNL     1      51.558   8.272  12.919  0.00  0.00    +0.000 OA
ATOM      9  C   UNL     1      50.857   8.679  11.993  0.00  0.00    +0.000 C 
ATOM     10  N   UNL     1      49.480   8.469  11.993  0.00  0.00    +0.000 N 
ATOM     11  H   UNL     1      48.989   8.562  11.107  0.00  0.00    +0.000 HD
BRANCH   9  12
ATOM     12  C   UNL     1      51.475   9.404  10.867  0.00  0.00    +0.000 A 
ATOM     13  C   UNL     1      51.337  10.786  10.784  0.00  0.00    +0.000 A 
ATOM     14  S   UNL     1      52.100  11.480   9.425  0.00  0.00    +0.000 S 
ATOM     15  C   UNL     1      52.694   9.965   8.930  0.00  0.00    +0.000 A 
ATOM     16  N   UNL     1      53.478   9.858   7.828  0.00  0.00    +0.000 NA
ATOM     17  C   UNL     1      53.913   8.666   7.595  0.00  0.00    +0.000 A 
ATOM     18  N   UNL     1      53.619   7.568   8.368  0.00  0.00    +0.000 N 
ATOM     19  C   UNL     1      52.803   7.627   9.476  0.00  0.00    +0.000 A 
ATOM     20  O   UNL     1      52.548   6.630  10.142  0.00  0.00    +0.000 OA
ATOM     21  C   UNL     1      52.303   8.950   9.783  0.00  0.00    +0.000 A 
ATOM     22  H   UNL     1      54.000   6.661   8.140  0.00  0.00    +0.000 HD
ENDBRANCH   9  12
ENDBRANCH   7  10
ENDBRANCH   1   7
BRANCH   4  23
ATOM     23  C   UNL     1      43.863   4.806  12.189  0.00  0.00    +0.000 C 
BRANCH  23  24
ATOM     24  C   UNL     1      43.757   3.771  11.041  0.00  0.00    +0.000 C 
BRANCH  24  25
ATOM     25  O   UNL     1      42.669   2.880  11.400  0.00  0.00    +0.000 OA
ATOM     26  H   UNL     1      43.069   2.044  11.702  0.00  0.00    +0.000 HD
ENDBRANCH  24  25
BRANCH  24  27
ATOM     27  C   UNL     1      45.022   2.902  10.760  0.00  0.00    +0.000 C 
BRANCH  27  28
ATOM     28  N   UNL     1      45.352   2.911   9.333  0.00  0.00    +0.000 NA
ATOM     29  C   UNL     1      45.339   4.121   8.545  0.00  0.00    +0.000 C 
ATOM     30  C   UNL     1      46.561   4.223   7.623  0.00  0.00    +0.000 C 
ATOM     31  C   UNL     1      46.952   2.922   6.918  0.00  0.00    +0.000 C 
ATOM     32  C   UNL     1      46.771   1.666   7.769  0.00  0.00    +0.000 C 
ATOM     33  C   UNL     1      45.506   1.661   8.628  0.00  0.00    +0.000 C 
BRANCH  31  34
ATOM     34  O   UNL     1      46.280   2.767   5.666  0.00  0.00    +0.000 OA
ATOM     35  H   UNL     1      46.480   1.893   5.302  0.00  0.00    +0.000 HD
ENDBRANCH  31  34
ENDBRANCH  27  28
ENDBRANCH  24  27
ENDBRANCH  23  24
ENDBRANCH   4  23
TORSDOF 9
ENDMDL
MODEL 9
REMARK VINA RESULT:    -6.171      3.559      9.110
REMARK INTER + INTRA:          -9.976
REMARK INTER:                  -9.298
REMARK INTRA:                  -0.678
REMARK UNBOUND:                -0.919
REMARK  Name = 
REMARK  9 active torsions:
REMARK  status: ('A' for Active; 'I' for Inactive)
REMARK    1  A    between atoms: C_2  and  C_22
REMARK    2  A    between atoms: N_3  and  C_4
REMARK    3  A    between atoms: C_4  and  C_5
REMARK    4  A    between atoms: C_8  and  C_9
REMARK    5  A    between atoms: C_9  and  C_10
REMARK    6  A    between atoms: C_10  and  O_11
REMARK    7  A    between atoms: C_10  and  C_12
REMARK    8  A    between atoms: C_12  and  N_13
REMARK    9  A    between atoms: C_16  and  O_17
REMARK                            x       y       z     vdW  Elec       q    Type
REMARK                         _______ _______ _______ _____ _____    ______ ____
ROOT
ATOM      1  C   UNL     1      47.604   8.093  13.828  0.00  0.00    +0.000 A 
ATOM      2  C   UNL     1      48.412   8.953  14.566  0.00  0.00    +0.000 A 
ATOM      3  C   UNL     1      49.388   8.429  15.432  0.00  0.00    +0.000 A 
ATOM      4  C   UNL     1      49.525   7.041  15.583  0.00  0.00    +0.000 A 
ATOM      5  N   UNL     1      48.747   6.190  14.885  0.00  0.00    +0.000 NA
ATOM      6  C   UNL     1      47.819   6.731  14.041  0.00  0.00    +0.000 A 
ENDROOT
BRANCH   1   7
ATOM      7  C   UNL     1      46.686   8.560  12.724  0.00  0.00    +0.000 C 
BRANCH   7  10
ATOM      8  O   UNL     1      47.535   7.009  10.673  0.00  0.00    +0.000 OA
ATOM      9  C   UNL     1      46.412   6.766  11.112  0.00  0.00    +0.000 C 
ATOM     10  N   UNL     1      45.828   7.584  12.075  0.00  0.00    +0.000 N 
ATOM     11  H   UNL     1      45.047   7.204  12.605  0.00  0.00    +0.000 HD
BRANCH   9  12
ATOM     12  C   UNL     1      45.665   5.597  10.611  0.00  0.00    +0.000 A 
ATOM     13  C   UNL     1      45.722   5.275   9.258  0.00  0.00    +0.000 A 
ATOM     14  S   UNL     1      44.802   3.903   8.832  0.00  0.00    +0.000 S 
ATOM     15  C   UNL     1      44.343   3.653  10.450  0.00  0.00    +0.000 A 
ATOM     16  N   UNL     1      43.564   2.595  10.791  0.00  0.00    +0.000 NA
ATOM     17  C   UNL     1      43.337   2.484  12.055  0.00  0.00    +0.000 A 
ATOM     18  N   UNL     1      43.815   3.351  13.009  0.00  0.00    +0.000 N 
ATOM     19  C   UNL     1      44.581   4.454  12.703  0.00  0.00    +0.000 A 
ATOM     20  O   UNL     1      44.986   5.218  13.572  0.00  0.00    +0.000 OA
ATOM     21  C   UNL     1      44.873   4.610  11.294  0.00  0.00    +0.000 A 
ATOM     22  H   UNL     1      43.612   3.204  13.987  0.00  0.00    +0.000 HD
ENDBRANCH   9  12
ENDBRANCH   7  10
ENDBRANCH   1   7
BRANCH   4  23
ATOM     23  C   UNL     1      50.483   6.499  16.637  0.00  0.00    +0.000 C 
BRANCH  23  24
ATOM     24  C   UNL     1      50.333   6.940  18.115  0.00  0.00    +0.000 C 
BRANCH  24  25
ATOM     25  O   UNL     1      51.680   7.149  18.612  0.00  0.00    +0.000 OA
ATOM     26  H   UNL     1      51.602   7.523  19.508  0.00  0.00    +0.000 HD
ENDBRANCH  24  25
BRANCH  24  27
ATOM     27  C   UNL     1      49.612   5.943  19.075  0.00  0.00    +0.000 C 
BRANCH  27  28
ATOM     28  N   UNL     1      49.999   4.562  18.776  0.00  0.00    +0.000 NA
ATOM     29  C   UNL     1      49.040   3.564  18.365  0.00  0.00    +0.000 C 
ATOM     30  C   UNL     1      49.555   2.715  17.194  0.00  0.00    +0.000 C 
ATOM     31  C   UNL     1      51.022   2.290  17.297  0.00  0.00    +0.000 C 
ATOM     32  C   UNL     1      51.942   3.347  17.905  0.00  0.00    +0.000 C 
ATOM     33  C   UNL     1      51.336   4.112  19.082  0.00  0.00    +0.000 C 
BRANCH  31  34
ATOM     34  O   UNL     1      51.173   1.050  17.991  0.00  0.00    +0.000 OA
ATOM     35  H   UNL     1      51.632   1.207  18.828  0.00  0.00    +0.000 HD
ENDBRANCH  31  34
ENDBRANCH  27  28
ENDBRANCH  24  27
ENDBRANCH  23  24
ENDBRANCH   4  23
TORSDOF 9
ENDMDL
