MODEL 1
REMARK VINA RESULT:    -8.621      0.000      0.000
REMARK INTER + INTRA:         -11.761
REMARK INTER:                 -11.141
REMARK INTRA:                  -0.621
REMARK UNBOUND:                -0.621
REMARK  Name = 
REMARK  5 active torsions:
REMARK  status: ('A' for Active; 'I' for Inactive)
REMARK    1  A    between atoms: C_2  and  C_4
REMARK    2  A    between atoms: C_7  and  N_8
REMARK    3  A    between atoms: N_8  and  C_9
REMARK    4  A    between atoms: C_9  and  C_10
REMARK    5  A    between atoms: C_14  and  C_15
REMARK                            x       y       z     vdW  Elec       q    Type
REMARK                         _______ _______ _______ _____ _____    ______ ____
ROOT
ATOM      1  C   UNL     1      43.568   4.518  11.199  0.00  0.00    +0.000 C 
ENDROOT
BRANCH   1   2
ATOM      2  C   UNL     1      44.833   4.886  11.941  0.00  0.00    +0.000 A 
ATOM      3  C   UNL     1      45.417   4.037  12.878  0.00  0.00    +0.000 A 
ATOM      4  C   UNL     1      46.599   4.436  13.479  0.00  0.00    +0.000 A 
ATOM      5  N   UNL     1      47.222   5.608  13.224  0.00  0.00    +0.000 NA
ATOM      6  C   UNL     1      46.652   6.446  12.324  0.00  0.00    +0.000 A 
ATOM      7  C   UNL     1      45.473   6.103  11.661  0.00  0.00    +0.000 A 
BRANCH   6   8
ATOM      8  C   UNL     1      47.352   7.727  12.093  0.00  0.00    +0.000 A 
ATOM      9  C   UNL     1      46.695   8.967  12.239  0.00  0.00    +0.000 A 
ATOM     10  C   UNL     1      47.352  10.179  12.004  0.00  0.00    +0.000 A 
ATOM     11  C   UNL     1      48.689  10.178  11.621  0.00  0.00    +0.000 A 
ATOM     12  C   UNL     1      49.355   8.967  11.485  0.00  0.00    +0.000 A 
ATOM     13  F   UNL     1      50.644   8.966  11.122  0.00  0.00    +0.000 F 
ATOM     14  C   UNL     1      48.707   7.755  11.719  0.00  0.00    +0.000 A 
ENDBRANCH   6   8
ENDBRANCH   1   2
BRANCH   1  15
ATOM     15  N   UNL     1      43.778   4.761   9.776  0.00  0.00    +0.000 N 
ATOM     16  H   UNL     1      42.905   4.767   9.258  0.00  0.00    +0.000 HD
BRANCH  15  20
ATOM     17  C   UNL     1      46.403   2.299   7.797  0.00  0.00    +0.000 A 
ATOM     18  C   UNL     1      46.439   3.670   7.601  0.00  0.00    +0.000 A 
ATOM     19  N   UNL     1      45.612   4.527   8.262  0.00  0.00    +0.000 NA
ATOM     20  C   UNL     1      44.742   3.977   9.136  0.00  0.00    +0.000 A 
ATOM     21  C   UNL     1      44.734   2.586   9.326  0.00  0.00    +0.000 A 
ATOM     22  N   UNL     1      45.550   1.713   8.678  0.00  0.00    +0.000 NA
BRANCH  17  24
ATOM     23  N   UNL     1      48.370   2.022   6.406  0.00  0.00    +0.000 N 
ATOM     24  C   UNL     1      47.299   1.413   7.003  0.00  0.00    +0.000 C 
ATOM     25  O   UNL     1      47.101   0.210   6.895  0.00  0.00    +0.000 OA
ATOM     26  H   UNL     1      49.040   1.459   5.902  0.00  0.00    +0.000 HD
ATOM     27  H   UNL     1      48.549   3.008   6.566  0.00  0.00    +0.000 HD
ENDBRANCH  17  24
ENDBRANCH  15  20
ENDBRANCH   1  15
TORSDOF 5
ENDMDL
MODEL 2
REMARK VINA RESULT:    -8.430      3.468      6.768
REMARK INTER + INTRA:         -11.515
REMARK INTER:                 -10.715
REMARK INTRA:                  -0.800
REMARK UNBOUND:                -0.621
REMARK  Name = 
REMARK  5 active torsions:
REMARK  status: ('A' for Active; 'I' for Inactive)
REMARK    1  A    between atoms: C_2  and  C_4
REMARK    2  A    between atoms: C_7  and  N_8
REMARK    3  A    between atoms: N_8  and  C_9
REMARK    4  A    between atoms: C_9  and  C_10
REMARK    5  A    between atoms: C_14  and  C_15
REMARK                            x       y       z     vdW  Elec       q    Type
REMARK                         _______ _______ _______ _____ _____    ______ ____
ROOT
ATOM      1  C   UNL     1      43.886   6.615  11.461  0.00  0.00    +0.000 C 
ENDROOT
BRANCH   1   2
ATOM      2  C   UNL     1      43.928   5.146  11.106  0.00  0.00    +0.000 A 
ATOM      3  C   UNL     1      43.186   4.194  11.801  0.00  0.00    +0.000 A 
ATOM      4  C   UNL     1      43.252   2.876  11.380  0.00  0.00    +0.000 A 
ATOM      5  N   UNL     1      44.002   2.447  10.340  0.00  0.00    +0.000 NA
ATOM      6  C   UNL     1      44.738   3.366   9.668  0.00  0.00    +0.000 A 
ATOM      7  C   UNL     1      44.705   4.716  10.020  0.00  0.00    +0.000 A 
BRANCH   6   8
ATOM      8  C   UNL     1      45.562   2.852   8.554  0.00  0.00    +0.000 A 
ATOM      9  C   UNL     1      46.012   3.694   7.516  0.00  0.00    +0.000 A 
ATOM     10  C   UNL     1      46.778   3.206   6.453  0.00  0.00    +0.000 A 
ATOM     11  C   UNL     1      47.117   1.858   6.408  0.00  0.00    +0.000 A 
ATOM     12  C   UNL     1      46.694   1.017   7.428  0.00  0.00    +0.000 A 
ATOM     13  F   UNL     1      47.025  -0.281   7.388  0.00  0.00    +0.000 F 
ATOM     14  C   UNL     1      45.932   1.497   8.491  0.00  0.00    +0.000 A 
ENDBRANCH   6   8
ENDBRANCH   1   2
BRANCH   1  15
ATOM     15  N   UNL     1      44.552   6.801  12.745  0.00  0.00    +0.000 N 
ATOM     16  H   UNL     1      44.056   7.457  13.339  0.00  0.00    +0.000 HD
BRANCH  15  20
ATOM     17  C   UNL     1      48.610   7.389  12.504  0.00  0.00    +0.000 A 
ATOM     18  C   UNL     1      47.729   8.381  12.104  0.00  0.00    +0.000 A 
ATOM     19  N   UNL     1      46.378   8.243  12.198  0.00  0.00    +0.000 NA
ATOM     20  C   UNL     1      45.921   7.081  12.713  0.00  0.00    +0.000 A 
ATOM     21  C   UNL     1      46.834   6.096  13.121  0.00  0.00    +0.000 A 
ATOM     22  N   UNL     1      48.186   6.212  13.036  0.00  0.00    +0.000 NA
BRANCH  17  24
ATOM     23  N   UNL     1      50.814   7.686  13.471  0.00  0.00    +0.000 N 
ATOM     24  C   UNL     1      50.076   7.582  12.323  0.00  0.00    +0.000 C 
ATOM     25  O   UNL     1      50.596   7.634  11.217  0.00  0.00    +0.000 OA
ATOM     26  H   UNL     1      51.819   7.763  13.407  0.00  0.00    +0.000 HD
ATOM     27  H   UNL     1      50.367   7.573  14.375  0.00  0.00    +0.000 HD
ENDBRANCH  17  24
ENDBRANCH  15  20
ENDBRANCH   1  15
TORSDOF 5
ENDMDL
MODEL 3
REMARK VINA RESULT:    -8.400      3.810      7.245
REMARK INTER + INTRA:         -11.476
REMARK INTER:                 -11.107
REMARK INTRA:                  -0.368
REMARK UNBOUND:                -0.621
REMARK  Name = 
REMARK  5 active torsions:
REMARK  status: ('A' for Active; 'I' for Inactive)
REMARK    1  A    between atoms: C_2  and  C_4
REMARK    2  A    between atoms: C_7  and  N_8
REMARK    3  A    between atoms: N_8  and  C_9
REMARK    4  A    between atoms: C_9  and  C_10
REMARK    5  A    between atoms: C_14  and  C_15
REMARK                            x       y       z     vdW  Elec       q    Type
REMARK                         _______ _______ _______ _____ _____    ______ ____
ROOT
ATOM      1  C   UNL     1      46.034   7.194  11.911  0.00  0.00    +0.000 C 
ENDROOT
BRANCH   1   2
ATOM      2  C   UNL     1      45.236   6.139  11.178  0.00  0.00    +0.000 A 
ATOM      3  C   UNL     1      43.875   5.950  11.402  0.00  0.00    +0.000 A 
ATOM      4  C   UNL     1      43.214   4.989  10.654  0.00  0.00    +0.000 A 
ATOM      5  N   UNL     1      43.809   4.209   9.724  0.00  0.00    +0.000 NA
ATOM      6  C   UNL     1      45.137   4.378   9.511  0.00  0.00    +0.000 A 
ATOM      7  C   UNL     1      45.865   5.342  10.210  0.00  0.00    +0.000 A 
BRANCH   6   8
ATOM      8  C   UNL     1      45.753   3.489   8.503  0.00  0.00    +0.000 A 
ATOM      9  C   UNL     1      46.283   3.993   7.297  0.00  0.00    +0.000 A 
ATOM     10  C   UNL     1      46.851   3.151   6.336  0.00  0.00    +0.000 A 
ATOM     11  C   UNL     1      46.907   1.780   6.564  0.00  0.00    +0.000 A 
ATOM     12  C   UNL     1      46.403   1.269   7.752  0.00  0.00    +0.000 A 
ATOM     13  F   UNL     1      46.461  -0.051   7.974  0.00  0.00    +0.000 F 
ATOM     14  C   UNL     1      45.836   2.102   8.715  0.00  0.00    +0.000 A 
ENDBRANCH   6   8
ENDBRANCH   1   2
BRANCH   1  15
ATOM     15  N   UNL     1      47.307   6.612  12.319  0.00  0.00    +0.000 N 
ATOM     16  H   UNL     1      47.717   6.042  11.586  0.00  0.00    +0.000 HD
BRANCH  15  20
ATOM     17  C   UNL     1      47.440   4.436  15.800  0.00  0.00    +0.000 A 
ATOM     18  C   UNL     1      48.230   5.564  15.643  0.00  0.00    +0.000 A 
ATOM     19  N   UNL     1      48.193   6.335  14.521  0.00  0.00    +0.000 NA
ATOM     20  C   UNL     1      47.335   5.952  13.551  0.00  0.00    +0.000 A 
ATOM     21  C   UNL     1      46.537   4.813  13.739  0.00  0.00    +0.000 A 
ATOM     22  N   UNL     1      46.558   4.030  14.850  0.00  0.00    +0.000 NA
BRANCH  17  24
ATOM     23  N   UNL     1      48.792   3.631  17.646  0.00  0.00    +0.000 N 
ATOM     24  C   UNL     1      47.569   3.606  17.031  0.00  0.00    +0.000 C 
ATOM     25  O   UNL     1      46.638   2.950  17.476  0.00  0.00    +0.000 OA
ATOM     26  H   UNL     1      48.917   3.131  18.514  0.00  0.00    +0.000 HD
ATOM     27  H   UNL     1      49.526   4.236  17.294  0.00  0.00    +0.000 HD
ENDBRANCH  17  24
ENDBRANCH  15  20
ENDBRANCH   1  15
TORSDOF 5
ENDMDL
MODEL 4
REMARK VINA RESULT:    -8.390      2.579      3.793
REMARK INTER + INTRA:         -11.463
REMARK INTER:                 -10.961
REMARK INTRA:                  -0.502
REMARK UNBOUND:                -0.621
REMARK  Name = 
REMARK  5 active torsions:
REMARK  status: ('A' for Active; 'I' for Inactive)
REMARK    1  A    between atoms: C_2  and  C_4
REMARK    2  A    between atoms: C_7  and  N_8
REMARK    3  A    between atoms: N_8  and  C_9
REMARK    4  A    between atoms: C_9  and  C_10
REMARK    5  A    between atoms: C_14  and  C_15
REMARK                            x       y       z     vdW  Elec       q    Type
REMARK                         _______ _______ _______ _____ _____    ______ ____
ROOT
ATOM      1  C   UNL     1      43.828   4.642  11.349  0.00  0.00    +0.000 C 
ENDROOT
BRANCH   1   2
ATOM      2  C   UNL     1      45.051   5.367  11.865  0.00  0.00    +0.000 A 
ATOM      3  C   UNL     1      45.612   6.448  11.189  0.00  0.00    +0.000 A 
ATOM      4  C   UNL     1      46.707   7.080  11.756  0.00  0.00    +0.000 A 
ATOM      5  N   UNL     1      47.277   6.707  12.924  0.00  0.00    +0.000 NA
ATOM      6  C   UNL     1      46.745   5.647  13.580  0.00  0.00    +0.000 A 
ATOM      7  C   UNL     1      45.629   4.975  13.082  0.00  0.00    +0.000 A 
BRANCH   6   8
ATOM      8  C   UNL     1      47.413   5.258  14.839  0.00  0.00    +0.000 A 
ATOM      9  C   UNL     1      48.351   6.102  15.471  0.00  0.00    +0.000 A 
ATOM     10  C   UNL     1      48.996   5.728  16.654  0.00  0.00    +0.000 A 
ATOM     11  C   UNL     1      48.713   4.498  17.237  0.00  0.00    +0.000 A 
ATOM     12  C   UNL     1      47.782   3.661  16.636  0.00  0.00    +0.000 A 
ATOM     13  F   UNL     1      47.504   2.478  17.200  0.00  0.00    +0.000 F 
ATOM     14  C   UNL     1      47.134   4.027  15.458  0.00  0.00    +0.000 A 
ENDBRANCH   6   8
ENDBRANCH   1   2
BRANCH   1  15
ATOM     15  N   UNL     1      43.820   4.724   9.893  0.00  0.00    +0.000 N 
ATOM     16  H   UNL     1      42.889   4.596   9.510  0.00  0.00    +0.000 HD
BRANCH  15  20
ATOM     17  C   UNL     1      46.375   2.280   7.803  0.00  0.00    +0.000 A 
ATOM     18  C   UNL     1      46.380   3.650   7.593  0.00  0.00    +0.000 A 
ATOM     19  N   UNL     1      45.575   4.501   8.287  0.00  0.00    +0.000 NA
ATOM     20  C   UNL     1      44.761   3.948   9.211  0.00  0.00    +0.000 A 
ATOM     21  C   UNL     1      44.783   2.559   9.414  0.00  0.00    +0.000 A 
ATOM     22  N   UNL     1      45.578   1.691   8.733  0.00  0.00    +0.000 NA
BRANCH  17  24
ATOM     23  N   UNL     1      48.284   2.014   6.331  0.00  0.00    +0.000 N 
ATOM     24  C   UNL     1      47.241   1.399   6.971  0.00  0.00    +0.000 C 
ATOM     25  O   UNL     1      47.044   0.196   6.871  0.00  0.00    +0.000 OA
ATOM     26  H   UNL     1      48.935   1.455   5.799  0.00  0.00    +0.000 HD
ATOM     27  H   UNL     1      48.465   3.001   6.485  0.00  0.00    +0.000 HD
ENDBRANCH  17  24
ENDBRANCH  15  20
ENDBRANCH   1  15
TORSDOF 5
ENDMDL
MODEL 5
REMARK VINA RESULT:    -8.044      4.165      7.514
REMARK INTER + INTRA:         -11.016
REMARK INTER:                 -10.454
REMARK INTRA:                  -0.562
REMARK UNBOUND:                -0.621
REMARK  Name = 
REMARK  5 active torsions:
REMARK  status: ('A' for Active; 'I' for Inactive)
REMARK    1  A    between atoms: C_2  and  C_4
REMARK    2  A    between atoms: C_7  and  N_8
REMARK    3  A    between atoms: N_8  and  C_9
REMARK    4  A    between atoms: C_9  and  C_10
REMARK    5  A    between atoms: C_14  and  C_15
REMARK                            x       y       z     vdW  Elec       q    Type
REMARK                         _______ _______ _______ _____ _____    ______ ____
ROOT
ATOM      1  C   UNL     1      45.014   6.077  12.858  0.00  0.00    +0.000 C 
ENDROOT
BRANCH   1   2
ATOM      2  C   UNL     1      44.589   4.868  12.055  0.00  0.00    +0.000 A 
ATOM      3  C   UNL     1      43.515   4.066  12.433  0.00  0.00    +0.000 A 
ATOM      4  C   UNL     1      43.169   3.003  11.615  0.00  0.00    +0.000 A 
ATOM      5  N   UNL     1      43.817   2.683  10.472  0.00  0.00    +0.000 NA
ATOM      6  C   UNL     1      44.872   3.450  10.105  0.00  0.00    +0.000 A 
ATOM      7  C   UNL     1      45.266   4.551  10.867  0.00  0.00    +0.000 A 
BRANCH   6   8
ATOM      8  C   UNL     1      45.567   3.051   8.863  0.00  0.00    +0.000 A 
ATOM      9  C   UNL     1      45.925   3.996   7.879  0.00  0.00    +0.000 A 
ATOM     10  C   UNL     1      46.568   3.618   6.696  0.00  0.00    +0.000 A 
ATOM     11  C   UNL     1      46.873   2.279   6.473  0.00  0.00    +0.000 A 
ATOM     12  C   UNL     1      46.540   1.338   7.437  0.00  0.00    +0.000 A 
ATOM     13  F   UNL     1      46.839   0.049   7.225  0.00  0.00    +0.000 F 
ATOM     14  C   UNL     1      45.901   1.708   8.619  0.00  0.00    +0.000 A 
ENDBRANCH   6   8
ENDBRANCH   1   2
BRANCH   1  15
ATOM     15  N   UNL     1      46.471   6.114  12.905  0.00  0.00    +0.000 N 
ATOM     16  H   UNL     1      46.888   5.761  12.049  0.00  0.00    +0.000 HD
BRANCH  15  20
ATOM     17  C   UNL     1      48.227   4.729  16.350  0.00  0.00    +0.000 A 
ATOM     18  C   UNL     1      47.186   4.031  15.759  0.00  0.00    +0.000 A 
ATOM     19  N   UNL     1      46.598   4.434  14.599  0.00  0.00    +0.000 NA
ATOM     20  C   UNL     1      47.082   5.560  14.033  0.00  0.00    +0.000 A 
ATOM     21  C   UNL     1      48.145   6.243  14.644  0.00  0.00    +0.000 A 
ATOM     22  N   UNL     1      48.747   5.859  15.801  0.00  0.00    +0.000 NA
BRANCH  17  24
ATOM     23  N   UNL     1      48.820   5.189  18.656  0.00  0.00    +0.000 N 
ATOM     24  C   UNL     1      48.790   4.263  17.648  0.00  0.00    +0.000 C 
ATOM     25  O   UNL     1      49.192   3.119  17.812  0.00  0.00    +0.000 OA
ATOM     26  H   UNL     1      49.140   4.910  19.572  0.00  0.00    +0.000 HD
ATOM     27  H   UNL     1      48.419   6.110  18.513  0.00  0.00    +0.000 HD
ENDBRANCH  17  24
ENDBRANCH  15  20
ENDBRANCH   1  15
TORSDOF 5
ENDMDL
MODEL 6
REMARK VINA RESULT:    -7.715      3.781      7.231
REMARK INTER + INTRA:         -10.591
REMARK INTER:                  -9.883
REMARK INTRA:                  -0.709
REMARK UNBOUND:                -0.621
REMARK  Name = 
REMARK  5 active torsions:
REMARK  status: ('A' for Active; 'I' for Inactive)
REMARK    1  A    between atoms: C_2  and  C_4
REMARK    2  A    between atoms: C_7  and  N_8
REMARK    3  A    between atoms: N_8  and  C_9
REMARK    4  A    between atoms: C_9  and  C_10
REMARK    5  A    between atoms: C_14  and  C_15
REMARK                            x       y       z     vdW  Elec       q    Type
REMARK                         _______ _______ _______ _____ _____    ______ ____
ROOT
ATOM      1  C   UNL     1      43.943   6.519  11.409  0.00  0.00    +0.000 C 
ENDROOT
BRANCH   1   2
ATOM      2  C   UNL     1      43.966   5.049  11.055  0.00  0.00    +0.000 A 
ATOM      3  C   UNL     1      43.228   4.104  11.764  0.00  0.00    +0.000 A 
ATOM      4  C   UNL     1      43.274   2.785  11.343  0.00  0.00    +0.000 A 
ATOM      5  N   UNL     1      44.002   2.349  10.291  0.00  0.00    +0.000 NA
ATOM      6  C   UNL     1      44.734   3.261   9.606  0.00  0.00    +0.000 A 
ATOM      7  C   UNL     1      44.720   4.611   9.956  0.00  0.00    +0.000 A 
BRANCH   6   8
ATOM      8  C   UNL     1      45.534   2.739   8.478  0.00  0.00    +0.000 A 
ATOM      9  C   UNL     1      46.039   1.421   8.475  0.00  0.00    +0.000 A 
ATOM     10  C   UNL     1      46.810   0.931   7.416  0.00  0.00    +0.000 A 
ATOM     11  C   UNL     1      47.090   1.752   6.329  0.00  0.00    +0.000 A 
ATOM     12  C   UNL     1      46.590   3.046   6.308  0.00  0.00    +0.000 A 
ATOM     13  F   UNL     1      46.855   3.834   5.257  0.00  0.00    +0.000 F 
ATOM     14  C   UNL     1      45.820   3.541   7.359  0.00  0.00    +0.000 A 
ENDBRANCH   6   8
ENDBRANCH   1   2
BRANCH   1  15
ATOM     15  N   UNL     1      45.185   7.127  10.945  0.00  0.00    +0.000 N 
ATOM     16  H   UNL     1      45.549   6.664  10.118  0.00  0.00    +0.000 HD
BRANCH  15  20
ATOM     17  C   UNL     1      47.931   7.714  13.943  0.00  0.00    +0.000 A 
ATOM     18  C   UNL     1      48.066   6.654  13.061  0.00  0.00    +0.000 A 
ATOM     19  N   UNL     1      47.199   6.441  12.032  0.00  0.00    +0.000 NA
ATOM     20  C   UNL     1      46.187   7.325  11.899  0.00  0.00    +0.000 A 
ATOM     21  C   UNL     1      46.079   8.398  12.798  0.00  0.00    +0.000 A 
ATOM     22  N   UNL     1      46.932   8.629  13.831  0.00  0.00    +0.000 NA
BRANCH  17  24
ATOM     23  N   UNL     1      49.245   6.698  15.709  0.00  0.00    +0.000 N 
ATOM     24  C   UNL     1      48.882   7.858  15.080  0.00  0.00    +0.000 C 
ATOM     25  O   UNL     1      49.325   8.945  15.427  0.00  0.00    +0.000 OA
ATOM     26  H   UNL     1      49.930   6.733  16.450  0.00  0.00    +0.000 HD
ATOM     27  H   UNL     1      48.916   5.805  15.359  0.00  0.00    +0.000 HD
ENDBRANCH  17  24
ENDBRANCH  15  20
ENDBRANCH   1  15
TORSDOF 5
ENDMDL
MODEL 7
REMARK VINA RESULT:    -6.749      4.000      7.582
REMARK INTER + INTRA:          -9.343
REMARK INTER:                  -8.798
REMARK INTRA:                  -0.545
REMARK UNBOUND:                -0.621
REMARK  Name = 
REMARK  5 active torsions:
REMARK  status: ('A' for Active; 'I' for Inactive)
REMARK    1  A    between atoms: C_2  and  C_4
REMARK    2  A    between atoms: C_7  and  N_8
REMARK    3  A    between atoms: N_8  and  C_9
REMARK    4  A    between atoms: C_9  and  C_10
REMARK    5  A    between atoms: C_14  and  C_15
REMARK                            x       y       z     vdW  Elec       q    Type
REMARK                         _______ _______ _______ _____ _____    ______ ____
ROOT
ATOM      1  C   UNL     1      48.588   7.482  13.352  0.00  0.00    +0.000 C 
ENDROOT
BRANCH   1   2
ATOM      2  C   UNL     1      47.249   7.404  12.655  0.00  0.00    +0.000 A 
ATOM      3  C   UNL     1      46.310   8.430  12.736  0.00  0.00    +0.000 A 
ATOM      4  C   UNL     1      45.126   8.293  12.030  0.00  0.00    +0.000 A 
ATOM      5  N   UNL     1      44.814   7.218  11.271  0.00  0.00    +0.000 NA
ATOM      6  C   UNL     1      45.718   6.210  11.199  0.00  0.00    +0.000 A 
ATOM      7  C   UNL     1      46.942   6.286  11.865  0.00  0.00    +0.000 A 
BRANCH   6   8
ATOM      8  C   UNL     1      45.328   5.044  10.379  0.00  0.00    +0.000 A 
ATOM      9  C   UNL     1      44.558   3.988  10.911  0.00  0.00    +0.000 A 
ATOM     10  C   UNL     1      44.202   2.877  10.141  0.00  0.00    +0.000 A 
ATOM     11  C   UNL     1      44.607   2.798   8.813  0.00  0.00    +0.000 A 
ATOM     12  C   UNL     1      45.353   3.834   8.268  0.00  0.00    +0.000 A 
ATOM     13  F   UNL     1      45.738   3.762   6.987  0.00  0.00    +0.000 F 
ATOM     14  C   UNL     1      45.710   4.946   9.030  0.00  0.00    +0.000 A 
ENDBRANCH   6   8
ENDBRANCH   1   2
BRANCH   1  15
ATOM     15  N   UNL     1      48.357   7.703  14.775  0.00  0.00    +0.000 N 
ATOM     16  H   UNL     1      48.854   8.519  15.119  0.00  0.00    +0.000 HD
BRANCH  15  20
ATOM     17  C   UNL     1      48.918   4.321  17.038  0.00  0.00    +0.000 A 
ATOM     18  C   UNL     1      49.680   5.456  17.266  0.00  0.00    +0.000 A 
ATOM     19  N   UNL     1      49.505   6.610  16.563  0.00  0.00    +0.000 NA
ATOM     20  C   UNL     1      48.537   6.606  15.623  0.00  0.00    +0.000 A 
ATOM     21  C   UNL     1      47.770   5.447  15.420  0.00  0.00    +0.000 A 
ATOM     22  N   UNL     1      47.928   4.286  16.108  0.00  0.00    +0.000 NA
BRANCH  17  24
ATOM     23  N   UNL     1      48.505   2.922  18.975  0.00  0.00    +0.000 N 
ATOM     24  C   UNL     1      49.198   3.075  17.805  0.00  0.00    +0.000 C 
ATOM     25  O   UNL     1      49.990   2.230  17.410  0.00  0.00    +0.000 OA
ATOM     26  H   UNL     1      48.615   2.070  19.506  0.00  0.00    +0.000 HD
ATOM     27  H   UNL     1      47.805   3.605  19.246  0.00  0.00    +0.000 HD
ENDBRANCH  17  24
ENDBRANCH  15  20
ENDBRANCH   1  15
TORSDOF 5
ENDMDL
MODEL 8
REMARK VINA RESULT:    -6.536      4.398      8.102
REMARK INTER + INTRA:          -9.068
REMARK INTER:                  -8.301
REMARK INTRA:                  -0.767
REMARK UNBOUND:                -0.621
REMARK  Name = 
REMARK  5 active torsions:
REMARK  status: ('A' for Active; 'I' for Inactive)
REMARK    1  A    between atoms: C_2  and  C_4
REMARK    2  A    between atoms: C_7  and  N_8
REMARK    3  A    between atoms: N_8  and  C_9
REMARK    4  A    between atoms: C_9  and  C_10
REMARK    5  A    between atoms: C_14  and  C_15
REMARK                            x       y       z     vdW  Elec       q    Type
REMARK                         _______ _______ _______ _____ _____    ______ ____
ROOT
ATOM      1  C   UNL     1      48.749   8.176  12.350  0.00  0.00    +0.000 C 
ENDROOT
BRANCH   1   2
ATOM      2  C   UNL     1      47.302   7.824  12.083  0.00  0.00    +0.000 A 
ATOM      3  C   UNL     1      46.253   8.644  12.490  0.00  0.00    +0.000 A 
ATOM      4  C   UNL     1      44.960   8.265  12.167  0.00  0.00    +0.000 A 
ATOM      5  N   UNL     1      44.647   7.139  11.487  0.00  0.00    +0.000 NA
ATOM      6  C   UNL     1      45.662   6.329  11.100  0.00  0.00    +0.000 A 
ATOM      7  C   UNL     1      46.991   6.656  11.371  0.00  0.00    +0.000 A 
BRANCH   6   8
ATOM      8  C   UNL     1      45.275   5.097  10.382  0.00  0.00    +0.000 A 
ATOM      9  C   UNL     1      44.542   4.070  11.014  0.00  0.00    +0.000 A 
ATOM     10  C   UNL     1      44.189   2.897  10.340  0.00  0.00    +0.000 A 
ATOM     11  C   UNL     1      44.559   2.726   9.011  0.00  0.00    +0.000 A 
ATOM     12  C   UNL     1      45.268   3.732   8.369  0.00  0.00    +0.000 A 
ATOM     13  F   UNL     1      45.619   3.570   7.086  0.00  0.00    +0.000 F 
ATOM     14  C   UNL     1      45.622   4.904   9.033  0.00  0.00    +0.000 A 
ENDBRANCH   6   8
ENDBRANCH   1   2
BRANCH   1  15
ATOM     15  N   UNL     1      49.385   7.045  13.017  0.00  0.00    +0.000 N 
ATOM     16  H   UNL     1      49.160   6.163  12.568  0.00  0.00    +0.000 HD
BRANCH  15  20
ATOM     17  C   UNL     1      48.793   7.039  17.081  0.00  0.00    +0.000 A 
ATOM     18  C   UNL     1      48.470   5.927  16.320  0.00  0.00    +0.000 A 
ATOM     19  N   UNL     1      48.681   5.872  14.976  0.00  0.00    +0.000 NA
ATOM     20  C   UNL     1      49.234   6.963  14.404  0.00  0.00    +0.000 A 
ATOM     21  C   UNL     1      49.564   8.072  15.199  0.00  0.00    +0.000 A 
ATOM     22  N   UNL     1      49.363   8.148  16.541  0.00  0.00    +0.000 NA
BRANCH  17  24
ATOM     23  N   UNL     1      47.167   7.206  18.872  0.00  0.00    +0.000 N 
ATOM     24  C   UNL     1      48.486   7.054  18.539  0.00  0.00    +0.000 C 
ATOM     25  O   UNL     1      49.355   6.927  19.391  0.00  0.00    +0.000 OA
ATOM     26  H   UNL     1      46.897   7.168  19.845  0.00  0.00    +0.000 HD
ATOM     27  H   UNL     1      46.460   7.242  18.147  0.00  0.00    +0.000 HD
ENDBRANCH  17  24
ENDBRANCH  15  20
ENDBRANCH   1  15
TORSDOF 5
ENDMDL
MODEL 9
REMARK VINA RESULT:    -6.316      3.981      6.162
REMARK INTER + INTRA:          -8.782
REMARK INTER:                  -8.061
REMARK INTRA:                  -0.721
REMARK UNBOUND:                -0.621
REMARK  Name = 
REMARK  5 active torsions:
REMARK  status: ('A' for Active; 'I' for Inactive)
REMARK    1  A    between atoms: C_2  and  C_4
REMARK    2  A    between atoms: C_7  and  N_8
REMARK    3  A    between atoms: N_8  and  C_9
REMARK    4  A    between atoms: C_9  and  C_10
REMARK    5  A    between atoms: C_14  and  C_15
REMARK                            x       y       z     vdW  Elec       q    Type
REMARK                         _______ _______ _______ _____ _____    ______ ____
ROOT
ATOM      1  C   UNL     1      47.648   8.232  12.834  0.00  0.00    +0.000 C 
ENDROOT
BRANCH   1   2
ATOM      2  C   UNL     1      48.695   7.841  13.853  0.00  0.00    +0.000 A 
ATOM      3  C   UNL     1      49.955   8.435  13.886  0.00  0.00    +0.000 A 
ATOM      4  C   UNL     1      50.838   8.046  14.880  0.00  0.00    +0.000 A 
ATOM      5  N   UNL     1      50.560   7.115  15.820  0.00  0.00    +0.000 NA
ATOM      6  C   UNL     1      49.341   6.523  15.785  0.00  0.00    +0.000 A 
ATOM      7  C   UNL     1      48.391   6.878  14.827  0.00  0.00    +0.000 A 
BRANCH   6   8
ATOM      8  C   UNL     1      49.088   5.494  16.815  0.00  0.00    +0.000 A 
ATOM      9  C   UNL     1      49.917   5.360  17.949  0.00  0.00    +0.000 A 
ATOM     10  C   UNL     1      49.687   4.376  18.915  0.00  0.00    +0.000 A 
ATOM     11  C   UNL     1      48.615   3.503  18.771  0.00  0.00    +0.000 A 
ATOM     12  C   UNL     1      47.780   3.629  17.669  0.00  0.00    +0.000 A 
ATOM     13  F   UNL     1      46.743   2.791  17.533  0.00  0.00    +0.000 F 
ATOM     14  C   UNL     1      48.002   4.608  16.703  0.00  0.00    +0.000 A 
ENDBRANCH   6   8
ENDBRANCH   1   2
BRANCH   1  15
ATOM     15  N   UNL     1      46.346   7.779  13.312  0.00  0.00    +0.000 N 
ATOM     16  H   UNL     1      46.377   7.490  14.284  0.00  0.00    +0.000 HD
BRANCH  15  20
ATOM     17  C   UNL     1      44.616   4.881  10.971  0.00  0.00    +0.000 A 
ATOM     18  C   UNL     1      44.080   5.201  12.208  0.00  0.00    +0.000 A 
ATOM     19  N   UNL     1      44.600   6.177  13.002  0.00  0.00    +0.000 NA
ATOM     20  C   UNL     1      45.675   6.839  12.524  0.00  0.00    +0.000 A 
ATOM     21  C   UNL     1      46.192   6.505  11.262  0.00  0.00    +0.000 A 
ATOM     22  N   UNL     1      45.690   5.534  10.454  0.00  0.00    +0.000 NA
BRANCH  17  24
ATOM     23  N   UNL     1      44.126   3.883   8.816  0.00  0.00    +0.000 N 
ATOM     24  C   UNL     1      44.033   3.764  10.177  0.00  0.00    +0.000 C 
ATOM     25  O   UNL     1      43.511   2.791  10.704  0.00  0.00    +0.000 OA
ATOM     26  H   UNL     1      43.796   3.129   8.231  0.00  0.00    +0.000 HD
ATOM     27  H   UNL     1      44.623   4.667   8.406  0.00  0.00    +0.000 HD
ENDBRANCH  17  24
ENDBRANCH  15  20
ENDBRANCH   1  15
TORSDOF 5
ENDMDL
