MODEL 1
REMARK VINA RESULT:    -8.466      0.000      0.000
REMARK INTER + INTRA:         -12.039
REMARK INTER:                 -11.436
REMARK INTRA:                  -0.604
REMARK UNBOUND:                -0.604
REMARK  Name = 
REMARK  8 active torsions:
REMARK  status: ('A' for Active; 'I' for Inactive)
REMARK    1  A    between atoms: C_1  and  C_2
REMARK    2  A    between atoms: C_2  and  C_3
REMARK    3  A    between atoms: C_2  and  C_14
REMARK    4  A    between atoms: C_3  and  O_4
REMARK    5  A    between atoms: O_4  and  C_5
REMARK    6  A    between atoms: C_8  and  C_9
REMARK    7  A    between atoms: C_18  and  S_19
REMARK    8  A    between atoms: S_19  and  C_20
REMARK                            x       y       z     vdW  Elec       q    Type
REMARK                         _______ _______ _______ _____ _____    ______ ____
ROOT
ATOM      1  C   UNL     1      44.534   5.597  10.815  0.00  0.00    +0.000 C 
ENDROOT
BRANCH   1   3
ATOM      2  C   UNL     1      43.248   4.775  12.889  0.00  0.00    +0.000 C 
ATOM      3  C   UNL     1      44.557   5.087  12.232  0.00  0.00    +0.000 C 
BRANCH   3   4
ATOM      4  C   UNL     1      45.733   5.389  13.071  0.00  0.00    +0.000 A 
ATOM      5  C   UNL     1      46.466   6.570  12.879  0.00  0.00    +0.000 A 
ATOM      6  C   UNL     1      47.597   6.852  13.653  0.00  0.00    +0.000 A 
ATOM      7  C   UNL     1      48.003   5.968  14.650  0.00  0.00    +0.000 A 
ATOM      8  C   UNL     1      47.256   4.811  14.873  0.00  0.00    +0.000 A 
ATOM      9  C   UNL     1      46.145   4.507  14.079  0.00  0.00    +0.000 A 
BRANCH   8  10
ATOM     10  S   UNL     1      47.729   3.699  16.175  0.00  0.00    +0.000 S 
ATOM     11  C   UNL     1      48.941   4.633  17.075  0.00  0.00    +0.000 C 
ATOM     12  O   UNL     1      46.575   3.512  17.035  0.00  0.00    +0.000 OA
ATOM     13  O   UNL     1      48.393   2.565  15.563  0.00  0.00    +0.000 OA
ENDBRANCH   8  10
ENDBRANCH   3   4
ENDBRANCH   1   3
BRANCH   1  14
ATOM     14  O   UNL     1      43.836   4.682   9.960  0.00  0.00    +0.000 OA
BRANCH  14  15
ATOM     15  C   UNL     1      44.713   3.922   9.211  0.00  0.00    +0.000 A 
ATOM     16  C   UNL     1      44.748   2.545   9.408  0.00  0.00    +0.000 A 
ATOM     17  N   UNL     1      45.577   1.715   8.712  0.00  0.00    +0.000 NA
ATOM     18  C   UNL     1      46.374   2.344   7.797  0.00  0.00    +0.000 A 
ATOM     19  C   UNL     1      46.339   3.716   7.603  0.00  0.00    +0.000 A 
ATOM     20  N   UNL     1      45.512   4.531   8.303  0.00  0.00    +0.000 NA
BRANCH  18  21
ATOM     21  C   UNL     1      47.313   1.524   6.982  0.00  0.00    +0.000 C 
ATOM     22  N   UNL     1      48.423   2.168   6.510  0.00  0.00    +0.000 N 
ATOM     23  O   UNL     1      47.106   0.341   6.749  0.00  0.00    +0.000 OA
ATOM     24  H   UNL     1      48.573   3.147   6.715  0.00  0.00    +0.000 HD
ATOM     25  H   UNL     1      49.089   1.652   5.949  0.00  0.00    +0.000 HD
ENDBRANCH  18  21
ENDBRANCH  14  15
ENDBRANCH   1  14
TORSDOF 6
ENDMDL
MODEL 2
REMARK VINA RESULT:    -7.719      1.974      2.539
REMARK INTER + INTRA:         -11.030
REMARK INTER:                 -10.430
REMARK INTRA:                  -0.601
REMARK UNBOUND:                -0.604
REMARK  Name = 
REMARK  8 active torsions:
REMARK  status: ('A' for Active; 'I' for Inactive)
REMARK    1  A    between atoms: C_1  and  C_2
REMARK    2  A    between atoms: C_2  and  C_3
REMARK    3  A    between atoms: C_2  and  C_14
REMARK    4  A    between atoms: C_3  and  O_4
REMARK    5  A    between atoms: O_4  and  C_5
REMARK    6  A    between atoms: C_8  and  C_9
REMARK    7  A    between atoms: C_18  and  S_19
REMARK    8  A    between atoms: S_19  and  C_20
REMARK                            x       y       z     vdW  Elec       q    Type
REMARK                         _______ _______ _______ _____ _____    ______ ____
ROOT
ATOM      1  C   UNL     1      43.521   4.839  10.573  0.00  0.00    +0.000 C 
ENDROOT
BRANCH   1   3
ATOM      2  C   UNL     1      43.004   4.638  13.087  0.00  0.00    +0.000 C 
ATOM      3  C   UNL     1      43.911   5.124  11.999  0.00  0.00    +0.000 C 
BRANCH   3   4
ATOM      4  C   UNL     1      44.822   6.255  12.268  0.00  0.00    +0.000 A 
ATOM      5  C   UNL     1      44.480   7.559  11.880  0.00  0.00    +0.000 A 
ATOM      6  C   UNL     1      45.350   8.631  12.108  0.00  0.00    +0.000 A 
ATOM      7  C   UNL     1      46.568   8.421  12.749  0.00  0.00    +0.000 A 
ATOM      8  C   UNL     1      46.897   7.134  13.174  0.00  0.00    +0.000 A 
ATOM      9  C   UNL     1      46.048   6.052  12.917  0.00  0.00    +0.000 A 
BRANCH   8  10
ATOM     10  S   UNL     1      48.422   6.859  14.040  0.00  0.00    +0.000 S 
ATOM     11  C   UNL     1      48.699   8.408  14.862  0.00  0.00    +0.000 C 
ATOM     12  O   UNL     1      48.178   5.849  15.054  0.00  0.00    +0.000 OA
ATOM     13  O   UNL     1      49.465   6.680  13.048  0.00  0.00    +0.000 OA
ENDBRANCH   8  10
ENDBRANCH   3   4
ENDBRANCH   1   3
BRANCH   1  14
ATOM     14  O   UNL     1      43.588   3.433  10.302  0.00  0.00    +0.000 OA
BRANCH  14  15
ATOM     15  C   UNL     1      44.558   3.145   9.361  0.00  0.00    +0.000 A 
ATOM     16  C   UNL     1      45.035   4.170   8.551  0.00  0.00    +0.000 A 
ATOM     17  N   UNL     1      45.993   3.981   7.598  0.00  0.00    +0.000 NA
ATOM     18  C   UNL     1      46.454   2.697   7.503  0.00  0.00    +0.000 A 
ATOM     19  C   UNL     1      45.976   1.677   8.309  0.00  0.00    +0.000 A 
ATOM     20  N   UNL     1      45.021   1.877   9.250  0.00  0.00    +0.000 NA
BRANCH  18  21
ATOM     21  C   UNL     1      47.505   2.388   6.494  0.00  0.00    +0.000 C 
ATOM     22  N   UNL     1      47.453   3.101   5.329  0.00  0.00    +0.000 N 
ATOM     23  O   UNL     1      48.368   1.544   6.695  0.00  0.00    +0.000 OA
ATOM     24  H   UNL     1      46.730   3.793   5.185  0.00  0.00    +0.000 HD
ATOM     25  H   UNL     1      48.145   2.924   4.612  0.00  0.00    +0.000 HD
ENDBRANCH  18  21
ENDBRANCH  14  15
ENDBRANCH   1  14
TORSDOF 6
ENDMDL
MODEL 3
REMARK VINA RESULT:    -7.548      2.654      3.346
REMARK INTER + INTRA:         -10.799
REMARK INTER:                 -10.109
REMARK INTRA:                  -0.691
REMARK UNBOUND:                -0.604
REMARK  Name = 
REMARK  8 active torsions:
REMARK  status: ('A' for Active; 'I' for Inactive)
REMARK    1  A    between atoms: C_1  and  C_2
REMARK    2  A    between atoms: C_2  and  C_3
REMARK    3  A    between atoms: C_2  and  C_14
REMARK    4  A    between atoms: C_3  and  O_4
REMARK    5  A    between atoms: O_4  and  C_5
REMARK    6  A    between atoms: C_8  and  C_9
REMARK    7  A    between atoms: C_18  and  S_19
REMARK    8  A    between atoms: S_19  and  C_20
REMARK                            x       y       z     vdW  Elec       q    Type
REMARK                         _______ _______ _______ _____ _____    ______ ____
ROOT
ATOM      1  C   UNL     1      43.907   3.242  11.746  0.00  0.00    +0.000 C 
ENDROOT
BRANCH   1   3
ATOM      2  C   UNL     1      42.822   5.569  11.939  0.00  0.00    +0.000 C 
ATOM      3  C   UNL     1      43.911   4.624  12.344  0.00  0.00    +0.000 C 
BRANCH   3   4
ATOM      4  C   UNL     1      45.184   5.166  12.858  0.00  0.00    +0.000 A 
ATOM      5  C   UNL     1      46.049   4.365  13.620  0.00  0.00    +0.000 A 
ATOM      6  C   UNL     1      47.245   4.879  14.132  0.00  0.00    +0.000 A 
ATOM      7  C   UNL     1      47.609   6.199  13.873  0.00  0.00    +0.000 A 
ATOM      8  C   UNL     1      46.774   6.988  13.083  0.00  0.00    +0.000 A 
ATOM      9  C   UNL     1      45.560   6.491  12.598  0.00  0.00    +0.000 A 
BRANCH   8  10
ATOM     10  S   UNL     1      47.250   8.656  12.699  0.00  0.00    +0.000 S 
ATOM     11  C   UNL     1      48.651   8.435  11.632  0.00  0.00    +0.000 C 
ATOM     12  O   UNL     1      46.180   9.251  11.920  0.00  0.00    +0.000 OA
ATOM     13  O   UNL     1      47.709   9.276  13.927  0.00  0.00    +0.000 OA
ENDBRANCH   8  10
ENDBRANCH   3   4
ENDBRANCH   1   3
BRANCH   1  14
ATOM     14  O   UNL     1      43.387   3.271  10.411  0.00  0.00    +0.000 OA
BRANCH  14  15
ATOM     15  C   UNL     1      44.380   3.045   9.476  0.00  0.00    +0.000 A 
ATOM     16  C   UNL     1      44.855   4.116   8.727  0.00  0.00    +0.000 A 
ATOM     17  N   UNL     1      45.834   3.989   7.786  0.00  0.00    +0.000 NA
ATOM     18  C   UNL     1      46.318   2.720   7.638  0.00  0.00    +0.000 A 
ATOM     19  C   UNL     1      45.842   1.654   8.384  0.00  0.00    +0.000 A 
ATOM     20  N   UNL     1      44.866   1.792   9.314  0.00  0.00    +0.000 NA
BRANCH  18  21
ATOM     21  C   UNL     1      47.394   2.477   6.637  0.00  0.00    +0.000 C 
ATOM     22  N   UNL     1      47.322   3.207   5.483  0.00  0.00    +0.000 N 
ATOM     23  O   UNL     1      48.294   1.671   6.834  0.00  0.00    +0.000 OA
ATOM     24  H   UNL     1      46.569   3.867   5.342  0.00  0.00    +0.000 HD
ATOM     25  H   UNL     1      48.030   3.075   4.771  0.00  0.00    +0.000 HD
ENDBRANCH  18  21
ENDBRANCH  14  15
ENDBRANCH   1  14
TORSDOF 6
ENDMDL
MODEL 4
REMARK VINA RESULT:    -6.754      3.853      7.196
REMARK INTER + INTRA:          -9.726
REMARK INTER:                  -9.030
REMARK INTRA:                  -0.696
REMARK UNBOUND:                -0.604
REMARK  Name = 
REMARK  8 active torsions:
REMARK  status: ('A' for Active; 'I' for Inactive)
REMARK    1  A    between atoms: C_1  and  C_2
REMARK    2  A    between atoms: C_2  and  C_3
REMARK    3  A    between atoms: C_2  and  C_14
REMARK    4  A    between atoms: C_3  and  O_4
REMARK    5  A    between atoms: O_4  and  C_5
REMARK    6  A    between atoms: C_8  and  C_9
REMARK    7  A    between atoms: C_18  and  S_19
REMARK    8  A    between atoms: S_19  and  C_20
REMARK                            x       y       z     vdW  Elec       q    Type
REMARK                         _______ _______ _______ _____ _____    ______ ____
ROOT
ATOM      1  C   UNL     1      46.595   7.523  13.024  0.00  0.00    +0.000 C 
ENDROOT
BRANCH   1   3
ATOM      2  C   UNL     1      44.903   8.790  11.553  0.00  0.00    +0.000 C 
ATOM      3  C   UNL     1      45.627   7.518  11.870  0.00  0.00    +0.000 C 
BRANCH   3   4
ATOM      4  C   UNL     1      45.045   6.230  11.444  0.00  0.00    +0.000 A 
ATOM      5  C   UNL     1      44.090   5.577  12.237  0.00  0.00    +0.000 A 
ATOM      6  C   UNL     1      43.553   4.343  11.853  0.00  0.00    +0.000 A 
ATOM      7  C   UNL     1      43.946   3.751  10.655  0.00  0.00    +0.000 A 
ATOM      8  C   UNL     1      44.866   4.413   9.843  0.00  0.00    +0.000 A 
ATOM      9  C   UNL     1      45.432   5.629  10.238  0.00  0.00    +0.000 A 
BRANCH   8  10
ATOM     10  S   UNL     1      45.338   3.696   8.288  0.00  0.00    +0.000 S 
ATOM     11  C   UNL     1      45.759   2.029   8.729  0.00  0.00    +0.000 C 
ATOM     12  O   UNL     1      44.157   3.654   7.445  0.00  0.00    +0.000 OA
ATOM     13  O   UNL     1      46.545   4.365   7.844  0.00  0.00    +0.000 OA
ENDBRANCH   8  10
ENDBRANCH   3   4
ENDBRANCH   1   3
BRANCH   1  14
ATOM     14  O   UNL     1      47.556   6.469  12.881  0.00  0.00    +0.000 OA
BRANCH  14  15
ATOM     15  C   UNL     1      47.590   5.661  14.002  0.00  0.00    +0.000 A 
ATOM     16  C   UNL     1      46.950   4.426  13.960  0.00  0.00    +0.000 A 
ATOM     17  N   UNL     1      46.934   3.561  15.015  0.00  0.00    +0.000 NA
ATOM     18  C   UNL     1      47.603   4.003  16.122  0.00  0.00    +0.000 A 
ATOM     19  C   UNL     1      48.239   5.233  16.162  0.00  0.00    +0.000 A 
ATOM     20  N   UNL     1      48.245   6.086  15.108  0.00  0.00    +0.000 NA
BRANCH  18  21
ATOM     21  C   UNL     1      47.647   3.128  17.327  0.00  0.00    +0.000 C 
ATOM     22  N   UNL     1      48.863   3.006  17.940  0.00  0.00    +0.000 N 
ATOM     23  O   UNL     1      46.653   2.551  17.746  0.00  0.00    +0.000 OA
ATOM     24  H   UNL     1      49.671   3.492  17.575  0.00  0.00    +0.000 HD
ATOM     25  H   UNL     1      48.943   2.420  18.762  0.00  0.00    +0.000 HD
ENDBRANCH  18  21
ENDBRANCH  14  15
ENDBRANCH   1  14
TORSDOF 6
ENDMDL
MODEL 5
REMARK VINA RESULT:    -6.638      2.748      4.250
REMARK INTER + INTRA:          -9.570
REMARK INTER:                  -8.862
REMARK INTRA:                  -0.708
REMARK UNBOUND:                -0.604
REMARK  Name = 
REMARK  8 active torsions:
REMARK  status: ('A' for Active; 'I' for Inactive)
REMARK    1  A    between atoms: C_1  and  C_2
REMARK    2  A    between atoms: C_2  and  C_3
REMARK    3  A    between atoms: C_2  and  C_14
REMARK    4  A    between atoms: C_3  and  O_4
REMARK    5  A    between atoms: O_4  and  C_5
REMARK    6  A    between atoms: C_8  and  C_9
REMARK    7  A    between atoms: C_18  and  S_19
REMARK    8  A    between atoms: S_19  and  C_20
REMARK                            x       y       z     vdW  Elec       q    Type
REMARK                         _______ _______ _______ _____ _____    ______ ____
ROOT
ATOM      1  C   UNL     1      47.901   7.270  12.793  0.00  0.00    +0.000 C 
ENDROOT
BRANCH   1   3
ATOM      2  C   UNL     1      49.607   8.933  13.769  0.00  0.00    +0.000 C 
ATOM      3  C   UNL     1      48.560   7.887  13.998  0.00  0.00    +0.000 C 
BRANCH   3   4
ATOM      4  C   UNL     1      48.558   7.132  15.267  0.00  0.00    +0.000 A 
ATOM      5  C   UNL     1      48.869   7.767  16.479  0.00  0.00    +0.000 A 
ATOM      6  C   UNL     1      48.894   7.053  17.682  0.00  0.00    +0.000 A 
ATOM      7  C   UNL     1      48.587   5.694  17.697  0.00  0.00    +0.000 A 
ATOM      8  C   UNL     1      48.238   5.066  16.502  0.00  0.00    +0.000 A 
ATOM      9  C   UNL     1      48.245   5.766  15.291  0.00  0.00    +0.000 A 
BRANCH   8  10
ATOM     10  S   UNL     1      47.792   3.347  16.513  0.00  0.00    +0.000 S 
ATOM     11  C   UNL     1      49.186   2.579  17.300  0.00  0.00    +0.000 C 
ATOM     12  O   UNL     1      46.642   3.195  17.385  0.00  0.00    +0.000 OA
ATOM     13  O   UNL     1      47.746   2.897  15.135  0.00  0.00    +0.000 OA
ENDBRANCH   8  10
ENDBRANCH   3   4
ENDBRANCH   1   3
BRANCH   1  14
ATOM     14  O   UNL     1      46.474   7.375  12.888  0.00  0.00    +0.000 OA
BRANCH  14  15
ATOM     15  C   UNL     1      45.850   6.242  12.405  0.00  0.00    +0.000 A 
ATOM     16  C   UNL     1      45.385   5.292  13.308  0.00  0.00    +0.000 A 
ATOM     17  N   UNL     1      44.754   4.145  12.924  0.00  0.00    +0.000 NA
ATOM     18  C   UNL     1      44.610   4.003  11.572  0.00  0.00    +0.000 A 
ATOM     19  C   UNL     1      45.075   4.949  10.673  0.00  0.00    +0.000 A 
ATOM     20  N   UNL     1      45.704   6.083  11.068  0.00  0.00    +0.000 NA
BRANCH  18  21
ATOM     21  C   UNL     1      43.929   2.785  11.050  0.00  0.00    +0.000 C 
ATOM     22  N   UNL     1      44.463   2.233   9.919  0.00  0.00    +0.000 N 
ATOM     23  O   UNL     1      42.948   2.303  11.601  0.00  0.00    +0.000 OA
ATOM     24  H   UNL     1      45.274   2.649   9.480  0.00  0.00    +0.000 HD
ATOM     25  H   UNL     1      44.033   1.405   9.525  0.00  0.00    +0.000 HD
ENDBRANCH  18  21
ENDBRANCH  14  15
ENDBRANCH   1  14
TORSDOF 6
ENDMDL
MODEL 6
REMARK VINA RESULT:    -6.422      3.960      7.210
REMARK INTER + INTRA:          -9.279
REMARK INTER:                  -8.546
REMARK INTRA:                  -0.733
REMARK UNBOUND:                -0.604
REMARK  Name = 
REMARK  8 active torsions:
REMARK  status: ('A' for Active; 'I' for Inactive)
REMARK    1  A    between atoms: C_1  and  C_2
REMARK    2  A    between atoms: C_2  and  C_3
REMARK    3  A    between atoms: C_2  and  C_14
REMARK    4  A    between atoms: C_3  and  O_4
REMARK    5  A    between atoms: O_4  and  C_5
REMARK    6  A    between atoms: C_8  and  C_9
REMARK    7  A    between atoms: C_18  and  S_19
REMARK    8  A    between atoms: S_19  and  C_20
REMARK                            x       y       z     vdW  Elec       q    Type
REMARK                         _______ _______ _______ _____ _____    ______ ____
ROOT
ATOM      1  C   UNL     1      48.174   6.919  12.703  0.00  0.00    +0.000 C 
ENDROOT
BRANCH   1   3
ATOM      2  C   UNL     1      46.955   9.187  12.674  0.00  0.00    +0.000 C 
ATOM      3  C   UNL     1      47.007   7.754  12.243  0.00  0.00    +0.000 C 
BRANCH   3   4
ATOM      4  C   UNL     1      45.758   7.068  11.859  0.00  0.00    +0.000 A 
ATOM      5  C   UNL     1      44.634   7.802  11.450  0.00  0.00    +0.000 A 
ATOM      6  C   UNL     1      43.438   7.161  11.109  0.00  0.00    +0.000 A 
ATOM      7  C   UNL     1      43.352   5.772  11.149  0.00  0.00    +0.000 A 
ATOM      8  C   UNL     1      44.477   5.034  11.516  0.00  0.00    +0.000 A 
ATOM      9  C   UNL     1      45.664   5.670  11.892  0.00  0.00    +0.000 A 
BRANCH   8  10
ATOM     10  S   UNL     1      44.399   3.260  11.521  0.00  0.00    +0.000 S 
ATOM     11  C   UNL     1      44.978   2.831   9.898  0.00  0.00    +0.000 C 
ATOM     12  O   UNL     1      45.369   2.778  12.487  0.00  0.00    +0.000 OA
ATOM     13  O   UNL     1      43.002   2.882  11.617  0.00  0.00    +0.000 OA
ENDBRANCH   8  10
ENDBRANCH   3   4
ENDBRANCH   1   3
BRANCH   1  14
ATOM     14  O   UNL     1      48.577   7.300  14.025  0.00  0.00    +0.000 OA
BRANCH  14  15
ATOM     15  C   UNL     1      48.319   6.299  14.942  0.00  0.00    +0.000 A 
ATOM     16  C   UNL     1      48.732   6.469  16.259  0.00  0.00    +0.000 A 
ATOM     17  N   UNL     1      48.518   5.537  17.232  0.00  0.00    +0.000 NA
ATOM     18  C   UNL     1      47.859   4.417  16.810  0.00  0.00    +0.000 A 
ATOM     19  C   UNL     1      47.451   4.247  15.497  0.00  0.00    +0.000 A 
ATOM     20  N   UNL     1      47.672   5.180  14.538  0.00  0.00    +0.000 NA
BRANCH  18  21
ATOM     21  C   UNL     1      47.573   3.340  17.799  0.00  0.00    +0.000 C 
ATOM     22  N   UNL     1      48.384   3.299  18.899  0.00  0.00    +0.000 N 
ATOM     23  O   UNL     1      46.664   2.537  17.638  0.00  0.00    +0.000 OA
ATOM     24  H   UNL     1      49.130   3.974  19.010  0.00  0.00    +0.000 HD
ATOM     25  H   UNL     1      48.230   2.583  19.598  0.00  0.00    +0.000 HD
ENDBRANCH  18  21
ENDBRANCH  14  15
ENDBRANCH   1  14
TORSDOF 6
ENDMDL
MODEL 7
REMARK VINA RESULT:    -6.131      3.346      5.865
REMARK INTER + INTRA:          -8.884
REMARK INTER:                  -8.421
REMARK INTRA:                  -0.464
REMARK UNBOUND:                -0.604
REMARK  Name = 
REMARK  8 active torsions:
REMARK  status: ('A' for Active; 'I' for Inactive)
REMARK    1  A    between atoms: C_1  and  C_2
REMARK    2  A    between atoms: C_2  and  C_3
REMARK    3  A    between atoms: C_2  and  C_14
REMARK    4  A    between atoms: C_3  and  O_4
REMARK    5  A    between atoms: O_4  and  C_5
REMARK    6  A    between atoms: C_8  and  C_9
REMARK    7  A    between atoms: C_18  and  S_19
REMARK    8  A    between atoms: S_19  and  C_20
REMARK                            x       y       z     vdW  Elec       q    Type
REMARK                         _______ _______ _______ _____ _____    ______ ____
ROOT
ATOM      1  C   UNL     1      47.368   4.658  16.102  0.00  0.00    +0.000 C 
ENDROOT
BRANCH   1   3
ATOM      2  C   UNL     1      47.569   2.679  17.737  0.00  0.00    +0.000 C 
ATOM      3  C   UNL     1      48.240   3.717  16.890  0.00  0.00    +0.000 C 
BRANCH   3   4
ATOM      4  C   UNL     1      49.616   4.138  17.217  0.00  0.00    +0.000 A 
ATOM      5  C   UNL     1      49.949   5.499  17.298  0.00  0.00    +0.000 A 
ATOM      6  C   UNL     1      51.257   5.906  17.582  0.00  0.00    +0.000 A 
ATOM      7  C   UNL     1      52.252   4.959  17.813  0.00  0.00    +0.000 A 
ATOM      8  C   UNL     1      51.919   3.605  17.773  0.00  0.00    +0.000 A 
ATOM      9  C   UNL     1      50.622   3.191  17.455  0.00  0.00    +0.000 A 
BRANCH   8  10
ATOM     10  S   UNL     1      53.164   2.386  18.117  0.00  0.00    +0.000 S 
ATOM     11  C   UNL     1      52.334   0.858  17.760  0.00  0.00    +0.000 C 
ATOM     12  O   UNL     1      54.229   2.557  17.147  0.00  0.00    +0.000 OA
ATOM     13  O   UNL     1      53.440   2.429  19.540  0.00  0.00    +0.000 OA
ENDBRANCH   8  10
ENDBRANCH   3   4
ENDBRANCH   1   3
BRANCH   1  14
ATOM     14  O   UNL     1      47.859   4.800  14.762  0.00  0.00    +0.000 OA
BRANCH  14  15
ATOM     15  C   UNL     1      46.859   4.591  13.832  0.00  0.00    +0.000 A 
ATOM     16  C   UNL     1      46.237   5.692  13.253  0.00  0.00    +0.000 A 
ATOM     17  N   UNL     1      45.244   5.582  12.324  0.00  0.00    +0.000 NA
ATOM     18  C   UNL     1      44.908   4.297  12.001  0.00  0.00    +0.000 A 
ATOM     19  C   UNL     1      45.527   3.202  12.580  0.00  0.00    +0.000 A 
ATOM     20  N   UNL     1      46.511   3.324  13.505  0.00  0.00    +0.000 NA
BRANCH  18  21
ATOM     21  C   UNL     1      43.836   4.071  10.992  0.00  0.00    +0.000 C 
ATOM     22  N   UNL     1      43.884   4.854   9.872  0.00  0.00    +0.000 N 
ATOM     23  O   UNL     1      42.961   3.231  11.153  0.00  0.00    +0.000 OA
ATOM     24  H   UNL     1      44.617   5.542   9.761  0.00  0.00    +0.000 HD
ATOM     25  H   UNL     1      43.176   4.738   9.159  0.00  0.00    +0.000 HD
ENDBRANCH  18  21
ENDBRANCH  14  15
ENDBRANCH   1  14
TORSDOF 6
ENDMDL
MODEL 8
REMARK VINA RESULT:    -5.930      3.295      5.919
REMARK INTER + INTRA:          -8.614
REMARK INTER:                  -8.129
REMARK INTRA:                  -0.485
REMARK UNBOUND:                -0.604
REMARK  Name = 
REMARK  8 active torsions:
REMARK  status: ('A' for Active; 'I' for Inactive)
REMARK    1  A    between atoms: C_1  and  C_2
REMARK    2  A    between atoms: C_2  and  C_3
REMARK    3  A    between atoms: C_2  and  C_14
REMARK    4  A    between atoms: C_3  and  O_4
REMARK    5  A    between atoms: O_4  and  C_5
REMARK    6  A    between atoms: C_8  and  C_9
REMARK    7  A    between atoms: C_18  and  S_19
REMARK    8  A    between atoms: S_19  and  C_20
REMARK                            x       y       z     vdW  Elec       q    Type
REMARK                         _______ _______ _______ _____ _____    ______ ____
ROOT
ATOM      1  C   UNL     1      47.271   3.754  15.861  0.00  0.00    +0.000 C 
ENDROOT
BRANCH   1   3
ATOM      2  C   UNL     1      47.471   5.109  18.042  0.00  0.00    +0.000 C 
ATOM      3  C   UNL     1      47.945   3.972  17.190  0.00  0.00    +0.000 C 
BRANCH   3   4
ATOM      4  C   UNL     1      49.311   3.446  17.383  0.00  0.00    +0.000 A 
ATOM      5  C   UNL     1      49.654   2.161  16.934  0.00  0.00    +0.000 A 
ATOM      6  C   UNL     1      50.939   1.645  17.136  0.00  0.00    +0.000 A 
ATOM      7  C   UNL     1      51.911   2.414  17.770  0.00  0.00    +0.000 A 
ATOM      8  C   UNL     1      51.589   3.707  18.182  0.00  0.00    +0.000 A 
ATOM      9  C   UNL     1      50.297   4.215  18.016  0.00  0.00    +0.000 A 
BRANCH   8  10
ATOM     10  S   UNL     1      52.833   4.720  18.945  0.00  0.00    +0.000 S 
ATOM     11  C   UNL     1      51.942   6.197  19.365  0.00  0.00    +0.000 C 
ATOM     12  O   UNL     1      53.235   4.071  20.179  0.00  0.00    +0.000 OA
ATOM     13  O   UNL     1      53.810   5.055  17.928  0.00  0.00    +0.000 OA
ENDBRANCH   8  10
ENDBRANCH   3   4
ENDBRANCH   1   3
BRANCH   1  14
ATOM     14  O   UNL     1      47.640   4.783  14.933  0.00  0.00    +0.000 OA
BRANCH  14  15
ATOM     15  C   UNL     1      46.816   4.783  13.824  0.00  0.00    +0.000 A 
ATOM     16  C   UNL     1      46.710   5.943  13.064  0.00  0.00    +0.000 A 
ATOM     17  N   UNL     1      45.925   6.035  11.953  0.00  0.00    +0.000 NA
ATOM     18  C   UNL     1      45.249   4.890  11.639  0.00  0.00    +0.000 A 
ATOM     19  C   UNL     1      45.354   3.735  12.397  0.00  0.00    +0.000 A 
ATOM     20  N   UNL     1      46.135   3.657  13.502  0.00  0.00    +0.000 NA
BRANCH  18  21
ATOM     21  C   UNL     1      44.366   4.887  10.438  0.00  0.00    +0.000 C 
ATOM     22  N   UNL     1      44.995   4.812   9.227  0.00  0.00    +0.000 N 
ATOM     23  O   UNL     1      43.148   4.946  10.529  0.00  0.00    +0.000 OA
ATOM     24  H   UNL     1      46.004   4.765   9.176  0.00  0.00    +0.000 HD
ATOM     25  H   UNL     1      44.437   4.809   8.382  0.00  0.00    +0.000 HD
ENDBRANCH  18  21
ENDBRANCH  14  15
ENDBRANCH   1  14
TORSDOF 6
ENDMDL
MODEL 9
REMARK VINA RESULT:    -5.827      3.365      5.939
REMARK INTER + INTRA:          -8.475
REMARK INTER:                  -7.934
REMARK INTRA:                  -0.541
REMARK UNBOUND:                -0.604
REMARK  Name = 
REMARK  8 active torsions:
REMARK  status: ('A' for Active; 'I' for Inactive)
REMARK    1  A    between atoms: C_1  and  C_2
REMARK    2  A    between atoms: C_2  and  C_3
REMARK    3  A    between atoms: C_2  and  C_14
REMARK    4  A    between atoms: C_3  and  O_4
REMARK    5  A    between atoms: O_4  and  C_5
REMARK    6  A    between atoms: C_8  and  C_9
REMARK    7  A    between atoms: C_18  and  S_19
REMARK    8  A    between atoms: S_19  and  C_20
REMARK                            x       y       z     vdW  Elec       q    Type
REMARK                         _______ _______ _______ _____ _____    ______ ____
ROOT
ATOM      1  C   UNL     1      47.192   4.090  16.082  0.00  0.00    +0.000 C 
ENDROOT
BRANCH   1   3
ATOM      2  C   UNL     1      49.070   2.533  16.907  0.00  0.00    +0.000 C 
ATOM      3  C   UNL     1      48.374   3.856  16.986  0.00  0.00    +0.000 C 
BRANCH   3   4
ATOM      4  C   UNL     1      48.488   4.661  18.219  0.00  0.00    +0.000 A 
ATOM      5  C   UNL     1      48.715   4.044  19.459  0.00  0.00    +0.000 A 
ATOM      6  C   UNL     1      48.798   4.796  20.636  0.00  0.00    +0.000 A 
ATOM      7  C   UNL     1      48.678   6.183  20.590  0.00  0.00    +0.000 A 
ATOM      8  C   UNL     1      48.492   6.807  19.356  0.00  0.00    +0.000 A 
ATOM      9  C   UNL     1      48.373   6.057  18.181  0.00  0.00    +0.000 A 
BRANCH   8  10
ATOM     10  S   UNL     1      48.391   8.578  19.275  0.00  0.00    +0.000 S 
ATOM     11  C   UNL     1      48.259   8.890  17.532  0.00  0.00    +0.000 C 
ATOM     12  O   UNL     1      47.143   8.977  19.899  0.00  0.00    +0.000 OA
ATOM     13  O   UNL     1      49.657   9.112  19.736  0.00  0.00    +0.000 OA
ENDBRANCH   8  10
ENDBRANCH   3   4
ENDBRANCH   1   3
BRANCH   1  14
ATOM     14  O   UNL     1      47.588   4.817  14.912  0.00  0.00    +0.000 OA
BRANCH  14  15
ATOM     15  C   UNL     1      46.717   4.599  13.862  0.00  0.00    +0.000 A 
ATOM     16  C   UNL     1      46.205   5.694  13.173  0.00  0.00    +0.000 A 
ATOM     17  N   UNL     1      45.343   5.574  12.122  0.00  0.00    +0.000 NA
ATOM     18  C   UNL     1      45.022   4.287  11.794  0.00  0.00    +0.000 A 
ATOM     19  C   UNL     1      45.531   3.198  12.483  0.00  0.00    +0.000 A 
ATOM     20  N   UNL     1      46.385   3.329  13.528  0.00  0.00    +0.000 NA
BRANCH  18  21
ATOM     21  C   UNL     1      44.090   4.050  10.657  0.00  0.00    +0.000 C 
ATOM     22  N   UNL     1      43.680   5.159   9.971  0.00  0.00    +0.000 N 
ATOM     23  O   UNL     1      43.711   2.927  10.352  0.00  0.00    +0.000 OA
ATOM     24  H   UNL     1      44.006   6.078  10.242  0.00  0.00    +0.000 HD
ATOM     25  H   UNL     1      43.044   5.049   9.191  0.00  0.00    +0.000 HD
ENDBRANCH  18  21
ENDBRANCH  14  15
ENDBRANCH   1  14
TORSDOF 6
ENDMDL
