MODEL 1
REMARK VINA RESULT:    -8.234      0.000      0.000
REMARK INTER + INTRA:         -12.955
REMARK INTER:                 -11.845
REMARK INTRA:                  -1.111
REMARK UNBOUND:                -1.111
REMARK  Name = 
REMARK  8 active torsions:
REMARK  status: ('A' for Active; 'I' for Inactive)
REMARK    1  A    between atoms: N_1  and  C_2
REMARK    2  A    between atoms: C_2  and  C_3
REMARK    3  A    between atoms: C_2  and  C_18
REMARK    4  A    between atoms: C_3  and  N_4
REMARK    5  A    between atoms: C_7  and  C_8
REMARK    6  A    between atoms: C_8  and  O_9
REMARK    7  A    between atoms: O_9  and  C_10
REMARK    8  A    between atoms: C_18  and  C_20
REMARK                            x       y       z     vdW  Elec       q    Type
REMARK                         _______ _______ _______ _____ _____    ______ ____
ROOT
ATOM      1  C   UNL     1      47.223   4.168  15.473  0.00  0.00    +0.000 C 
ENDROOT
BRANCH   1   2
ATOM      2  N   UNL     1      47.885   2.847  15.441  0.00  0.00    +0.000 NA
ATOM      3  H   UNL     1      48.254   2.611  16.358  0.00  0.00    +0.000 HD
ATOM      4  H   UNL     1      48.693   2.907  14.812  0.00  0.00    +0.000 HD
ENDBRANCH   1   2
BRANCH   1   5
ATOM      5  C   UNL     1      48.131   5.138  16.220  0.00  0.00    +0.000 C 
ATOM      6  O   UNL     1      48.718   6.048  15.600  0.00  0.00    +0.000 OA
BRANCH   5   7
ATOM      7  C   UNL     1      48.257   5.066  17.665  0.00  0.00    +0.000 A 
ATOM      8  C   UNL     1      47.272   5.493  18.542  0.00  0.00    +0.000 A 
ATOM      9  S   UNL     1      47.915   5.830  20.093  0.00  0.00    +0.000 S 
ATOM     10  C   UNL     1      49.427   5.170  19.669  0.00  0.00    +0.000 A 
ATOM     11  N   UNL     1      50.477   5.178  20.533  0.00  0.00    +0.000 NA
ATOM     12  C   UNL     1      51.520   4.555  20.098  0.00  0.00    +0.000 A 
ATOM     13  N   UNL     1      51.597   3.882  18.901  0.00  0.00    +0.000 N 
ATOM     14  C   UNL     1      50.553   3.834  18.001  0.00  0.00    +0.000 A 
ATOM     15  O   UNL     1      50.568   3.084  17.029  0.00  0.00    +0.000 OA
ATOM     16  C   UNL     1      49.410   4.636  18.400  0.00  0.00    +0.000 A 
ATOM     17  H   UNL     1      52.396   3.301  18.693  0.00  0.00    +0.000 HD
ENDBRANCH   5   7
ENDBRANCH   1   5
BRANCH   1  18
ATOM     18  C   UNL     1      46.919   4.707  14.042  0.00  0.00    +0.000 C 
BRANCH  18  19
ATOM     19  N   UNL     1      45.534   4.514  13.555  0.00  0.00    +0.000 NA
ATOM     20  C   UNL     1      45.049   5.690  12.817  0.00  0.00    +0.000 C 
ATOM     21  C   UNL     1      43.578   5.538  12.458  0.00  0.00    +0.000 C 
ATOM     22  C   UNL     1      43.325   4.272  11.633  0.00  0.00    +0.000 C 
ATOM     23  C   UNL     1      43.925   3.063  12.363  0.00  0.00    +0.000 C 
ATOM     24  C   UNL     1      45.389   3.284  12.764  0.00  0.00    +0.000 C 
BRANCH  22  25
ATOM     25  C   UNL     1      43.866   4.394  10.199  0.00  0.00    +0.000 C 
BRANCH  25  26
ATOM     26  O   UNL     1      43.860   3.094   9.608  0.00  0.00    +0.000 OA
BRANCH  26  27
ATOM     27  C   UNL     1      44.899   2.933   8.722  0.00  0.00    +0.000 A 
ATOM     28  N   UNL     1      45.431   1.704   8.689  0.00  0.00    +0.000 NA
ATOM     29  C   UNL     1      46.520   1.560   7.917  0.00  0.00    +0.000 A 
ATOM     30  C   UNL     1      47.074   2.584   7.192  0.00  0.00    +0.000 A 
ATOM     31  C   UNL     1      46.434   3.796   7.280  0.00  0.00    +0.000 A 
ATOM     32  N   UNL     1      45.341   3.998   8.031  0.00  0.00    +0.000 NA
ENDBRANCH  26  27
ENDBRANCH  25  26
ENDBRANCH  22  25
ENDBRANCH  18  19
ENDBRANCH   1  18
TORSDOF 8
ENDMDL
MODEL 2
REMARK VINA RESULT:    -7.567      2.200      3.047
REMARK INTER + INTRA:         -11.996
REMARK INTER:                 -10.922
REMARK INTRA:                  -1.074
REMARK UNBOUND:                -1.111
REMARK  Name = 
REMARK  8 active torsions:
REMARK  status: ('A' for Active; 'I' for Inactive)
REMARK    1  A    between atoms: N_1  and  C_2
REMARK    2  A    between atoms: C_2  and  C_3
REMARK    3  A    between atoms: C_2  and  C_18
REMARK    4  A    between atoms: C_3  and  N_4
REMARK    5  A    between atoms: C_7  and  C_8
REMARK    6  A    between atoms: C_8  and  O_9
REMARK    7  A    between atoms: O_9  and  C_10
REMARK    8  A    between atoms: C_18  and  C_20
REMARK                            x       y       z     vdW  Elec       q    Type
REMARK                         _______ _______ _______ _____ _____    ______ ____
ROOT
ATOM      1  C   UNL     1      47.151   4.374  16.220  0.00  0.00    +0.000 C 
ENDROOT
BRANCH   1   2
ATOM      2  N   UNL     1      46.575   3.276  17.024  0.00  0.00    +0.000 NA
ATOM      3  H   UNL     1      46.426   2.452  16.447  0.00  0.00    +0.000 HD
ATOM      4  H   UNL     1      45.649   3.568  17.353  0.00  0.00    +0.000 HD
ENDBRANCH   1   2
BRANCH   1   5
ATOM      5  C   UNL     1      48.559   4.651  16.733  0.00  0.00    +0.000 C 
ATOM      6  O   UNL     1      49.439   3.771  16.649  0.00  0.00    +0.000 OA
BRANCH   5   7
ATOM      7  C   UNL     1      48.912   5.965  17.243  0.00  0.00    +0.000 A 
ATOM      8  C   UNL     1      49.206   6.216  18.574  0.00  0.00    +0.000 A 
ATOM      9  S   UNL     1      48.999   7.872  18.960  0.00  0.00    +0.000 S 
ATOM     10  C   UNL     1      48.774   8.282  17.323  0.00  0.00    +0.000 A 
ATOM     11  N   UNL     1      48.498   9.557  16.938  0.00  0.00    +0.000 NA
ATOM     12  C   UNL     1      48.453   9.721  15.658  0.00  0.00    +0.000 A 
ATOM     13  N   UNL     1      48.706   8.742  14.726  0.00  0.00    +0.000 N 
ATOM     14  C   UNL     1      49.005   7.440  15.071  0.00  0.00    +0.000 A 
ATOM     15  O   UNL     1      49.406   6.625  14.244  0.00  0.00    +0.000 OA
ATOM     16  C   UNL     1      48.933   7.190  16.499  0.00  0.00    +0.000 A 
ATOM     17  H   UNL     1      48.790   8.978  13.748  0.00  0.00    +0.000 HD
ENDBRANCH   5   7
ENDBRANCH   1   5
BRANCH   1  18
ATOM     18  C   UNL     1      47.189   4.030  14.700  0.00  0.00    +0.000 C 
BRANCH  18  19
ATOM     19  N   UNL     1      45.932   4.255  13.950  0.00  0.00    +0.000 NA
ATOM     20  C   UNL     1      45.871   5.611  13.387  0.00  0.00    +0.000 C 
ATOM     21  C   UNL     1      44.512   5.878  12.755  0.00  0.00    +0.000 C 
ATOM     22  C   UNL     1      44.185   4.851  11.664  0.00  0.00    +0.000 C 
ATOM     23  C   UNL     1      44.351   3.437  12.234  0.00  0.00    +0.000 C 
ATOM     24  C   UNL     1      45.707   3.232  12.919  0.00  0.00    +0.000 C 
BRANCH  22  25
ATOM     25  C   UNL     1      45.034   5.056  10.399  0.00  0.00    +0.000 C 
BRANCH  25  26
ATOM     26  O   UNL     1      44.424   4.332   9.330  0.00  0.00    +0.000 OA
BRANCH  26  27
ATOM     27  C   UNL     1      45.342   3.584   8.633  0.00  0.00    +0.000 A 
ATOM     28  N   UNL     1      46.018   4.252   7.688  0.00  0.00    +0.000 NA
ATOM     29  C   UNL     1      46.832   3.512   6.919  0.00  0.00    +0.000 A 
ATOM     30  C   UNL     1      46.990   2.158   7.069  0.00  0.00    +0.000 A 
ATOM     31  C   UNL     1      46.267   1.578   8.083  0.00  0.00    +0.000 A 
ATOM     32  N   UNL     1      45.441   2.268   8.885  0.00  0.00    +0.000 NA
ENDBRANCH  26  27
ENDBRANCH  25  26
ENDBRANCH  22  25
ENDBRANCH  18  19
ENDBRANCH   1  18
TORSDOF 8
ENDMDL
MODEL 3
REMARK VINA RESULT:    -7.449      1.663      2.167
REMARK INTER + INTRA:         -11.825
REMARK INTER:                 -10.802
REMARK INTRA:                  -1.023
REMARK UNBOUND:                -1.111
REMARK  Name = 
REMARK  8 active torsions:
REMARK  status: ('A' for Active; 'I' for Inactive)
REMARK    1  A    between atoms: N_1  and  C_2
REMARK    2  A    between atoms: C_2  and  C_3
REMARK    3  A    between atoms: C_2  and  C_18
REMARK    4  A    between atoms: C_3  and  N_4
REMARK    5  A    between atoms: C_7  and  C_8
REMARK    6  A    between atoms: C_8  and  O_9
REMARK    7  A    between atoms: O_9  and  C_10
REMARK    8  A    between atoms: C_18  and  C_20
REMARK                            x       y       z     vdW  Elec       q    Type
REMARK                         _______ _______ _______ _____ _____    ______ ____
ROOT
ATOM      1  C   UNL     1      47.976   6.075  13.378  0.00  0.00    +0.000 C 
ENDROOT
BRANCH   1   2
ATOM      2  N   UNL     1      49.177   6.482  12.619  0.00  0.00    +0.000 NA
ATOM      3  H   UNL     1      48.915   6.851  11.709  0.00  0.00    +0.000 HD
ATOM      4  H   UNL     1      49.743   5.646  12.440  0.00  0.00    +0.000 HD
ENDBRANCH   1   2
BRANCH   1   5
ATOM      5  C   UNL     1      48.219   6.377  14.852  0.00  0.00    +0.000 C 
ATOM      6  O   UNL     1      48.338   7.557  15.236  0.00  0.00    +0.000 OA
BRANCH   5   7
ATOM      7  C   UNL     1      48.228   5.305  15.832  0.00  0.00    +0.000 A 
ATOM      8  C   UNL     1      47.265   4.310  15.888  0.00  0.00    +0.000 A 
ATOM      9  S   UNL     1      47.206   3.581  17.437  0.00  0.00    +0.000 S 
ATOM     10  C   UNL     1      48.612   4.401  17.936  0.00  0.00    +0.000 A 
ATOM     11  N   UNL     1      49.104   4.271  19.198  0.00  0.00    +0.000 NA
ATOM     12  C   UNL     1      50.226   4.878  19.389  0.00  0.00    +0.000 A 
ATOM     13  N   UNL     1      50.929   5.563  18.426  0.00  0.00    +0.000 N 
ATOM     14  C   UNL     1      50.476   5.708  17.130  0.00  0.00    +0.000 A 
ATOM     15  O   UNL     1      51.191   6.159  16.239  0.00  0.00    +0.000 OA
ATOM     16  C   UNL     1      49.154   5.150  16.916  0.00  0.00    +0.000 A 
ATOM     17  H   UNL     1      51.865   5.892  18.613  0.00  0.00    +0.000 HD
ENDBRANCH   5   7
ENDBRANCH   1   5
BRANCH   1  18
ATOM     18  C   UNL     1      46.693   6.809  12.882  0.00  0.00    +0.000 C 
BRANCH  18  19
ATOM     19  N   UNL     1      45.509   5.955  12.634  0.00  0.00    +0.000 NA
ATOM     20  C   UNL     1      44.664   6.495  11.559  0.00  0.00    +0.000 C 
ATOM     21  C   UNL     1      43.378   5.694  11.422  0.00  0.00    +0.000 C 
ATOM     22  C   UNL     1      43.661   4.210  11.159  0.00  0.00    +0.000 C 
ATOM     23  C   UNL     1      44.625   3.681  12.228  0.00  0.00    +0.000 C 
ATOM     24  C   UNL     1      45.876   4.554  12.378  0.00  0.00    +0.000 C 
BRANCH  22  25
ATOM     25  C   UNL     1      44.198   3.965   9.739  0.00  0.00    +0.000 C 
BRANCH  25  26
ATOM     26  O   UNL     1      44.638   2.608   9.658  0.00  0.00    +0.000 OA
BRANCH  26  27
ATOM     27  C   UNL     1      45.608   2.444   8.698  0.00  0.00    +0.000 A 
ATOM     28  N   UNL     1      45.957   3.563   8.048  0.00  0.00    +0.000 NA
ATOM     29  C   UNL     1      46.816   3.402   7.029  0.00  0.00    +0.000 A 
ATOM     30  C   UNL     1      47.327   2.186   6.655  0.00  0.00    +0.000 A 
ATOM     31  C   UNL     1      46.922   1.108   7.406  0.00  0.00    +0.000 A 
ATOM     32  N   UNL     1      46.069   1.209   8.437  0.00  0.00    +0.000 NA
ENDBRANCH  26  27
ENDBRANCH  25  26
ENDBRANCH  22  25
ENDBRANCH  18  19
ENDBRANCH   1  18
TORSDOF 8
ENDMDL
MODEL 4
REMARK VINA RESULT:    -7.287      1.710      2.070
REMARK INTER + INTRA:         -11.592
REMARK INTER:                 -10.988
REMARK INTRA:                  -0.604
REMARK UNBOUND:                -1.111
REMARK  Name = 
REMARK  8 active torsions:
REMARK  status: ('A' for Active; 'I' for Inactive)
REMARK    1  A    between atoms: N_1  and  C_2
REMARK    2  A    between atoms: C_2  and  C_3
REMARK    3  A    between atoms: C_2  and  C_18
REMARK    4  A    between atoms: C_3  and  N_4
REMARK    5  A    between atoms: C_7  and  C_8
REMARK    6  A    between atoms: C_8  and  O_9
REMARK    7  A    between atoms: O_9  and  C_10
REMARK    8  A    between atoms: C_18  and  C_20
REMARK                            x       y       z     vdW  Elec       q    Type
REMARK                         _______ _______ _______ _____ _____    ______ ____
ROOT
ATOM      1  C   UNL     1      47.023   4.093  15.188  0.00  0.00    +0.000 C 
ENDROOT
BRANCH   1   2
ATOM      2  N   UNL     1      47.900   2.925  14.968  0.00  0.00    +0.000 NA
ATOM      3  H   UNL     1      48.208   2.538  15.856  0.00  0.00    +0.000 HD
ATOM      4  H   UNL     1      48.746   3.243  14.484  0.00  0.00    +0.000 HD
ENDBRANCH   1   2
BRANCH   1   5
ATOM      5  C   UNL     1      47.336   4.671  16.562  0.00  0.00    +0.000 C 
ATOM      6  O   UNL     1      46.557   4.471  17.516  0.00  0.00    +0.000 OA
BRANCH   5   7
ATOM      7  C   UNL     1      48.579   5.385  16.797  0.00  0.00    +0.000 A 
ATOM      8  C   UNL     1      48.803   6.689  16.383  0.00  0.00    +0.000 A 
ATOM      9  S   UNL     1      50.478   7.031  16.268  0.00  0.00    +0.000 S 
ATOM     10  C   UNL     1      50.886   5.550  17.005  0.00  0.00    +0.000 A 
ATOM     11  N   UNL     1      52.181   5.173  17.176  0.00  0.00    +0.000 NA
ATOM     12  C   UNL     1      52.324   4.073  17.836  0.00  0.00    +0.000 A 
ATOM     13  N   UNL     1      51.297   3.340  18.383  0.00  0.00    +0.000 N 
ATOM     14  C   UNL     1      49.970   3.693  18.247  0.00  0.00    +0.000 A 
ATOM     15  O   UNL     1      49.081   3.139  18.889  0.00  0.00    +0.000 OA
ATOM     16  C   UNL     1      49.767   4.853  17.398  0.00  0.00    +0.000 A 
ATOM     17  H   UNL     1      51.494   2.568  19.004  0.00  0.00    +0.000 HD
ENDBRANCH   5   7
ENDBRANCH   1   5
BRANCH   1  18
ATOM     18  C   UNL     1      47.212   5.183  14.089  0.00  0.00    +0.000 C 
BRANCH  18  19
ATOM     19  N   UNL     1      46.016   5.500  13.275  0.00  0.00    +0.000 NA
ATOM     20  C   UNL     1      46.369   5.767  11.873  0.00  0.00    +0.000 C 
ATOM     21  C   UNL     1      45.155   6.241  11.087  0.00  0.00    +0.000 C 
ATOM     22  C   UNL     1      44.010   5.223  11.145  0.00  0.00    +0.000 C 
ATOM     23  C   UNL     1      43.718   4.874  12.610  0.00  0.00    +0.000 C 
ATOM     24  C   UNL     1      44.978   4.464  13.381  0.00  0.00    +0.000 C 
BRANCH  22  25
ATOM     25  C   UNL     1      44.307   3.967  10.311  0.00  0.00    +0.000 C 
BRANCH  25  26
ATOM     26  O   UNL     1      44.615   4.380   8.978  0.00  0.00    +0.000 OA
BRANCH  26  27
ATOM     27  C   UNL     1      45.491   3.516   8.367  0.00  0.00    +0.000 A 
ATOM     28  N   UNL     1      46.164   4.030   7.329  0.00  0.00    +0.000 NA
ATOM     29  C   UNL     1      46.936   3.168   6.648  0.00  0.00    +0.000 A 
ATOM     30  C   UNL     1      47.055   1.840   6.972  0.00  0.00    +0.000 A 
ATOM     31  C   UNL     1      46.340   1.424   8.069  0.00  0.00    +0.000 A 
ATOM     32  N   UNL     1      45.556   2.241   8.790  0.00  0.00    +0.000 NA
ENDBRANCH  26  27
ENDBRANCH  25  26
ENDBRANCH  22  25
ENDBRANCH  18  19
ENDBRANCH   1  18
TORSDOF 8
ENDMDL
MODEL 5
REMARK VINA RESULT:    -7.265      1.942      2.768
REMARK INTER + INTRA:         -11.561
REMARK INTER:                 -10.772
REMARK INTRA:                  -0.789
REMARK UNBOUND:                -1.111
REMARK  Name = 
REMARK  8 active torsions:
REMARK  status: ('A' for Active; 'I' for Inactive)
REMARK    1  A    between atoms: N_1  and  C_2
REMARK    2  A    between atoms: C_2  and  C_3
REMARK    3  A    between atoms: C_2  and  C_18
REMARK    4  A    between atoms: C_3  and  N_4
REMARK    5  A    between atoms: C_7  and  C_8
REMARK    6  A    between atoms: C_8  and  O_9
REMARK    7  A    between atoms: O_9  and  C_10
REMARK    8  A    between atoms: C_18  and  C_20
REMARK                            x       y       z     vdW  Elec       q    Type
REMARK                         _______ _______ _______ _____ _____    ______ ____
ROOT
ATOM      1  C   UNL     1      48.052   6.416  13.436  0.00  0.00    +0.000 C 
ENDROOT
BRANCH   1   2
ATOM      2  N   UNL     1      49.355   6.465  12.740  0.00  0.00    +0.000 NA
ATOM      3  H   UNL     1      49.221   6.460  11.732  0.00  0.00    +0.000 HD
ATOM      4  H   UNL     1      49.874   5.610  12.966  0.00  0.00    +0.000 HD
ENDBRANCH   1   2
BRANCH   1   5
ATOM      5  C   UNL     1      48.179   7.198  14.738  0.00  0.00    +0.000 C 
ATOM      6  O   UNL     1      47.774   8.376  14.800  0.00  0.00    +0.000 OA
BRANCH   5   7
ATOM      7  C   UNL     1      48.689   6.556  15.937  0.00  0.00    +0.000 A 
ATOM      8  C   UNL     1      49.531   7.183  16.842  0.00  0.00    +0.000 A 
ATOM      9  S   UNL     1      50.404   6.044  17.779  0.00  0.00    +0.000 S 
ATOM     10  C   UNL     1      49.483   4.751  17.164  0.00  0.00    +0.000 A 
ATOM     11  N   UNL     1      49.738   3.463  17.517  0.00  0.00    +0.000 NA
ATOM     12  C   UNL     1      48.892   2.610  17.043  0.00  0.00    +0.000 A 
ATOM     13  N   UNL     1      47.787   2.929  16.290  0.00  0.00    +0.000 N 
ATOM     14  C   UNL     1      47.480   4.223  15.921  0.00  0.00    +0.000 A 
ATOM     15  O   UNL     1      46.402   4.515  15.410  0.00  0.00    +0.000 OA
ATOM     16  C   UNL     1      48.483   5.191  16.326  0.00  0.00    +0.000 A 
ATOM     17  H   UNL     1      47.095   2.226  16.074  0.00  0.00    +0.000 HD
ENDBRANCH   5   7
ENDBRANCH   1   5
BRANCH   1  18
ATOM     18  C   UNL     1      46.900   7.002  12.565  0.00  0.00    +0.000 C 
BRANCH  18  19
ATOM     19  N   UNL     1      45.692   6.155  12.429  0.00  0.00    +0.000 NA
ATOM     20  C   UNL     1      44.758   6.698  11.432  0.00  0.00    +0.000 C 
ATOM     21  C   UNL     1      43.458   5.906  11.416  0.00  0.00    +0.000 C 
ATOM     22  C   UNL     1      43.705   4.420  11.135  0.00  0.00    +0.000 C 
ATOM     23  C   UNL     1      44.759   3.887  12.115  0.00  0.00    +0.000 C 
ATOM     24  C   UNL     1      46.024   4.751  12.147  0.00  0.00    +0.000 C 
BRANCH  22  25
ATOM     25  C   UNL     1      44.109   4.165   9.674  0.00  0.00    +0.000 C 
BRANCH  25  26
ATOM     26  O   UNL     1      44.391   2.772   9.526  0.00  0.00    +0.000 OA
BRANCH  26  27
ATOM     27  C   UNL     1      45.435   2.553   8.661  0.00  0.00    +0.000 A 
ATOM     28  N   UNL     1      45.826   3.626   7.960  0.00  0.00    +0.000 NA
ATOM     29  C   UNL     1      46.765   3.403   7.026  0.00  0.00    +0.000 A 
ATOM     30  C   UNL     1      47.315   2.170   6.785  0.00  0.00    +0.000 A 
ATOM     31  C   UNL     1      46.860   1.145   7.578  0.00  0.00    +0.000 A 
ATOM     32  N   UNL     1      45.926   1.308   8.528  0.00  0.00    +0.000 NA
ENDBRANCH  26  27
ENDBRANCH  25  26
ENDBRANCH  22  25
ENDBRANCH  18  19
ENDBRANCH   1  18
TORSDOF 8
ENDMDL
MODEL 6
REMARK VINA RESULT:    -6.893      4.146      4.852
REMARK INTER + INTRA:         -11.025
REMARK INTER:                 -10.035
REMARK INTRA:                  -0.991
REMARK UNBOUND:                -1.111
REMARK  Name = 
REMARK  8 active torsions:
REMARK  status: ('A' for Active; 'I' for Inactive)
REMARK    1  A    between atoms: N_1  and  C_2
REMARK    2  A    between atoms: C_2  and  C_3
REMARK    3  A    between atoms: C_2  and  C_18
REMARK    4  A    between atoms: C_3  and  N_4
REMARK    5  A    between atoms: C_7  and  C_8
REMARK    6  A    between atoms: C_8  and  O_9
REMARK    7  A    between atoms: O_9  and  C_10
REMARK    8  A    between atoms: C_18  and  C_20
REMARK                            x       y       z     vdW  Elec       q    Type
REMARK                         _______ _______ _______ _____ _____    ______ ____
ROOT
ATOM      1  C   UNL     1      46.872   7.056  12.987  0.00  0.00    +0.000 C 
ENDROOT
BRANCH   1   2
ATOM      2  N   UNL     1      46.221   8.245  13.576  0.00  0.00    +0.000 NA
ATOM      3  H   UNL     1      46.755   8.588  14.370  0.00  0.00    +0.000 HD
ATOM      4  H   UNL     1      45.306   7.963  13.944  0.00  0.00    +0.000 HD
ENDBRANCH   1   2
BRANCH   1   5
ATOM      5  C   UNL     1      48.372   7.164  13.235  0.00  0.00    +0.000 C 
ATOM      6  O   UNL     1      49.000   6.192  13.701  0.00  0.00    +0.000 OA
BRANCH   5   7
ATOM      7  C   UNL     1      49.098   8.362  12.852  0.00  0.00    +0.000 A 
ATOM      8  C   UNL     1      49.449   8.661  11.545  0.00  0.00    +0.000 A 
ATOM      9  S   UNL     1      50.754   9.769  11.483  0.00  0.00    +0.000 S 
ATOM     10  C   UNL     1      50.676  10.038  13.163  0.00  0.00    +0.000 A 
ATOM     11  N   UNL     1      51.558  10.858  13.796  0.00  0.00    +0.000 NA
ATOM     12  C   UNL     1      51.305  11.033  15.049  0.00  0.00    +0.000 A 
ATOM     13  N   UNL     1      50.227  10.505  15.720  0.00  0.00    +0.000 N 
ATOM     14  C   UNL     1      49.299   9.682  15.115  0.00  0.00    +0.000 A 
ATOM     15  O   UNL     1      48.249   9.369  15.670  0.00  0.00    +0.000 OA
ATOM     16  C   UNL     1      49.627   9.358  13.739  0.00  0.00    +0.000 A 
ATOM     17  H   UNL     1      50.018  10.800  16.663  0.00  0.00    +0.000 HD
ENDBRANCH   5   7
ENDBRANCH   1   5
BRANCH   1  18
ATOM     18  C   UNL     1      46.321   5.728  13.589  0.00  0.00    +0.000 C 
BRANCH  18  19
ATOM     19  N   UNL     1      45.115   5.169  12.936  0.00  0.00    +0.000 NA
ATOM     20  C   UNL     1      44.682   5.993  11.798  0.00  0.00    +0.000 C 
ATOM     21  C   UNL     1      43.359   5.494  11.236  0.00  0.00    +0.000 C 
ATOM     22  C   UNL     1      43.445   4.025  10.806  0.00  0.00    +0.000 C 
ATOM     23  C   UNL     1      43.995   3.188  11.968  0.00  0.00    +0.000 C 
ATOM     24  C   UNL     1      45.293   3.763  12.546  0.00  0.00    +0.000 C 
BRANCH  22  25
ATOM     25  C   UNL     1      44.282   3.843   9.529  0.00  0.00    +0.000 C 
BRANCH  25  26
ATOM     26  O   UNL     1      44.653   2.466   9.432  0.00  0.00    +0.000 OA
BRANCH  26  27
ATOM     27  C   UNL     1      45.618   2.266   8.475  0.00  0.00    +0.000 A 
ATOM     28  N   UNL     1      46.034   0.998   8.346  0.00  0.00    +0.000 NA
ATOM     29  C   UNL     1      47.058   0.803   7.500  0.00  0.00    +0.000 A 
ATOM     30  C   UNL     1      47.659   1.814   6.794  0.00  0.00    +0.000 A 
ATOM     31  C   UNL     1      47.137   3.070   6.983  0.00  0.00    +0.000 A 
ATOM     32  N   UNL     1      46.113   3.325   7.812  0.00  0.00    +0.000 NA
ENDBRANCH  26  27
ENDBRANCH  25  26
ENDBRANCH  22  25
ENDBRANCH  18  19
ENDBRANCH   1  18
TORSDOF 8
ENDMDL
MODEL 7
REMARK VINA RESULT:    -6.862      2.970      3.589
REMARK INTER + INTRA:         -10.981
REMARK INTER:                  -9.792
REMARK INTRA:                  -1.189
REMARK UNBOUND:                -1.111
REMARK  Name = 
REMARK  8 active torsions:
REMARK  status: ('A' for Active; 'I' for Inactive)
REMARK    1  A    between atoms: N_1  and  C_2
REMARK    2  A    between atoms: C_2  and  C_3
REMARK    3  A    between atoms: C_2  and  C_18
REMARK    4  A    between atoms: C_3  and  N_4
REMARK    5  A    between atoms: C_7  and  C_8
REMARK    6  A    between atoms: C_8  and  O_9
REMARK    7  A    between atoms: O_9  and  C_10
REMARK    8  A    between atoms: C_18  and  C_20
REMARK                            x       y       z     vdW  Elec       q    Type
REMARK                         _______ _______ _______ _____ _____    ______ ____
ROOT
ATOM      1  C   UNL     1      47.150   7.033  12.946  0.00  0.00    +0.000 C 
ENDROOT
BRANCH   1   2
ATOM      2  N   UNL     1      47.876   7.368  11.704  0.00  0.00    +0.000 NA
ATOM      3  H   UNL     1      48.317   6.539  11.314  0.00  0.00    +0.000 HD
ATOM      4  H   UNL     1      48.637   8.015  11.939  0.00  0.00    +0.000 HD
ENDBRANCH   1   2
BRANCH   1   5
ATOM      5  C   UNL     1      47.823   7.763  14.102  0.00  0.00    +0.000 C 
ATOM      6  O   UNL     1      47.417   8.889  14.451  0.00  0.00    +0.000 OA
BRANCH   5   7
ATOM      7  C   UNL     1      48.883   7.122  14.862  0.00  0.00    +0.000 A 
ATOM      8  C   UNL     1      48.653   6.190  15.861  0.00  0.00    +0.000 A 
ATOM      9  S   UNL     1      49.987   6.074  16.930  0.00  0.00    +0.000 S 
ATOM     10  C   UNL     1      50.947   7.058  15.925  0.00  0.00    +0.000 A 
ATOM     11  N   UNL     1      52.214   7.410  16.271  0.00  0.00    +0.000 NA
ATOM     12  C   UNL     1      52.842   8.076  15.361  0.00  0.00    +0.000 A 
ATOM     13  N   UNL     1      52.339   8.382  14.118  0.00  0.00    +0.000 N 
ATOM     14  C   UNL     1      51.066   8.032  13.718  0.00  0.00    +0.000 A 
ATOM     15  O   UNL     1      50.697   8.147  12.552  0.00  0.00    +0.000 OA
ATOM     16  C   UNL     1      50.287   7.398  14.766  0.00  0.00    +0.000 A 
ATOM     17  H   UNL     1      52.938   8.782  13.410  0.00  0.00    +0.000 HD
ENDBRANCH   5   7
ENDBRANCH   1   5
BRANCH   1  18
ATOM     18  C   UNL     1      45.643   7.422  12.868  0.00  0.00    +0.000 C 
BRANCH  18  19
ATOM     19  N   UNL     1      44.708   6.333  12.504  0.00  0.00    +0.000 NA
ATOM     20  C   UNL     1      44.631   6.146  11.047  0.00  0.00    +0.000 C 
ATOM     21  C   UNL     1      43.555   5.134  10.684  0.00  0.00    +0.000 C 
ATOM     22  C   UNL     1      43.797   3.782  11.365  0.00  0.00    +0.000 C 
ATOM     23  C   UNL     1      43.977   4.000  12.873  0.00  0.00    +0.000 C 
ATOM     24  C   UNL     1      45.024   5.073  13.193  0.00  0.00    +0.000 C 
BRANCH  22  25
ATOM     25  C   UNL     1      44.990   3.029  10.754  0.00  0.00    +0.000 C 
BRANCH  25  26
ATOM     26  O   UNL     1      44.526   2.312   9.609  0.00  0.00    +0.000 OA
BRANCH  26  27
ATOM     27  C   UNL     1      45.470   2.281   8.611  0.00  0.00    +0.000 A 
ATOM     28  N   UNL     1      46.021   1.080   8.389  0.00  0.00    +0.000 NA
ATOM     29  C   UNL     1      47.028   1.055   7.500  0.00  0.00    +0.000 A 
ATOM     30  C   UNL     1      47.482   2.168   6.840  0.00  0.00    +0.000 A 
ATOM     31  C   UNL     1      46.830   3.343   7.125  0.00  0.00    +0.000 A 
ATOM     32  N   UNL     1      45.816   3.428   8.001  0.00  0.00    +0.000 NA
ENDBRANCH  26  27
ENDBRANCH  25  26
ENDBRANCH  22  25
ENDBRANCH  18  19
ENDBRANCH   1  18
TORSDOF 8
ENDMDL
MODEL 8
REMARK VINA RESULT:    -6.649      2.562      3.428
REMARK INTER + INTRA:         -10.676
REMARK INTER:                  -9.859
REMARK INTRA:                  -0.817
REMARK UNBOUND:                -1.111
REMARK  Name = 
REMARK  8 active torsions:
REMARK  status: ('A' for Active; 'I' for Inactive)
REMARK    1  A    between atoms: N_1  and  C_2
REMARK    2  A    between atoms: C_2  and  C_3
REMARK    3  A    between atoms: C_2  and  C_18
REMARK    4  A    between atoms: C_3  and  N_4
REMARK    5  A    between atoms: C_7  and  C_8
REMARK    6  A    between atoms: C_8  and  O_9
REMARK    7  A    between atoms: O_9  and  C_10
REMARK    8  A    between atoms: C_18  and  C_20
REMARK                            x       y       z     vdW  Elec       q    Type
REMARK                         _______ _______ _______ _____ _____    ______ ____
ROOT
ATOM      1  C   UNL     1      48.108   7.573  13.810  0.00  0.00    +0.000 C 
ENDROOT
BRANCH   1   2
ATOM      2  N   UNL     1      47.146   8.538  14.381  0.00  0.00    +0.000 NA
ATOM      3  H   UNL     1      46.482   8.063  14.987  0.00  0.00    +0.000 HD
ATOM      4  H   UNL     1      46.597   8.940  13.613  0.00  0.00    +0.000 HD
ENDBRANCH   1   2
BRANCH   1   5
ATOM      5  C   UNL     1      49.303   7.478  14.751  0.00  0.00    +0.000 C 
ATOM      6  O   UNL     1      50.440   7.796  14.350  0.00  0.00    +0.000 OA
BRANCH   5   7
ATOM      7  C   UNL     1      49.118   7.102  16.141  0.00  0.00    +0.000 A 
ATOM      8  C   UNL     1      49.191   5.795  16.597  0.00  0.00    +0.000 A 
ATOM      9  S   UNL     1      48.373   5.605  18.090  0.00  0.00    +0.000 S 
ATOM     10  C   UNL     1      48.152   7.286  18.245  0.00  0.00    +0.000 A 
ATOM     11  N   UNL     1      47.470   7.822  19.292  0.00  0.00    +0.000 NA
ATOM     12  C   UNL     1      47.473   9.113  19.317  0.00  0.00    +0.000 A 
ATOM     13  N   UNL     1      48.136   9.918  18.420  0.00  0.00    +0.000 N 
ATOM     14  C   UNL     1      48.853   9.418  17.353  0.00  0.00    +0.000 A 
ATOM     15  O   UNL     1      49.587  10.130  16.672  0.00  0.00    +0.000 OA
ATOM     16  C   UNL     1      48.759   7.976  17.220  0.00  0.00    +0.000 A 
ATOM     17  H   UNL     1      48.210  10.912  18.585  0.00  0.00    +0.000 HD
ENDBRANCH   5   7
ENDBRANCH   1   5
BRANCH   1  18
ATOM     18  C   UNL     1      47.472   6.164  13.602  0.00  0.00    +0.000 C 
BRANCH  18  19
ATOM     19  N   UNL     1      46.071   6.147  13.122  0.00  0.00    +0.000 NA
ATOM     20  C   UNL     1      45.993   6.334  11.666  0.00  0.00    +0.000 C 
ATOM     21  C   UNL     1      44.547   6.469  11.211  0.00  0.00    +0.000 C 
ATOM     22  C   UNL     1      43.710   5.251  11.620  0.00  0.00    +0.000 C 
ATOM     23  C   UNL     1      43.880   5.002  13.124  0.00  0.00    +0.000 C 
ATOM     24  C   UNL     1      45.351   4.938  13.549  0.00  0.00    +0.000 C 
BRANCH  22  25
ATOM     25  C   UNL     1      44.061   4.002  10.795  0.00  0.00    +0.000 C 
BRANCH  25  26
ATOM     26  O   UNL     1      44.193   4.394   9.427  0.00  0.00    +0.000 OA
BRANCH  26  27
ATOM     27  C   UNL     1      45.158   3.662   8.779  0.00  0.00    +0.000 A 
ATOM     28  N   UNL     1      45.923   4.359   7.929  0.00  0.00    +0.000 NA
ATOM     29  C   UNL     1      46.793   3.640   7.200  0.00  0.00    +0.000 A 
ATOM     30  C   UNL     1      46.919   2.278   7.302  0.00  0.00    +0.000 A 
ATOM     31  C   UNL     1      46.103   1.667   8.222  0.00  0.00    +0.000 A 
ATOM     32  N   UNL     1      45.219   2.334   8.980  0.00  0.00    +0.000 NA
ENDBRANCH  26  27
ENDBRANCH  25  26
ENDBRANCH  22  25
ENDBRANCH  18  19
ENDBRANCH   1  18
TORSDOF 8
ENDMDL
MODEL 9
REMARK VINA RESULT:    -6.542      3.493      8.557
REMARK INTER + INTRA:         -10.522
REMARK INTER:                  -8.725
REMARK INTRA:                  -1.797
REMARK UNBOUND:                -1.111
REMARK  Name = 
REMARK  8 active torsions:
REMARK  status: ('A' for Active; 'I' for Inactive)
REMARK    1  A    between atoms: N_1  and  C_2
REMARK    2  A    between atoms: C_2  and  C_3
REMARK    3  A    between atoms: C_2  and  C_18
REMARK    4  A    between atoms: C_3  and  N_4
REMARK    5  A    between atoms: C_7  and  C_8
REMARK    6  A    between atoms: C_8  and  O_9
REMARK    7  A    between atoms: O_9  and  C_10
REMARK    8  A    between atoms: C_18  and  C_20
REMARK                            x       y       z     vdW  Elec       q    Type
REMARK                         _______ _______ _______ _____ _____    ______ ____
ROOT
ATOM      1  C   UNL     1      46.769   8.634  13.383  0.00  0.00    +0.000 C 
ENDROOT
BRANCH   1   2
ATOM      2  N   UNL     1      45.527   9.255  12.878  0.00  0.00    +0.000 NA
ATOM      3  H   UNL     1      44.733   8.978  13.449  0.00  0.00    +0.000 HD
ATOM      4  H   UNL     1      45.345   8.893  11.936  0.00  0.00    +0.000 HD
ENDBRANCH   1   2
BRANCH   1   5
ATOM      5  C   UNL     1      47.084   7.424  12.512  0.00  0.00    +0.000 C 
ATOM      6  O   UNL     1      47.905   7.523  11.578  0.00  0.00    +0.000 OA
BRANCH   5   7
ATOM      7  C   UNL     1      46.500   6.128  12.811  0.00  0.00    +0.000 A 
ATOM      8  C   UNL     1      47.015   5.256  13.757  0.00  0.00    +0.000 A 
ATOM      9  S   UNL     1      46.503   3.646  13.471  0.00  0.00    +0.000 S 
ATOM     10  C   UNL     1      45.411   4.150  12.266  0.00  0.00    +0.000 A 
ATOM     11  N   UNL     1      44.666   3.258  11.561  0.00  0.00    +0.000 NA
ATOM     12  C   UNL     1      43.818   3.803  10.754  0.00  0.00    +0.000 A 
ATOM     13  N   UNL     1      43.611   5.156  10.621  0.00  0.00    +0.000 N 
ATOM     14  C   UNL     1      44.332   6.097  11.328  0.00  0.00    +0.000 A 
ATOM     15  O   UNL     1      44.016   7.283  11.339  0.00  0.00    +0.000 OA
ATOM     16  C   UNL     1      45.385   5.521  12.145  0.00  0.00    +0.000 A 
ATOM     17  H   UNL     1      42.835   5.503  10.076  0.00  0.00    +0.000 HD
ENDBRANCH   5   7
ENDBRANCH   1   5
BRANCH   1  18
ATOM     18  C   UNL     1      47.968   9.630  13.375  0.00  0.00    +0.000 C 
BRANCH  18  19
ATOM     19  N   UNL     1      48.935   9.493  14.489  0.00  0.00    +0.000 NA
ATOM     20  C   UNL     1      48.358   8.757  15.622  0.00  0.00    +0.000 C 
ATOM     21  C   UNL     1      49.306   8.760  16.813  0.00  0.00    +0.000 C 
ATOM     22  C   UNL     1      50.670   8.162  16.451  0.00  0.00    +0.000 C 
ATOM     23  C   UNL     1      51.218   8.868  15.204  0.00  0.00    +0.000 C 
ATOM     24  C   UNL     1      50.207   8.900  14.052  0.00  0.00    +0.000 C 
BRANCH  22  25
ATOM     25  C   UNL     1      50.603   6.638  16.256  0.00  0.00    +0.000 C 
BRANCH  25  26
ATOM     26  O   UNL     1      50.233   6.045  17.502  0.00  0.00    +0.000 OA
BRANCH  26  27
ATOM     27  C   UNL     1      49.331   5.023  17.332  0.00  0.00    +0.000 A 
ATOM     28  N   UNL     1      48.048   5.363  17.515  0.00  0.00    +0.000 NA
ATOM     29  C   UNL     1      47.164   4.353  17.469  0.00  0.00    +0.000 A 
ATOM     30  C   UNL     1      47.519   3.047  17.244  0.00  0.00    +0.000 A 
ATOM     31  C   UNL     1      48.858   2.815  17.045  0.00  0.00    +0.000 A 
ATOM     32  N   UNL     1      49.786   3.784  17.076  0.00  0.00    +0.000 NA
ENDBRANCH  26  27
ENDBRANCH  25  26
ENDBRANCH  22  25
ENDBRANCH  18  19
ENDBRANCH   1  18
TORSDOF 8
ENDMDL
