MODEL 1
REMARK VINA RESULT:    -7.842      0.000      0.000
REMARK INTER + INTRA:          -8.574
REMARK INTER:                  -9.217
REMARK INTRA:                   0.643
REMARK UNBOUND:                 0.643
REMARK  Name = 
REMARK  6 active torsions:
REMARK  status: ('A' for Active; 'I' for Inactive)
REMARK    1  A    between atoms: C_1  and  N_2
REMARK    2  A    between atoms: C_3  and  C_5
REMARK    3  A    between atoms: C_8  and  C_9
REMARK    4  A    between atoms: C_9  and  C_10
REMARK    5  A    between atoms: C_9  and  C_11
REMARK    6  A    between atoms: C_9  and  N_12
REMARK                            x       y       z     vdW  Elec       q    Type
REMARK                         _______ _______ _______ _____ _____    ______ ____
ROOT
ATOM      1  C   UNL     1      46.700   4.499  14.195  0.00  0.00    +0.000 A 
ATOM      2  C   UNL     1      46.231   5.681  13.654  0.00  0.00    +0.000 A 
ATOM      3  N   UNL     1      45.452   5.712  12.541  0.00  0.00    +0.000 NA
ATOM      4  C   UNL     1      45.125   4.514  11.975  0.00  0.00    +0.000 A 
ATOM      5  C   UNL     1      45.645   3.332  12.526  0.00  0.00    +0.000 A 
ATOM      6  N   UNL     1      46.427   3.287  13.637  0.00  0.00    +0.000 NA
ENDROOT
BRANCH   1   9
ATOM      7  C   UNL     1      47.798   3.470  17.659  0.00  0.00    +0.000 C 
ATOM      8  N   UNL     1      47.127   3.590  16.394  0.00  0.00    +0.000 N 
ATOM      9  C   UNL     1      47.516   4.510  15.442  0.00  0.00    +0.000 C 
ATOM     10  O   UNL     1      48.451   5.290  15.586  0.00  0.00    +0.000 OA
ATOM     11  H   UNL     1      46.335   2.995  16.166  0.00  0.00    +0.000 HD
ENDBRANCH   1   9
BRANCH   4  12
ATOM     12  C   UNL     1      44.168   4.491  10.748  0.00  0.00    +0.000 C 
ATOM     13  C   UNL     1      43.524   3.090  10.617  0.00  0.00    +0.000 C 
ATOM     14  C   UNL     1      43.060   5.543  10.991  0.00  0.00    +0.000 C 
BRANCH  12  15
ATOM     15  N   UNL     1      44.958   4.840   9.538  0.00  0.00    +0.000 N 
ATOM     16  C   UNL     1      45.570   3.847   8.769  0.00  0.00    +0.000 A 
ATOM     17  C   UNL     1      46.253   4.217   7.612  0.00  0.00    +0.000 A 
ATOM     18  C   UNL     1      46.856   3.237   6.818  0.00  0.00    +0.000 A 
ATOM     19  C   UNL     1      46.758   1.905   7.187  0.00  0.00    +0.000 A 
ATOM     20  C   UNL     1      46.052   1.614   8.334  0.00  0.00    +0.000 A 
ATOM     21  N   UNL     1      45.467   2.550   9.109  0.00  0.00    +0.000 NA
ATOM     22  H   UNL     1      45.604   5.606   9.692  0.00  0.00    +0.000 HD
ENDBRANCH  12  15
ENDBRANCH   4  12
TORSDOF 3
ENDMDL
MODEL 2
REMARK VINA RESULT:    -7.554      1.519      2.113
REMARK INTER + INTRA:          -8.236
REMARK INTER:                  -8.957
REMARK INTRA:                   0.721
REMARK UNBOUND:                 0.643
REMARK  Name = 
REMARK  6 active torsions:
REMARK  status: ('A' for Active; 'I' for Inactive)
REMARK    1  A    between atoms: C_1  and  N_2
REMARK    2  A    between atoms: C_3  and  C_5
REMARK    3  A    between atoms: C_8  and  C_9
REMARK    4  A    between atoms: C_9  and  C_10
REMARK    5  A    between atoms: C_9  and  C_11
REMARK    6  A    between atoms: C_9  and  N_12
REMARK                            x       y       z     vdW  Elec       q    Type
REMARK                         _______ _______ _______ _____ _____    ______ ____
ROOT
ATOM      1  C   UNL     1      47.116   5.388  13.319  0.00  0.00    +0.000 A 
ATOM      2  C   UNL     1      46.696   4.103  13.609  0.00  0.00    +0.000 A 
ATOM      3  N   UNL     1      45.766   3.456  12.857  0.00  0.00    +0.000 NA
ATOM      4  C   UNL     1      45.264   4.121  11.776  0.00  0.00    +0.000 A 
ATOM      5  C   UNL     1      45.684   5.438  11.528  0.00  0.00    +0.000 A 
ATOM      6  N   UNL     1      46.611   6.097  12.271  0.00  0.00    +0.000 NA
ENDROOT
BRANCH   1   9
ATOM      7  C   UNL     1      48.922   6.481  16.451  0.00  0.00    +0.000 C 
ATOM      8  N   UNL     1      48.004   5.905  15.507  0.00  0.00    +0.000 N 
ATOM      9  C   UNL     1      48.170   6.043  14.144  0.00  0.00    +0.000 C 
ATOM     10  O   UNL     1      49.098   6.654  13.626  0.00  0.00    +0.000 OA
ATOM     11  H   UNL     1      47.194   5.378  15.823  0.00  0.00    +0.000 HD
ENDBRANCH   1   9
BRANCH   4  12
ATOM     12  C   UNL     1      44.259   3.393  10.838  0.00  0.00    +0.000 C 
ATOM     13  C   UNL     1      43.087   2.826  11.673  0.00  0.00    +0.000 C 
ATOM     14  C   UNL     1      43.714   4.432   9.830  0.00  0.00    +0.000 C 
BRANCH  12  15
ATOM     15  N   UNL     1      44.990   2.313  10.125  0.00  0.00    +0.000 N 
ATOM     16  C   UNL     1      45.597   2.549   8.889  0.00  0.00    +0.000 A 
ATOM     17  C   UNL     1      46.319   1.522   8.286  0.00  0.00    +0.000 A 
ATOM     18  C   UNL     1      46.949   1.743   7.058  0.00  0.00    +0.000 A 
ATOM     19  C   UNL     1      46.855   2.989   6.459  0.00  0.00    +0.000 A 
ATOM     20  C   UNL     1      46.138   3.961   7.123  0.00  0.00    +0.000 A 
ATOM     21  N   UNL     1      45.525   3.759   8.308  0.00  0.00    +0.000 NA
ATOM     22  H   UNL     1      44.480   1.437  10.099  0.00  0.00    +0.000 HD
ENDBRANCH  12  15
ENDBRANCH   4  12
TORSDOF 3
ENDMDL
MODEL 3
REMARK VINA RESULT:    -6.388      1.723      1.807
REMARK INTER + INTRA:          -6.865
REMARK INTER:                  -7.745
REMARK INTRA:                   0.880
REMARK UNBOUND:                 0.643
REMARK  Name = 
REMARK  6 active torsions:
REMARK  status: ('A' for Active; 'I' for Inactive)
REMARK    1  A    between atoms: C_1  and  N_2
REMARK    2  A    between atoms: C_3  and  C_5
REMARK    3  A    between atoms: C_8  and  C_9
REMARK    4  A    between atoms: C_9  and  C_10
REMARK    5  A    between atoms: C_9  and  C_11
REMARK    6  A    between atoms: C_9  and  N_12
REMARK                            x       y       z     vdW  Elec       q    Type
REMARK                         _______ _______ _______ _____ _____    ______ ____
ROOT
ATOM      1  C   UNL     1      47.759   6.307  14.101  0.00  0.00    +0.000 A 
ATOM      2  C   UNL     1      47.288   7.304  13.268  0.00  0.00    +0.000 A 
ATOM      3  N   UNL     1      46.341   7.073  12.320  0.00  0.00    +0.000 NA
ATOM      4  C   UNL     1      45.847   5.804  12.229  0.00  0.00    +0.000 A 
ATOM      5  C   UNL     1      46.370   4.804  13.065  0.00  0.00    +0.000 A 
ATOM      6  N   UNL     1      47.318   5.021  14.014  0.00  0.00    +0.000 NA
ENDROOT
BRANCH   1   9
ATOM      7  C   UNL     1      49.094   6.942  17.577  0.00  0.00    +0.000 C 
ATOM      8  N   UNL     1      48.264   6.650  16.440  0.00  0.00    +0.000 N 
ATOM      9  C   UNL     1      48.766   6.615  15.156  0.00  0.00    +0.000 C 
ATOM     10  O   UNL     1      49.940   6.822  14.874  0.00  0.00    +0.000 OA
ATOM     11  H   UNL     1      47.271   6.464  16.554  0.00  0.00    +0.000 HD
ENDBRANCH   1   9
BRANCH   4  12
ATOM     12  C   UNL     1      44.704   5.507  11.216  0.00  0.00    +0.000 C 
ATOM     13  C   UNL     1      44.071   4.132  11.536  0.00  0.00    +0.000 C 
ATOM     14  C   UNL     1      43.634   6.612  11.372  0.00  0.00    +0.000 C 
BRANCH  12  15
ATOM     15  N   UNL     1      45.281   5.533   9.847  0.00  0.00    +0.000 N 
ATOM     16  C   UNL     1      45.537   4.348   9.151  0.00  0.00    +0.000 A 
ATOM     17  C   UNL     1      46.025   4.424   7.848  0.00  0.00    +0.000 A 
ATOM     18  C   UNL     1      46.269   3.251   7.130  0.00  0.00    +0.000 A 
ATOM     19  C   UNL     1      46.013   2.024   7.719  0.00  0.00    +0.000 A 
ATOM     20  C   UNL     1      45.514   2.028   9.004  0.00  0.00    +0.000 A 
ATOM     21  N   UNL     1      45.275   3.153   9.709  0.00  0.00    +0.000 NA
ATOM     22  H   UNL     1      46.071   6.163   9.759  0.00  0.00    +0.000 HD
ENDBRANCH  12  15
ENDBRANCH   4  12
TORSDOF 3
ENDMDL
MODEL 4
REMARK VINA RESULT:    -6.065      1.789      3.017
REMARK INTER + INTRA:          -6.486
REMARK INTER:                  -7.342
REMARK INTRA:                   0.855
REMARK UNBOUND:                 0.643
REMARK  Name = 
REMARK  6 active torsions:
REMARK  status: ('A' for Active; 'I' for Inactive)
REMARK    1  A    between atoms: C_1  and  N_2
REMARK    2  A    between atoms: C_3  and  C_5
REMARK    3  A    between atoms: C_8  and  C_9
REMARK    4  A    between atoms: C_9  and  C_10
REMARK    5  A    between atoms: C_9  and  C_11
REMARK    6  A    between atoms: C_9  and  N_12
REMARK                            x       y       z     vdW  Elec       q    Type
REMARK                         _______ _______ _______ _____ _____    ______ ____
ROOT
ATOM      1  C   UNL     1      48.210   4.898  15.953  0.00  0.00    +0.000 A 
ATOM      2  C   UNL     1      47.141   4.085  15.627  0.00  0.00    +0.000 A 
ATOM      3  N   UNL     1      46.341   4.333  14.555  0.00  0.00    +0.000 NA
ATOM      4  C   UNL     1      46.646   5.420  13.787  0.00  0.00    +0.000 A 
ATOM      5  C   UNL     1      47.716   6.246  14.166  0.00  0.00    +0.000 A 
ATOM      6  N   UNL     1      48.522   6.012  15.234  0.00  0.00    +0.000 NA
ENDROOT
BRANCH   1   9
ATOM      7  C   UNL     1      49.546   5.056  19.483  0.00  0.00    +0.000 C 
ATOM      8  N   UNL     1      48.795   5.249  18.272  0.00  0.00    +0.000 N 
ATOM      9  C   UNL     1      49.087   4.563  17.112  0.00  0.00    +0.000 C 
ATOM     10  O   UNL     1      49.992   3.743  17.010  0.00  0.00    +0.000 OA
ATOM     11  H   UNL     1      48.022   5.908  18.239  0.00  0.00    +0.000 HD
ENDBRANCH   1   9
BRANCH   4  12
ATOM     12  C   UNL     1      45.811   5.699  12.504  0.00  0.00    +0.000 C 
ATOM     13  C   UNL     1      44.722   6.754  12.813  0.00  0.00    +0.000 C 
ATOM     14  C   UNL     1      46.770   6.255  11.426  0.00  0.00    +0.000 C 
BRANCH  12  15
ATOM     15  N   UNL     1      45.211   4.416  12.055  0.00  0.00    +0.000 N 
ATOM     16  C   UNL     1      45.120   4.102  10.696  0.00  0.00    +0.000 A 
ATOM     17  C   UNL     1      44.603   2.863  10.324  0.00  0.00    +0.000 A 
ATOM     18  C   UNL     1      44.520   2.523   8.971  0.00  0.00    +0.000 A 
ATOM     19  C   UNL     1      44.965   3.420   8.014  0.00  0.00    +0.000 A 
ATOM     20  C   UNL     1      45.481   4.619   8.458  0.00  0.00    +0.000 A 
ATOM     21  N   UNL     1      45.564   4.959   9.760  0.00  0.00    +0.000 NA
ATOM     22  H   UNL     1      44.336   4.200  12.519  0.00  0.00    +0.000 HD
ENDBRANCH  12  15
ENDBRANCH   4  12
TORSDOF 3
ENDMDL
MODEL 5
REMARK VINA RESULT:    -5.794      3.146      7.254
REMARK INTER + INTRA:          -6.168
REMARK INTER:                  -6.946
REMARK INTRA:                   0.778
REMARK UNBOUND:                 0.643
REMARK  Name = 
REMARK  6 active torsions:
REMARK  status: ('A' for Active; 'I' for Inactive)
REMARK    1  A    between atoms: C_1  and  N_2
REMARK    2  A    between atoms: C_3  and  C_5
REMARK    3  A    between atoms: C_8  and  C_9
REMARK    4  A    between atoms: C_9  and  C_10
REMARK    5  A    between atoms: C_9  and  C_11
REMARK    6  A    between atoms: C_9  and  N_12
REMARK                            x       y       z     vdW  Elec       q    Type
REMARK                         _______ _______ _______ _____ _____    ______ ____
ROOT
ATOM      1  C   UNL     1      45.125   4.232  11.596  0.00  0.00    +0.000 A 
ATOM      2  C   UNL     1      45.604   5.370  10.975  0.00  0.00    +0.000 A 
ATOM      3  N   UNL     1      46.411   6.260  11.612  0.00  0.00    +0.000 NA
ATOM      4  C   UNL     1      46.754   5.978  12.903  0.00  0.00    +0.000 A 
ATOM      5  C   UNL     1      46.223   4.833  13.518  0.00  0.00    +0.000 A 
ATOM      6  N   UNL     1      45.415   3.937  12.894  0.00  0.00    +0.000 NA
ENDROOT
BRANCH   1   9
ATOM      7  C   UNL     1      44.277   1.587   9.036  0.00  0.00    +0.000 C 
ATOM      8  N   UNL     1      44.942   2.557   9.862  0.00  0.00    +0.000 N 
ATOM      9  C   UNL     1      44.279   3.261  10.845  0.00  0.00    +0.000 C 
ATOM     10  O   UNL     1      43.088   3.124  11.100  0.00  0.00    +0.000 OA
ATOM     11  H   UNL     1      45.932   2.756   9.738  0.00  0.00    +0.000 HD
ENDBRANCH   1   9
BRANCH   4  12
ATOM     12  C   UNL     1      47.741   6.923  13.648  0.00  0.00    +0.000 C 
ATOM     13  C   UNL     1      49.087   6.973  12.887  0.00  0.00    +0.000 C 
ATOM     14  C   UNL     1      47.115   8.337  13.675  0.00  0.00    +0.000 C 
BRANCH  12  15
ATOM     15  N   UNL     1      47.919   6.408  15.031  0.00  0.00    +0.000 N 
ATOM     16  C   UNL     1      49.147   6.521  15.688  0.00  0.00    +0.000 A 
ATOM     17  C   UNL     1      49.250   6.076  17.004  0.00  0.00    +0.000 A 
ATOM     18  C   UNL     1      50.465   6.197  17.685  0.00  0.00    +0.000 A 
ATOM     19  C   UNL     1      51.551   6.771  17.045  0.00  0.00    +0.000 A 
ATOM     20  C   UNL     1      51.369   7.205  15.749  0.00  0.00    +0.000 A 
ATOM     21  N   UNL     1      50.202   7.092  15.081  0.00  0.00    +0.000 NA
ATOM     22  H   UNL     1      47.542   5.475  15.161  0.00  0.00    +0.000 HD
ENDBRANCH  12  15
ENDBRANCH   4  12
TORSDOF 3
ENDMDL
MODEL 6
REMARK VINA RESULT:    -5.463      2.967      7.944
REMARK INTER + INTRA:          -5.778
REMARK INTER:                  -6.735
REMARK INTRA:                   0.957
REMARK UNBOUND:                 0.643
REMARK  Name = 
REMARK  6 active torsions:
REMARK  status: ('A' for Active; 'I' for Inactive)
REMARK    1  A    between atoms: C_1  and  N_2
REMARK    2  A    between atoms: C_3  and  C_5
REMARK    3  A    between atoms: C_8  and  C_9
REMARK    4  A    between atoms: C_9  and  C_10
REMARK    5  A    between atoms: C_9  and  C_11
REMARK    6  A    between atoms: C_9  and  N_12
REMARK                            x       y       z     vdW  Elec       q    Type
REMARK                         _______ _______ _______ _____ _____    ______ ____
ROOT
ATOM      1  C   UNL     1      46.556   5.301  13.368  0.00  0.00    +0.000 A 
ATOM      2  C   UNL     1      47.625   6.095  13.738  0.00  0.00    +0.000 A 
ATOM      3  N   UNL     1      48.296   5.912  14.906  0.00  0.00    +0.000 NA
ATOM      4  C   UNL     1      47.885   4.887  15.709  0.00  0.00    +0.000 A 
ATOM      5  C   UNL     1      46.773   4.121  15.323  0.00  0.00    +0.000 A 
ATOM      6  N   UNL     1      46.093   4.294  14.160  0.00  0.00    +0.000 NA
ENDROOT
BRANCH   1   9
ATOM      7  C   UNL     1      43.998   4.782  10.638  0.00  0.00    +0.000 C 
ATOM      8  N   UNL     1      44.767   4.718  11.851  0.00  0.00    +0.000 N 
ATOM      9  C   UNL     1      45.878   5.510  12.058  0.00  0.00    +0.000 C 
ATOM     10  O   UNL     1      46.298   6.325  11.245  0.00  0.00    +0.000 OA
ATOM     11  H   UNL     1      44.512   4.074  12.596  0.00  0.00    +0.000 HD
ENDBRANCH   1   9
BRANCH   4  12
ATOM     12  C   UNL     1      48.672   4.586  17.017  0.00  0.00    +0.000 C 
ATOM     13  C   UNL     1      49.857   5.572  17.149  0.00  0.00    +0.000 C 
ATOM     14  C   UNL     1      47.705   4.784  18.207  0.00  0.00    +0.000 C 
BRANCH  12  15
ATOM     15  N   UNL     1      49.142   3.177  16.959  0.00  0.00    +0.000 N 
ATOM     16  C   UNL     1      50.445   2.838  17.334  0.00  0.00    +0.000 A 
ATOM     17  C   UNL     1      50.822   1.497  17.317  0.00  0.00    +0.000 A 
ATOM     18  C   UNL     1      52.115   1.135  17.706  0.00  0.00    +0.000 A 
ATOM     19  C   UNL     1      53.004   2.116  18.115  0.00  0.00    +0.000 A 
ATOM     20  C   UNL     1      52.554   3.418  18.123  0.00  0.00    +0.000 A 
ATOM     21  N   UNL     1      51.309   3.780  17.748  0.00  0.00    +0.000 NA
ATOM     22  H   UNL     1      48.899   2.711  16.091  0.00  0.00    +0.000 HD
ENDBRANCH  12  15
ENDBRANCH   4  12
TORSDOF 3
ENDMDL
MODEL 7
REMARK VINA RESULT:    -5.433      3.520      8.623
REMARK INTER + INTRA:          -5.743
REMARK INTER:                  -6.300
REMARK INTRA:                   0.557
REMARK UNBOUND:                 0.643
REMARK  Name = 
REMARK  6 active torsions:
REMARK  status: ('A' for Active; 'I' for Inactive)
REMARK    1  A    between atoms: C_1  and  N_2
REMARK    2  A    between atoms: C_3  and  C_5
REMARK    3  A    between atoms: C_8  and  C_9
REMARK    4  A    between atoms: C_9  and  C_10
REMARK    5  A    between atoms: C_9  and  C_11
REMARK    6  A    between atoms: C_9  and  N_12
REMARK                            x       y       z     vdW  Elec       q    Type
REMARK                         _______ _______ _______ _____ _____    ______ ____
ROOT
ATOM      1  C   UNL     1      46.687   4.850  14.183  0.00  0.00    +0.000 A 
ATOM      2  C   UNL     1      47.642   5.848  14.122  0.00  0.00    +0.000 A 
ATOM      3  N   UNL     1      48.534   6.061  15.125  0.00  0.00    +0.000 NA
ATOM      4  C   UNL     1      48.468   5.231  16.207  0.00  0.00    +0.000 A 
ATOM      5  C   UNL     1      47.464   4.250  16.256  0.00  0.00    +0.000 A 
ATOM      6  N   UNL     1      46.565   4.028  15.262  0.00  0.00    +0.000 NA
ENDROOT
BRANCH   1   9
ATOM      7  C   UNL     1      45.152   5.374  10.771  0.00  0.00    +0.000 C 
ATOM      8  N   UNL     1      45.964   5.449  11.955  0.00  0.00    +0.000 N 
ATOM      9  C   UNL     1      45.756   4.624  13.041  0.00  0.00    +0.000 C 
ATOM     10  O   UNL     1      44.880   3.768  13.092  0.00  0.00    +0.000 OA
ATOM     11  H   UNL     1      46.720   6.125  12.026  0.00  0.00    +0.000 HD
ENDBRANCH   1   9
BRANCH   4  12
ATOM     12  C   UNL     1      49.520   5.382  17.343  0.00  0.00    +0.000 C 
ATOM     13  C   UNL     1      50.202   4.018  17.605  0.00  0.00    +0.000 C 
ATOM     14  C   UNL     1      50.581   6.404  16.873  0.00  0.00    +0.000 C 
BRANCH  12  15
ATOM     15  N   UNL     1      48.821   5.881  18.556  0.00  0.00    +0.000 N 
ATOM     16  C   UNL     1      48.402   7.210  18.650  0.00  0.00    +0.000 A 
ATOM     17  C   UNL     1      47.700   7.617  19.783  0.00  0.00    +0.000 A 
ATOM     18  C   UNL     1      47.256   8.938  19.887  0.00  0.00    +0.000 A 
ATOM     19  C   UNL     1      47.510   9.827  18.855  0.00  0.00    +0.000 A 
ATOM     20  C   UNL     1      48.194   9.348  17.758  0.00  0.00    +0.000 A 
ATOM     21  N   UNL     1      48.629   8.076  17.646  0.00  0.00    +0.000 NA
ATOM     22  H   UNL     1      49.271   5.598  19.420  0.00  0.00    +0.000 HD
ENDBRANCH  12  15
ENDBRANCH   4  12
TORSDOF 3
ENDMDL
MODEL 8
REMARK VINA RESULT:    -5.264      3.990      6.929
REMARK INTER + INTRA:          -5.545
REMARK INTER:                  -6.490
REMARK INTRA:                   0.946
REMARK UNBOUND:                 0.643
REMARK  Name = 
REMARK  6 active torsions:
REMARK  status: ('A' for Active; 'I' for Inactive)
REMARK    1  A    between atoms: C_1  and  N_2
REMARK    2  A    between atoms: C_3  and  C_5
REMARK    3  A    between atoms: C_8  and  C_9
REMARK    4  A    between atoms: C_9  and  C_10
REMARK    5  A    between atoms: C_9  and  C_11
REMARK    6  A    between atoms: C_9  and  N_12
REMARK                            x       y       z     vdW  Elec       q    Type
REMARK                         _______ _______ _______ _____ _____    ______ ____
ROOT
ATOM      1  C   UNL     1      51.653   2.423  17.664  0.00  0.00    +0.000 A 
ATOM      2  C   UNL     1      50.532   1.910  17.040  0.00  0.00    +0.000 A 
ATOM      3  N   UNL     1      49.375   2.615  16.930  0.00  0.00    +0.000 NA
ATOM      4  C   UNL     1      49.362   3.877  17.449  0.00  0.00    +0.000 A 
ATOM      5  C   UNL     1      50.504   4.357  18.110  0.00  0.00    +0.000 A 
ATOM      6  N   UNL     1      51.666   3.662  18.228  0.00  0.00    +0.000 NA
ENDROOT
BRANCH   1   9
ATOM      7  C   UNL     1      53.865  -0.585  18.239  0.00  0.00    +0.000 C 
ATOM      8  N   UNL     1      52.754   0.319  18.118  0.00  0.00    +0.000 N 
ATOM      9  C   UNL     1      52.915   1.631  17.724  0.00  0.00    +0.000 C 
ATOM     10  O   UNL     1      53.997   2.133  17.443  0.00  0.00    +0.000 OA
ATOM     11  H   UNL     1      51.808   0.011  18.329  0.00  0.00    +0.000 HD
ENDBRANCH   1   9
BRANCH   4  12
ATOM     12  C   UNL     1      48.088   4.754  17.276  0.00  0.00    +0.000 C 
ATOM     13  C   UNL     1      46.854   3.844  17.073  0.00  0.00    +0.000 C 
ATOM     14  C   UNL     1      47.905   5.584  18.569  0.00  0.00    +0.000 C 
BRANCH  12  15
ATOM     15  N   UNL     1      48.299   5.650  16.110  0.00  0.00    +0.000 N 
ATOM     16  C   UNL     1      47.607   5.448  14.913  0.00  0.00    +0.000 A 
ATOM     17  C   UNL     1      47.795   6.348  13.866  0.00  0.00    +0.000 A 
ATOM     18  C   UNL     1      47.097   6.173  12.667  0.00  0.00    +0.000 A 
ATOM     19  C   UNL     1      46.217   5.111  12.539  0.00  0.00    +0.000 A 
ATOM     20  C   UNL     1      46.069   4.273  13.623  0.00  0.00    +0.000 A 
ATOM     21  N   UNL     1      46.738   4.430  14.784  0.00  0.00    +0.000 NA
ATOM     22  H   UNL     1      49.279   5.830  15.916  0.00  0.00    +0.000 HD
ENDBRANCH  12  15
ENDBRANCH   4  12
TORSDOF 3
ENDMDL
MODEL 9
REMARK VINA RESULT:    -5.172      3.831      8.973
REMARK INTER + INTRA:          -5.437
REMARK INTER:                  -5.949
REMARK INTRA:                   0.512
REMARK UNBOUND:                 0.643
REMARK  Name = 
REMARK  6 active torsions:
REMARK  status: ('A' for Active; 'I' for Inactive)
REMARK    1  A    between atoms: C_1  and  N_2
REMARK    2  A    between atoms: C_3  and  C_5
REMARK    3  A    between atoms: C_8  and  C_9
REMARK    4  A    between atoms: C_9  and  C_10
REMARK    5  A    between atoms: C_9  and  C_11
REMARK    6  A    between atoms: C_9  and  N_12
REMARK                            x       y       z     vdW  Elec       q    Type
REMARK                         _______ _______ _______ _____ _____    ______ ____
ROOT
ATOM      1  C   UNL     1      47.518   4.527  15.417  0.00  0.00    +0.000 A 
ATOM      2  C   UNL     1      47.531   3.482  16.321  0.00  0.00    +0.000 A 
ATOM      3  N   UNL     1      48.270   3.517  17.462  0.00  0.00    +0.000 NA
ATOM      4  C   UNL     1      48.998   4.647  17.699  0.00  0.00    +0.000 A 
ATOM      5  C   UNL     1      48.992   5.678  16.745  0.00  0.00    +0.000 A 
ATOM      6  N   UNL     1      48.260   5.655  15.601  0.00  0.00    +0.000 NA
ENDROOT
BRANCH   1   9
ATOM      7  C   UNL     1      45.223   5.784  12.693  0.00  0.00    +0.000 C 
ATOM      8  N   UNL     1      46.087   5.665  13.835  0.00  0.00    +0.000 N 
ATOM      9  C   UNL     1      46.659   4.464  14.201  0.00  0.00    +0.000 C 
ATOM     10  O   UNL     1      46.487   3.412  13.596  0.00  0.00    +0.000 OA
ATOM     11  H   UNL     1      46.299   6.474  14.414  0.00  0.00    +0.000 HD
ENDBRANCH   1   9
BRANCH   4  12
ATOM     12  C   UNL     1      49.795   4.770  19.030  0.00  0.00    +0.000 C 
ATOM     13  C   UNL     1      50.372   6.199  19.160  0.00  0.00    +0.000 C 
ATOM     14  C   UNL     1      48.814   4.505  20.196  0.00  0.00    +0.000 C 
BRANCH  12  15
ATOM     15  N   UNL     1      50.874   3.748  19.018  0.00  0.00    +0.000 N 
ATOM     16  C   UNL     1      52.099   4.003  18.395  0.00  0.00    +0.000 A 
ATOM     17  C   UNL     1      53.101   3.037  18.459  0.00  0.00    +0.000 A 
ATOM     18  C   UNL     1      54.339   3.281  17.857  0.00  0.00    +0.000 A 
ATOM     19  C   UNL     1      54.559   4.487  17.214  0.00  0.00    +0.000 A 
ATOM     20  C   UNL     1      53.527   5.401  17.207  0.00  0.00    +0.000 A 
ATOM     21  N   UNL     1      52.327   5.178  17.782  0.00  0.00    +0.000 NA
ATOM     22  H   UNL     1      50.544   2.822  18.767  0.00  0.00    +0.000 HD
ENDBRANCH  12  15
ENDBRANCH   4  12
TORSDOF 3
ENDMDL
