MODEL 1
REMARK VINA RESULT:    -8.453      0.000      0.000
REMARK INTER + INTRA:         -13.223
REMARK INTER:                 -11.913
REMARK INTRA:                  -1.310
REMARK UNBOUND:                -1.310
REMARK  Name = 
REMARK  7 active torsions:
REMARK  status: ('A' for Active; 'I' for Inactive)
REMARK    1  A    between atoms: C_2  and  C_4
REMARK    2  A    between atoms: C_8  and  O_9
REMARK    3  A    between atoms: O_9  and  C_10
REMARK    4  A    between atoms: C_10  and  C_11
REMARK    5  A    between atoms: C_15  and  C_16
REMARK    6  A    between atoms: C_20  and  O_21
REMARK    7  A    between atoms: O_21  and  C_22
REMARK                            x       y       z     vdW  Elec       q    Type
REMARK                         _______ _______ _______ _____ _____    ______ ____
ROOT
ATOM      1  C   UNL     1      45.260   4.759  12.111  0.00  0.00    +0.000 A 
ATOM      2  C   UNL     1      45.747   3.835  13.047  0.00  0.00    +0.000 A 
ATOM      3  C   UNL     1      46.911   4.079  13.771  0.00  0.00    +0.000 A 
ATOM      4  C   UNL     1      47.628   5.255  13.556  0.00  0.00    +0.000 A 
ATOM      5  C   UNL     1      47.190   6.215  12.629  0.00  0.00    +0.000 A 
ATOM      6  C   UNL     1      45.985   5.954  11.951  0.00  0.00    +0.000 A 
ENDROOT
BRANCH   5   7
ATOM      7  C   UNL     1      47.991   7.421  12.322  0.00  0.00    +0.000 A 
ATOM      8  C   UNL     1      47.394   8.680  12.130  0.00  0.00    +0.000 A 
ATOM      9  C   UNL     1      48.156   9.800  11.783  0.00  0.00    +0.000 A 
ATOM     10  C   UNL     1      49.539   9.695  11.654  0.00  0.00    +0.000 A 
ATOM     11  C   UNL     1      50.161   8.471  11.885  0.00  0.00    +0.000 A 
ATOM     12  C   UNL     1      49.388   7.343  12.174  0.00  0.00    +0.000 A 
BRANCH  11  13
ATOM     13  O   UNL     1      51.508   8.247  11.817  0.00  0.00    +0.000 OA
BRANCH  13  14
ATOM     14  C   UNL     1      52.041   8.253  10.503  0.00  0.00    +0.000 C 
ATOM     15  F   UNL     1      53.393   8.203  10.618  0.00  0.00    +0.000 F 
ATOM     16  F   UNL     1      51.658   7.113   9.879  0.00  0.00    +0.000 F 
ENDBRANCH  13  14
ENDBRANCH  11  13
ENDBRANCH   5   7
BRANCH   1  17
ATOM     17  C   UNL     1      44.051   4.445  11.244  0.00  0.00    +0.000 C 
ATOM     18  C   UNL     1      42.658   4.465  11.878  0.00  0.00    +0.000 C 
ATOM     19  C   UNL     1      43.075   5.571  10.973  0.00  0.00    +0.000 C 
BRANCH  17  20
ATOM     20  O   UNL     1      44.153   3.336  10.323  0.00  0.00    +0.000 OA
BRANCH  20  25
ATOM     21  C   UNL     1      46.513   2.300   7.800  0.00  0.00    +0.000 A 
ATOM     22  C   UNL     1      46.833   3.530   7.255  0.00  0.00    +0.000 A 
ATOM     23  N   UNL     1      46.257   4.670   7.688  0.00  0.00    +0.000 NA
ATOM     24  N   UNL     1      45.344   4.618   8.706  0.00  0.00    +0.000 NA
ATOM     25  C   UNL     1      45.061   3.435   9.286  0.00  0.00    +0.000 A 
ATOM     26  C   UNL     1      45.616   2.248   8.860  0.00  0.00    +0.000 A 
BRANCH  21  28
ATOM     27  N   UNL     1      46.722  -0.116   7.742  0.00  0.00    +0.000 N 
ATOM     28  C   UNL     1      47.136   1.088   7.239  0.00  0.00    +0.000 C 
ATOM     29  O   UNL     1      47.948   1.155   6.328  0.00  0.00    +0.000 OA
ATOM     30  H   UNL     1      47.073  -0.944   7.277  0.00  0.00    +0.000 HD
ATOM     31  H   UNL     1      45.885  -0.216   8.297  0.00  0.00    +0.000 HD
ENDBRANCH  21  28
ENDBRANCH  20  25
ENDBRANCH  17  20
ENDBRANCH   1  17
TORSDOF 7
ENDMDL
MODEL 2
REMARK VINA RESULT:    -8.423      3.363      4.747
REMARK INTER + INTRA:         -13.181
REMARK INTER:                 -12.212
REMARK INTRA:                  -0.968
REMARK UNBOUND:                -1.310
REMARK  Name = 
REMARK  7 active torsions:
REMARK  status: ('A' for Active; 'I' for Inactive)
REMARK    1  A    between atoms: C_2  and  C_4
REMARK    2  A    between atoms: C_8  and  O_9
REMARK    3  A    between atoms: O_9  and  C_10
REMARK    4  A    between atoms: C_10  and  C_11
REMARK    5  A    between atoms: C_15  and  C_16
REMARK    6  A    between atoms: C_20  and  O_21
REMARK    7  A    between atoms: O_21  and  C_22
REMARK                            x       y       z     vdW  Elec       q    Type
REMARK                         _______ _______ _______ _____ _____    ______ ____
ROOT
ATOM      1  C   UNL     1      45.452   4.894  12.135  0.00  0.00    +0.000 A 
ATOM      2  C   UNL     1      46.140   6.043  11.716  0.00  0.00    +0.000 A 
ATOM      3  C   UNL     1      47.233   6.533  12.426  0.00  0.00    +0.000 A 
ATOM      4  C   UNL     1      47.650   5.890  13.590  0.00  0.00    +0.000 A 
ATOM      5  C   UNL     1      46.997   4.738  14.059  0.00  0.00    +0.000 A 
ATOM      6  C   UNL     1      45.927   4.245  13.289  0.00  0.00    +0.000 A 
ENDROOT
BRANCH   5   7
ATOM      7  C   UNL     1      47.369   4.102  15.342  0.00  0.00    +0.000 A 
ATOM      8  C   UNL     1      46.750   4.458  16.554  0.00  0.00    +0.000 A 
ATOM      9  C   UNL     1      47.151   3.892  17.768  0.00  0.00    +0.000 A 
ATOM     10  C   UNL     1      48.158   2.929  17.795  0.00  0.00    +0.000 A 
ATOM     11  C   UNL     1      48.755   2.525  16.605  0.00  0.00    +0.000 A 
ATOM     12  C   UNL     1      48.389   3.136  15.402  0.00  0.00    +0.000 A 
BRANCH  11  13
ATOM     13  O   UNL     1      49.730   1.573  16.497  0.00  0.00    +0.000 OA
BRANCH  13  14
ATOM     14  C   UNL     1      50.850   1.778  17.343  0.00  0.00    +0.000 C 
ATOM     15  F   UNL     1      51.823   0.923  16.935  0.00  0.00    +0.000 F 
ATOM     16  F   UNL     1      51.318   3.032  17.138  0.00  0.00    +0.000 F 
ENDBRANCH  13  14
ENDBRANCH  11  13
ENDBRANCH   5   7
BRANCH   1  17
ATOM     17  C   UNL     1      44.195   4.421  11.422  0.00  0.00    +0.000 C 
ATOM     18  C   UNL     1      42.880   4.351  12.204  0.00  0.00    +0.000 C 
ATOM     19  C   UNL     1      43.092   5.435  11.205  0.00  0.00    +0.000 C 
BRANCH  17  20
ATOM     20  O   UNL     1      44.306   3.273  10.552  0.00  0.00    +0.000 OA
BRANCH  20  25
ATOM     21  C   UNL     1      46.481   2.258   7.858  0.00  0.00    +0.000 A 
ATOM     22  C   UNL     1      46.714   3.486   7.266  0.00  0.00    +0.000 A 
ATOM     23  N   UNL     1      46.140   4.616   7.726  0.00  0.00    +0.000 NA
ATOM     24  N   UNL     1      45.317   4.557   8.818  0.00  0.00    +0.000 NA
ATOM     25  C   UNL     1      45.122   3.378   9.440  0.00  0.00    +0.000 A 
ATOM     26  C   UNL     1      45.677   2.201   8.990  0.00  0.00    +0.000 A 
BRANCH  21  28
ATOM     27  N   UNL     1      46.704  -0.156   7.775  0.00  0.00    +0.000 N 
ATOM     28  C   UNL     1      47.094   1.055   7.268  0.00  0.00    +0.000 C 
ATOM     29  O   UNL     1      47.875   1.135   6.332  0.00  0.00    +0.000 OA
ATOM     30  H   UNL     1      47.046  -0.978   7.293  0.00  0.00    +0.000 HD
ATOM     31  H   UNL     1      45.886  -0.265   8.356  0.00  0.00    +0.000 HD
ENDBRANCH  21  28
ENDBRANCH  20  25
ENDBRANCH  17  20
ENDBRANCH   1  17
TORSDOF 7
ENDMDL
MODEL 3
REMARK VINA RESULT:    -8.052      4.373      7.757
REMARK INTER + INTRA:         -12.657
REMARK INTER:                 -11.443
REMARK INTRA:                  -1.214
REMARK UNBOUND:                -1.310
REMARK  Name = 
REMARK  7 active torsions:
REMARK  status: ('A' for Active; 'I' for Inactive)
REMARK    1  A    between atoms: C_2  and  C_4
REMARK    2  A    between atoms: C_8  and  O_9
REMARK    3  A    between atoms: O_9  and  C_10
REMARK    4  A    between atoms: C_10  and  C_11
REMARK    5  A    between atoms: C_15  and  C_16
REMARK    6  A    between atoms: C_20  and  O_21
REMARK    7  A    between atoms: O_21  and  C_22
REMARK                            x       y       z     vdW  Elec       q    Type
REMARK                         _______ _______ _______ _____ _____    ______ ____
ROOT
ATOM      1  C   UNL     1      47.162   7.493  12.733  0.00  0.00    +0.000 A 
ATOM      2  C   UNL     1      46.193   8.493  12.910  0.00  0.00    +0.000 A 
ATOM      3  C   UNL     1      44.923   8.380  12.352  0.00  0.00    +0.000 A 
ATOM      4  C   UNL     1      44.600   7.264  11.581  0.00  0.00    +0.000 A 
ATOM      5  C   UNL     1      45.531   6.234  11.366  0.00  0.00    +0.000 A 
ATOM      6  C   UNL     1      46.789   6.361  11.986  0.00  0.00    +0.000 A 
ENDROOT
BRANCH   5   7
ATOM      7  C   UNL     1      45.235   5.092  10.473  0.00  0.00    +0.000 A 
ATOM      8  C   UNL     1      44.444   4.008  10.892  0.00  0.00    +0.000 A 
ATOM      9  C   UNL     1      44.219   2.908  10.059  0.00  0.00    +0.000 A 
ATOM     10  C   UNL     1      44.752   2.881   8.772  0.00  0.00    +0.000 A 
ATOM     11  C   UNL     1      45.500   3.963   8.316  0.00  0.00    +0.000 A 
ATOM     12  C   UNL     1      45.769   5.033   9.173  0.00  0.00    +0.000 A 
BRANCH  11  13
ATOM     13  O   UNL     1      46.051   4.069   7.069  0.00  0.00    +0.000 OA
BRANCH  13  14
ATOM     14  C   UNL     1      46.596   2.862   6.561  0.00  0.00    +0.000 C 
ATOM     15  F   UNL     1      46.764   3.028   5.223  0.00  0.00    +0.000 F 
ATOM     16  F   UNL     1      47.831   2.692   7.092  0.00  0.00    +0.000 F 
ENDBRANCH  13  14
ENDBRANCH  11  13
ENDBRANCH   5   7
BRANCH   1  17
ATOM     17  C   UNL     1      48.581   7.666  13.251  0.00  0.00    +0.000 C 
ATOM     18  C   UNL     1      49.641   8.271  12.326  0.00  0.00    +0.000 C 
ATOM     19  C   UNL     1      49.086   9.081  13.446  0.00  0.00    +0.000 C 
BRANCH  17  20
ATOM     20  O   UNL     1      49.159   6.579  14.008  0.00  0.00    +0.000 OA
BRANCH  20  25
ATOM     21  C   UNL     1      47.960   5.103  17.074  0.00  0.00    +0.000 A 
ATOM     22  C   UNL     1      48.157   6.163  17.940  0.00  0.00    +0.000 A 
ATOM     23  N   UNL     1      48.705   7.325  17.528  0.00  0.00    +0.000 NA
ATOM     24  N   UNL     1      49.061   7.473  16.215  0.00  0.00    +0.000 NA
ATOM     25  C   UNL     1      48.824   6.470  15.345  0.00  0.00    +0.000 A 
ATOM     26  C   UNL     1      48.283   5.264  15.732  0.00  0.00    +0.000 A 
BRANCH  21  28
ATOM     27  N   UNL     1      47.916   3.394  18.794  0.00  0.00    +0.000 N 
ATOM     28  C   UNL     1      47.411   3.843  17.604  0.00  0.00    +0.000 C 
ATOM     29  O   UNL     1      46.507   3.254  17.030  0.00  0.00    +0.000 OA
ATOM     30  H   UNL     1      47.458   2.588  19.203  0.00  0.00    +0.000 HD
ATOM     31  H   UNL     1      48.465   3.978  19.408  0.00  0.00    +0.000 HD
ENDBRANCH  21  28
ENDBRANCH  20  25
ENDBRANCH  17  20
ENDBRANCH   1  17
TORSDOF 7
ENDMDL
MODEL 4
REMARK VINA RESULT:    -7.719      2.491      3.112
REMARK INTER + INTRA:         -12.188
REMARK INTER:                 -11.691
REMARK INTRA:                  -0.496
REMARK UNBOUND:                -1.310
REMARK  Name = 
REMARK  7 active torsions:
REMARK  status: ('A' for Active; 'I' for Inactive)
REMARK    1  A    between atoms: C_2  and  C_4
REMARK    2  A    between atoms: C_8  and  O_9
REMARK    3  A    between atoms: O_9  and  C_10
REMARK    4  A    between atoms: C_10  and  C_11
REMARK    5  A    between atoms: C_15  and  C_16
REMARK    6  A    between atoms: C_20  and  O_21
REMARK    7  A    between atoms: O_21  and  C_22
REMARK                            x       y       z     vdW  Elec       q    Type
REMARK                         _______ _______ _______ _____ _____    ______ ____
ROOT
ATOM      1  C   UNL     1      44.511   5.234  11.403  0.00  0.00    +0.000 A 
ATOM      2  C   UNL     1      43.569   6.248  11.174  0.00  0.00    +0.000 A 
ATOM      3  C   UNL     1      43.900   7.593  11.315  0.00  0.00    +0.000 A 
ATOM      4  C   UNL     1      45.187   7.952  11.709  0.00  0.00    +0.000 A 
ATOM      5  C   UNL     1      46.172   6.980  11.956  0.00  0.00    +0.000 A 
ATOM      6  C   UNL     1      45.812   5.634  11.757  0.00  0.00    +0.000 A 
ENDROOT
BRANCH   5   7
ATOM      7  C   UNL     1      47.512   7.344  12.467  0.00  0.00    +0.000 A 
ATOM      8  C   UNL     1      48.336   8.267  11.799  0.00  0.00    +0.000 A 
ATOM      9  C   UNL     1      49.623   8.558  12.260  0.00  0.00    +0.000 A 
ATOM     10  C   UNL     1      50.106   7.957  13.421  0.00  0.00    +0.000 A 
ATOM     11  C   UNL     1      49.293   7.075  14.127  0.00  0.00    +0.000 A 
ATOM     12  C   UNL     1      48.029   6.745  13.630  0.00  0.00    +0.000 A 
BRANCH  11  13
ATOM     13  O   UNL     1      49.639   6.445  15.291  0.00  0.00    +0.000 OA
BRANCH  13  14
ATOM     14  C   UNL     1      49.789   7.308  16.406  0.00  0.00    +0.000 C 
ATOM     15  F   UNL     1      48.730   8.157  16.403  0.00  0.00    +0.000 F 
ATOM     16  F   UNL     1      49.695   6.567  17.537  0.00  0.00    +0.000 F 
ENDBRANCH  13  14
ENDBRANCH  11  13
ENDBRANCH   5   7
BRANCH   1  17
ATOM     17  C   UNL     1      44.121   3.765  11.355  0.00  0.00    +0.000 C 
ATOM     18  C   UNL     1      44.880   2.766  12.233  0.00  0.00    +0.000 C 
ATOM     19  C   UNL     1      43.493   3.169  12.597  0.00  0.00    +0.000 C 
BRANCH  17  20
ATOM     20  O   UNL     1      43.864   3.178  10.059  0.00  0.00    +0.000 OA
BRANCH  20  25
ATOM     21  C   UNL     1      46.465   2.211   7.753  0.00  0.00    +0.000 A 
ATOM     22  C   UNL     1      46.749   3.440   7.188  0.00  0.00    +0.000 A 
ATOM     23  N   UNL     1      46.075   4.555   7.535  0.00  0.00    +0.000 NA
ATOM     24  N   UNL     1      45.093   4.479   8.486  0.00  0.00    +0.000 NA
ATOM     25  C   UNL     1      44.840   3.300   9.088  0.00  0.00    +0.000 A 
ATOM     26  C   UNL     1      45.496   2.137   8.747  0.00  0.00    +0.000 A 
BRANCH  21  28
ATOM     27  N   UNL     1      46.755  -0.197   7.719  0.00  0.00    +0.000 N 
ATOM     28  C   UNL     1      47.200   1.023   7.285  0.00  0.00    +0.000 C 
ATOM     29  O   UNL     1      48.132   1.122   6.501  0.00  0.00    +0.000 OA
ATOM     30  H   UNL     1      47.196  -1.011   7.306  0.00  0.00    +0.000 HD
ATOM     31  H   UNL     1      45.850  -0.327   8.147  0.00  0.00    +0.000 HD
ENDBRANCH  21  28
ENDBRANCH  20  25
ENDBRANCH  17  20
ENDBRANCH   1  17
TORSDOF 7
ENDMDL
MODEL 5
REMARK VINA RESULT:    -7.372      4.063      5.168
REMARK INTER + INTRA:         -11.700
REMARK INTER:                 -11.203
REMARK INTRA:                  -0.496
REMARK UNBOUND:                -1.310
REMARK  Name = 
REMARK  7 active torsions:
REMARK  status: ('A' for Active; 'I' for Inactive)
REMARK    1  A    between atoms: C_2  and  C_4
REMARK    2  A    between atoms: C_8  and  O_9
REMARK    3  A    between atoms: O_9  and  C_10
REMARK    4  A    between atoms: C_10  and  C_11
REMARK    5  A    between atoms: C_15  and  C_16
REMARK    6  A    between atoms: C_20  and  O_21
REMARK    7  A    between atoms: O_21  and  C_22
REMARK                            x       y       z     vdW  Elec       q    Type
REMARK                         _______ _______ _______ _____ _____    ______ ____
ROOT
ATOM      1  C   UNL     1      45.051   5.178  11.803  0.00  0.00    +0.000 A 
ATOM      2  C   UNL     1      46.339   5.079  12.350  0.00  0.00    +0.000 A 
ATOM      3  C   UNL     1      47.087   6.213  12.655  0.00  0.00    +0.000 A 
ATOM      4  C   UNL     1      46.565   7.479  12.398  0.00  0.00    +0.000 A 
ATOM      5  C   UNL     1      45.283   7.640  11.847  0.00  0.00    +0.000 A 
ATOM      6  C   UNL     1      44.538   6.472  11.596  0.00  0.00    +0.000 A 
ENDROOT
BRANCH   5   7
ATOM      7  C   UNL     1      44.755   8.973  11.481  0.00  0.00    +0.000 A 
ATOM      8  C   UNL     1      45.467  10.154  11.755  0.00  0.00    +0.000 A 
ATOM      9  C   UNL     1      44.933  11.411  11.457  0.00  0.00    +0.000 A 
ATOM     10  C   UNL     1      43.686  11.516  10.845  0.00  0.00    +0.000 A 
ATOM     11  C   UNL     1      42.980  10.361  10.521  0.00  0.00    +0.000 A 
ATOM     12  C   UNL     1      43.494   9.110  10.873  0.00  0.00    +0.000 A 
BRANCH  11  13
ATOM     13  O   UNL     1      41.764  10.330   9.896  0.00  0.00    +0.000 OA
BRANCH  13  14
ATOM     14  C   UNL     1      40.685  10.807  10.683  0.00  0.00    +0.000 C 
ATOM     15  F   UNL     1      39.555  10.216  10.217  0.00  0.00    +0.000 F 
ATOM     16  F   UNL     1      40.857  10.374  11.955  0.00  0.00    +0.000 F 
ENDBRANCH  13  14
ENDBRANCH  11  13
ENDBRANCH   5   7
BRANCH   1  17
ATOM     17  C   UNL     1      44.278   3.943  11.369  0.00  0.00    +0.000 C 
ATOM     18  C   UNL     1      44.667   2.582  11.952  0.00  0.00    +0.000 C 
ATOM     19  C   UNL     1      43.421   3.255  12.412  0.00  0.00    +0.000 C 
BRANCH  17  20
ATOM     20  O   UNL     1      43.966   3.802   9.965  0.00  0.00    +0.000 OA
BRANCH  20  25
ATOM     21  C   UNL     1      46.514   2.427   7.813  0.00  0.00    +0.000 A 
ATOM     22  C   UNL     1      47.057   3.596   7.312  0.00  0.00    +0.000 A 
ATOM     23  N   UNL     1      46.571   4.807   7.651  0.00  0.00    +0.000 NA
ATOM     24  N   UNL     1      45.523   4.891   8.527  0.00  0.00    +0.000 NA
ATOM     25  C   UNL     1      45.018   3.765   9.068  0.00  0.00    +0.000 A 
ATOM     26  C   UNL     1      45.477   2.510   8.733  0.00  0.00    +0.000 A 
BRANCH  21  28
ATOM     27  N   UNL     1      46.481   0.003   7.864  0.00  0.00    +0.000 N 
ATOM     28  C   UNL     1      47.056   1.136   7.355  0.00  0.00    +0.000 C 
ATOM     29  O   UNL     1      47.944   1.081   6.517  0.00  0.00    +0.000 OA
ATOM     30  H   UNL     1      46.784  -0.877   7.463  0.00  0.00    +0.000 HD
ATOM     31  H   UNL     1      45.595   0.011   8.347  0.00  0.00    +0.000 HD
ENDBRANCH  21  28
ENDBRANCH  20  25
ENDBRANCH  17  20
ENDBRANCH   1  17
TORSDOF 7
ENDMDL
MODEL 6
REMARK VINA RESULT:    -7.318      4.401      8.260
REMARK INTER + INTRA:         -11.623
REMARK INTER:                 -10.319
REMARK INTRA:                  -1.304
REMARK UNBOUND:                -1.310
REMARK  Name = 
REMARK  7 active torsions:
REMARK  status: ('A' for Active; 'I' for Inactive)
REMARK    1  A    between atoms: C_2  and  C_4
REMARK    2  A    between atoms: C_8  and  O_9
REMARK    3  A    between atoms: O_9  and  C_10
REMARK    4  A    between atoms: C_10  and  C_11
REMARK    5  A    between atoms: C_15  and  C_16
REMARK    6  A    between atoms: C_20  and  O_21
REMARK    7  A    between atoms: O_21  and  C_22
REMARK                            x       y       z     vdW  Elec       q    Type
REMARK                         _______ _______ _______ _____ _____    ______ ____
ROOT
ATOM      1  C   UNL     1      47.331   7.503  12.666  0.00  0.00    +0.000 A 
ATOM      2  C   UNL     1      46.365   8.486  12.928  0.00  0.00    +0.000 A 
ATOM      3  C   UNL     1      45.057   8.359  12.467  0.00  0.00    +0.000 A 
ATOM      4  C   UNL     1      44.692   7.246  11.713  0.00  0.00    +0.000 A 
ATOM      5  C   UNL     1      45.618   6.231  11.416  0.00  0.00    +0.000 A 
ATOM      6  C   UNL     1      46.917   6.372  11.939  0.00  0.00    +0.000 A 
ENDROOT
BRANCH   5   7
ATOM      7  C   UNL     1      45.269   5.093  10.537  0.00  0.00    +0.000 A 
ATOM      8  C   UNL     1      44.487   4.017  10.991  0.00  0.00    +0.000 A 
ATOM      9  C   UNL     1      44.213   2.920  10.169  0.00  0.00    +0.000 A 
ATOM     10  C   UNL     1      44.688   2.889   8.859  0.00  0.00    +0.000 A 
ATOM     11  C   UNL     1      45.426   3.963   8.370  0.00  0.00    +0.000 A 
ATOM     12  C   UNL     1      45.744   5.029   9.215  0.00  0.00    +0.000 A 
BRANCH  11  13
ATOM     13  O   UNL     1      45.922   4.063   7.099  0.00  0.00    +0.000 OA
BRANCH  13  14
ATOM     14  C   UNL     1      46.555   2.889   6.619  0.00  0.00    +0.000 C 
ATOM     15  F   UNL     1      46.759   3.058   5.287  0.00  0.00    +0.000 F 
ATOM     16  F   UNL     1      47.778   2.794   7.194  0.00  0.00    +0.000 F 
ENDBRANCH  13  14
ENDBRANCH  11  13
ENDBRANCH   5   7
BRANCH   1  17
ATOM     17  C   UNL     1      48.784   7.692  13.075  0.00  0.00    +0.000 C 
ATOM     18  C   UNL     1      49.782   8.224  12.044  0.00  0.00    +0.000 C 
ATOM     19  C   UNL     1      49.310   9.110  13.145  0.00  0.00    +0.000 C 
BRANCH  17  20
ATOM     20  O   UNL     1      49.403   6.648  13.860  0.00  0.00    +0.000 OA
BRANCH  20  25
ATOM     21  C   UNL     1      48.665   7.410  17.309  0.00  0.00    +0.000 A 
ATOM     22  C   UNL     1      48.118   6.203  17.706  0.00  0.00    +0.000 A 
ATOM     23  N   UNL     1      47.966   5.175  16.847  0.00  0.00    +0.000 NA
ATOM     24  N   UNL     1      48.378   5.316  15.549  0.00  0.00    +0.000 NA
ATOM     25  C   UNL     1      48.963   6.465  15.158  0.00  0.00    +0.000 A 
ATOM     26  C   UNL     1      49.120   7.542  16.002  0.00  0.00    +0.000 A 
BRANCH  21  28
ATOM     27  N   UNL     1      48.479   8.207  19.591  0.00  0.00    +0.000 N 
ATOM     28  C   UNL     1      48.748   8.511  18.284  0.00  0.00    +0.000 C 
ATOM     29  O   UNL     1      49.096   9.633  17.946  0.00  0.00    +0.000 OA
ATOM     30  H   UNL     1      48.645   8.942  20.269  0.00  0.00    +0.000 HD
ATOM     31  H   UNL     1      48.445   7.259  19.935  0.00  0.00    +0.000 HD
ENDBRANCH  21  28
ENDBRANCH  20  25
ENDBRANCH  17  20
ENDBRANCH   1  17
TORSDOF 7
ENDMDL
MODEL 7
REMARK VINA RESULT:    -6.978      4.118      7.798
REMARK INTER + INTRA:         -11.144
REMARK INTER:                  -9.900
REMARK INTRA:                  -1.245
REMARK UNBOUND:                -1.310
REMARK  Name = 
REMARK  7 active torsions:
REMARK  status: ('A' for Active; 'I' for Inactive)
REMARK    1  A    between atoms: C_2  and  C_4
REMARK    2  A    between atoms: C_8  and  O_9
REMARK    3  A    between atoms: O_9  and  C_10
REMARK    4  A    between atoms: C_10  and  C_11
REMARK    5  A    between atoms: C_15  and  C_16
REMARK    6  A    between atoms: C_20  and  O_21
REMARK    7  A    between atoms: O_21  and  C_22
REMARK                            x       y       z     vdW  Elec       q    Type
REMARK                         _______ _______ _______ _____ _____    ______ ____
ROOT
ATOM      1  C   UNL     1      48.138   8.231  12.363  0.00  0.00    +0.000 A 
ATOM      2  C   UNL     1      47.255   9.288  12.634  0.00  0.00    +0.000 A 
ATOM      3  C   UNL     1      45.877   9.134  12.506  0.00  0.00    +0.000 A 
ATOM      4  C   UNL     1      45.351   7.916  12.082  0.00  0.00    +0.000 A 
ATOM      5  C   UNL     1      46.186   6.823  11.793  0.00  0.00    +0.000 A 
ATOM      6  C   UNL     1      47.570   7.002  11.979  0.00  0.00    +0.000 A 
ENDROOT
BRANCH   5   7
ATOM      7  C   UNL     1      45.648   5.556  11.251  0.00  0.00    +0.000 A 
ATOM      8  C   UNL     1      45.236   4.505  12.089  0.00  0.00    +0.000 A 
ATOM      9  C   UNL     1      44.785   3.291  11.564  0.00  0.00    +0.000 A 
ATOM     10  C   UNL     1      44.701   3.110  10.185  0.00  0.00    +0.000 A 
ATOM     11  C   UNL     1      45.059   4.151   9.333  0.00  0.00    +0.000 A 
ATOM     12  C   UNL     1      45.563   5.341   9.863  0.00  0.00    +0.000 A 
BRANCH  11  13
ATOM     13  O   UNL     1      44.995   4.107   7.968  0.00  0.00    +0.000 OA
BRANCH  13  14
ATOM     14  C   UNL     1      46.144   3.561   7.341  0.00  0.00    +0.000 C 
ATOM     15  F   UNL     1      47.147   4.465   7.483  0.00  0.00    +0.000 F 
ATOM     16  F   UNL     1      46.517   2.451   8.022  0.00  0.00    +0.000 F 
ENDBRANCH  13  14
ENDBRANCH  11  13
ENDBRANCH   5   7
BRANCH   1  17
ATOM     17  C   UNL     1      49.645   8.429  12.398  0.00  0.00    +0.000 C 
ATOM     18  C   UNL     1      50.440   8.306  11.096  0.00  0.00    +0.000 C 
ATOM     19  C   UNL     1      50.205   9.649  11.696  0.00  0.00    +0.000 C 
BRANCH  17  20
ATOM     20  O   UNL     1      50.380   7.812  13.479  0.00  0.00    +0.000 OA
BRANCH  20  25
ATOM     21  C   UNL     1      48.764   6.519  16.434  0.00  0.00    +0.000 A 
ATOM     22  C   UNL     1      48.669   7.680  17.179  0.00  0.00    +0.000 A 
ATOM     23  N   UNL     1      49.157   8.854  16.730  0.00  0.00    +0.000 NA
ATOM     24  N   UNL     1      49.748   8.910  15.497  0.00  0.00    +0.000 NA
ATOM     25  C   UNL     1      49.801   7.800  14.734  0.00  0.00    +0.000 A 
ATOM     26  C   UNL     1      49.328   6.580  15.165  0.00  0.00    +0.000 A 
BRANCH  21  28
ATOM     27  N   UNL     1      47.259   5.352  17.935  0.00  0.00    +0.000 N 
ATOM     28  C   UNL     1      48.263   5.259  17.009  0.00  0.00    +0.000 C 
ATOM     29  O   UNL     1      48.689   4.176  16.635  0.00  0.00    +0.000 OA
ATOM     30  H   UNL     1      46.846   4.480  18.243  0.00  0.00    +0.000 HD
ATOM     31  H   UNL     1      46.718   6.194  18.070  0.00  0.00    +0.000 HD
ENDBRANCH  21  28
ENDBRANCH  20  25
ENDBRANCH  17  20
ENDBRANCH   1  17
TORSDOF 7
ENDMDL
MODEL 8
REMARK VINA RESULT:    -6.972      4.688      8.009
REMARK INTER + INTRA:         -11.136
REMARK INTER:                  -9.796
REMARK INTRA:                  -1.340
REMARK UNBOUND:                -1.310
REMARK  Name = 
REMARK  7 active torsions:
REMARK  status: ('A' for Active; 'I' for Inactive)
REMARK    1  A    between atoms: C_2  and  C_4
REMARK    2  A    between atoms: C_8  and  O_9
REMARK    3  A    between atoms: O_9  and  C_10
REMARK    4  A    between atoms: C_10  and  C_11
REMARK    5  A    between atoms: C_15  and  C_16
REMARK    6  A    between atoms: C_20  and  O_21
REMARK    7  A    between atoms: O_21  and  C_22
REMARK                            x       y       z     vdW  Elec       q    Type
REMARK                         _______ _______ _______ _____ _____    ______ ____
ROOT
ATOM      1  C   UNL     1      48.742   8.052  13.896  0.00  0.00    +0.000 A 
ATOM      2  C   UNL     1      49.631   8.272  12.832  0.00  0.00    +0.000 A 
ATOM      3  C   UNL     1      49.337   7.845  11.540  0.00  0.00    +0.000 A 
ATOM      4  C   UNL     1      48.147   7.165  11.287  0.00  0.00    +0.000 A 
ATOM      5  C   UNL     1      47.221   6.912  12.314  0.00  0.00    +0.000 A 
ATOM      6  C   UNL     1      47.531   7.401  13.597  0.00  0.00    +0.000 A 
ENDROOT
BRANCH   5   7
ATOM      7  C   UNL     1      46.001   6.109  12.079  0.00  0.00    +0.000 A 
ATOM      8  C   UNL     1      45.156   5.717  13.132  0.00  0.00    +0.000 A 
ATOM      9  C   UNL     1      44.038   4.910  12.904  0.00  0.00    +0.000 A 
ATOM     10  C   UNL     1      43.717   4.502  11.611  0.00  0.00    +0.000 A 
ATOM     11  C   UNL     1      44.511   4.914  10.544  0.00  0.00    +0.000 A 
ATOM     12  C   UNL     1      45.659   5.674  10.786  0.00  0.00    +0.000 A 
BRANCH  11  13
ATOM     13  O   UNL     1      44.287   4.606   9.231  0.00  0.00    +0.000 OA
BRANCH  13  14
ATOM     14  C   UNL     1      45.036   3.502   8.749  0.00  0.00    +0.000 C 
ATOM     15  F   UNL     1      44.205   2.429   8.732  0.00  0.00    +0.000 F 
ATOM     16  F   UNL     1      45.384   3.749   7.463  0.00  0.00    +0.000 F 
ENDBRANCH  13  14
ENDBRANCH  11  13
ENDBRANCH   5   7
BRANCH   1  17
ATOM     17  C   UNL     1      49.110   8.421  15.324  0.00  0.00    +0.000 C 
ATOM     18  C   UNL     1      49.446   9.879  15.651  0.00  0.00    +0.000 C 
ATOM     19  C   UNL     1      48.144   9.303  16.087  0.00  0.00    +0.000 C 
BRANCH  17  20
ATOM     20  O   UNL     1      50.009   7.542  16.037  0.00  0.00    +0.000 OA
BRANCH  20  25
ATOM     21  C   UNL     1      48.070   4.739  17.221  0.00  0.00    +0.000 A 
ATOM     22  C   UNL     1      48.357   4.807  18.572  0.00  0.00    +0.000 A 
ATOM     23  N   UNL     1      49.197   5.735  19.074  0.00  0.00    +0.000 NA
ATOM     24  N   UNL     1      49.771   6.649  18.233  0.00  0.00    +0.000 NA
ATOM     25  C   UNL     1      49.460   6.633  16.922  0.00  0.00    +0.000 A 
ATOM     26  C   UNL     1      48.621   5.690  16.370  0.00  0.00    +0.000 A 
BRANCH  21  28
ATOM     27  N   UNL     1      47.122   3.482  15.376  0.00  0.00    +0.000 N 
ATOM     28  C   UNL     1      47.191   3.664  16.731  0.00  0.00    +0.000 C 
ATOM     29  O   UNL     1      46.591   2.933  17.506  0.00  0.00    +0.000 OA
ATOM     30  H   UNL     1      46.603   2.673  15.055  0.00  0.00    +0.000 HD
ATOM     31  H   UNL     1      47.790   3.888  14.737  0.00  0.00    +0.000 HD
ENDBRANCH  21  28
ENDBRANCH  20  25
ENDBRANCH  17  20
ENDBRANCH   1  17
TORSDOF 7
ENDMDL
MODEL 9
REMARK VINA RESULT:    -6.570      4.652      6.657
REMARK INTER + INTRA:         -10.568
REMARK INTER:                  -9.345
REMARK INTRA:                  -1.223
REMARK UNBOUND:                -1.310
REMARK  Name = 
REMARK  7 active torsions:
REMARK  status: ('A' for Active; 'I' for Inactive)
REMARK    1  A    between atoms: C_2  and  C_4
REMARK    2  A    between atoms: C_8  and  O_9
REMARK    3  A    between atoms: O_9  and  C_10
REMARK    4  A    between atoms: C_10  and  C_11
REMARK    5  A    between atoms: C_15  and  C_16
REMARK    6  A    between atoms: C_20  and  O_21
REMARK    7  A    between atoms: O_21  and  C_22
REMARK                            x       y       z     vdW  Elec       q    Type
REMARK                         _______ _______ _______ _____ _____    ______ ____
ROOT
ATOM      1  C   UNL     1      48.416   8.163  14.341  0.00  0.00    +0.000 A 
ATOM      2  C   UNL     1      48.459   9.532  14.646  0.00  0.00    +0.000 A 
ATOM      3  C   UNL     1      48.735   9.980  15.936  0.00  0.00    +0.000 A 
ATOM      4  C   UNL     1      48.957   9.059  16.957  0.00  0.00    +0.000 A 
ATOM      5  C   UNL     1      48.923   7.676  16.711  0.00  0.00    +0.000 A 
ATOM      6  C   UNL     1      48.688   7.263  15.387  0.00  0.00    +0.000 A 
ENDROOT
BRANCH   5   7
ATOM      7  C   UNL     1      49.062   6.688  17.804  0.00  0.00    +0.000 A 
ATOM      8  C   UNL     1      49.214   7.082  19.146  0.00  0.00    +0.000 A 
ATOM      9  C   UNL     1      49.402   6.141  20.162  0.00  0.00    +0.000 A 
ATOM     10  C   UNL     1      49.408   4.779  19.866  0.00  0.00    +0.000 A 
ATOM     11  C   UNL     1      49.213   4.361  18.553  0.00  0.00    +0.000 A 
ATOM     12  C   UNL     1      49.083   5.308  17.534  0.00  0.00    +0.000 A 
BRANCH  11  13
ATOM     13  O   UNL     1      49.171   3.058  18.140  0.00  0.00    +0.000 OA
BRANCH  13  14
ATOM     14  C   UNL     1      48.325   2.820  17.027  0.00  0.00    +0.000 C 
ATOM     15  F   UNL     1      48.828   1.749  16.361  0.00  0.00    +0.000 F 
ATOM     16  F   UNL     1      47.103   2.456  17.486  0.00  0.00    +0.000 F 
ENDBRANCH  13  14
ENDBRANCH  11  13
ENDBRANCH   5   7
BRANCH   1  17
ATOM     17  C   UNL     1      48.009   7.673  12.960  0.00  0.00    +0.000 C 
ATOM     18  C   UNL     1      48.653   8.309  11.726  0.00  0.00    +0.000 C 
ATOM     19  C   UNL     1      49.052   6.937  12.145  0.00  0.00    +0.000 C 
BRANCH  17  20
ATOM     20  O   UNL     1      46.603   7.447  12.714  0.00  0.00    +0.000 OA
BRANCH  20  25
ATOM     21  C   UNL     1      45.038   4.455  11.443  0.00  0.00    +0.000 A 
ATOM     22  C   UNL     1      45.254   3.603  12.511  0.00  0.00    +0.000 A 
ATOM     23  N   UNL     1      45.929   3.998  13.610  0.00  0.00    +0.000 NA
ATOM     24  N   UNL     1      46.402   5.280  13.685  0.00  0.00    +0.000 NA
ATOM     25  C   UNL     1      46.153   6.140  12.677  0.00  0.00    +0.000 A 
ATOM     26  C   UNL     1      45.482   5.768  11.533  0.00  0.00    +0.000 A 
BRANCH  21  28
ATOM     27  N   UNL     1      44.387   4.715   9.122  0.00  0.00    +0.000 N 
ATOM     28  C   UNL     1      44.344   3.941  10.250  0.00  0.00    +0.000 C 
ATOM     29  O   UNL     1      43.799   2.847  10.255  0.00  0.00    +0.000 OA
ATOM     30  H   UNL     1      44.003   4.305   8.278  0.00  0.00    +0.000 HD
ATOM     31  H   UNL     1      45.034   5.482   9.011  0.00  0.00    +0.000 HD
ENDBRANCH  21  28
ENDBRANCH  20  25
ENDBRANCH  17  20
ENDBRANCH   1  17
TORSDOF 7
ENDMDL
