MODEL 1
REMARK VINA RESULT:    -9.679      0.000      0.000
REMARK INTER + INTRA:         -14.593
REMARK INTER:                 -13.357
REMARK INTRA:                  -1.237
REMARK UNBOUND:                -1.237
REMARK  Name = 
REMARK  7 active torsions:
REMARK  status: ('A' for Active; 'I' for Inactive)
REMARK    1  A    between atoms: C_2  and  C_20
REMARK    2  A    between atoms: N_3  and  C_4
REMARK    3  A    between atoms: C_4  and  C_5
REMARK    4  A    between atoms: C_7  and  C_8
REMARK    5  A    between atoms: C_8  and  N_9
REMARK    6  A    between atoms: N_9  and  C_10
REMARK    7  A    between atoms: C_13  and  O_14
REMARK                            x       y       z     vdW  Elec       q    Type
REMARK                         _______ _______ _______ _____ _____    ______ ____
ROOT
ATOM      1  C   UNL     1      45.127   6.208  12.286  0.00  0.00    +0.000 A 
ATOM      2  C   UNL     1      45.030   5.813  10.959  0.00  0.00    +0.000 A 
ATOM      3  C   UNL     1      44.061   4.870  10.619  0.00  0.00    +0.000 A 
ATOM      4  C   UNL     1      43.238   4.368  11.615  0.00  0.00    +0.000 A 
ATOM      5  C   UNL     1      43.389   4.835  12.909  0.00  0.00    +0.000 A 
ATOM      6  N   UNL     1      44.315   5.751  13.270  0.00  0.00    +0.000 NA
ENDROOT
BRANCH   1   7
ATOM      7  C   UNL     1      46.172   7.233  12.635  0.00  0.00    +0.000 C 
BRANCH   7  10
ATOM      8  O   UNL     1      48.736   6.262  12.916  0.00  0.00    +0.000 OA
ATOM      9  C   UNL     1      48.086   6.485  13.918  0.00  0.00    +0.000 C 
ATOM     10  N   UNL     1      46.786   6.947  13.901  0.00  0.00    +0.000 N 
ATOM     11  H   UNL     1      46.370   7.343  14.725  0.00  0.00    +0.000 HD
BRANCH   9  12
ATOM     12  C   UNL     1      48.590   6.255  15.265  0.00  0.00    +0.000 A 
ATOM     13  C   UNL     1      49.488   7.095  15.903  0.00  0.00    +0.000 A 
ATOM     14  S   UNL     1      49.830   6.600  17.503  0.00  0.00    +0.000 S 
ATOM     15  C   UNL     1      48.794   5.254  17.364  0.00  0.00    +0.000 A 
ATOM     16  N   UNL     1      48.622   4.373  18.385  0.00  0.00    +0.000 NA
ATOM     17  C   UNL     1      47.820   3.408  18.131  0.00  0.00    +0.000 A 
ATOM     18  N   UNL     1      47.139   3.236  16.944  0.00  0.00    +0.000 N 
ATOM     19  C   UNL     1      47.333   4.049  15.854  0.00  0.00    +0.000 A 
ATOM     20  O   UNL     1      46.841   3.753  14.778  0.00  0.00    +0.000 OA
ATOM     21  C   UNL     1      48.204   5.177  16.119  0.00  0.00    +0.000 A 
ATOM     22  H   UNL     1      46.546   2.430  16.807  0.00  0.00    +0.000 HD
ENDBRANCH   9  12
ENDBRANCH   7  10
ENDBRANCH   1   7
BRANCH   3  23
ATOM     23  C   UNL     1      44.084   4.289   9.243  0.00  0.00    +0.000 C 
BRANCH  23  24
ATOM     24  N   UNL     1      44.151   2.830   9.080  0.00  0.00    +0.000 NA
ATOM     25  H   UNL     1      43.232   2.516   8.755  0.00  0.00    +0.000 HD
BRANCH  24  26
ATOM     26  C   UNL     1      45.153   2.561   8.006  0.00  0.00    +0.000 C 
ATOM     27  C   UNL     1      46.023   3.769   7.545  0.00  0.00    +0.000 C 
ATOM     28  C   UNL     1      46.973   3.341   6.409  0.00  0.00    +0.000 C 
ATOM     29  C   UNL     1      47.846   2.145   6.790  0.00  0.00    +0.000 C 
ATOM     30  C   UNL     1      46.996   0.993   7.290  0.00  0.00    +0.000 C 
ATOM     31  C   UNL     1      46.099   1.428   8.432  0.00  0.00    +0.000 C 
BRANCH  29  32
ATOM     32  O   UNL     1      48.596   1.702   5.663  0.00  0.00    +0.000 OA
ATOM     33  H   UNL     1      48.604   2.415   5.002  0.00  0.00    +0.000 HD
ENDBRANCH  29  32
ENDBRANCH  24  26
ENDBRANCH  23  24
ENDBRANCH   3  23
TORSDOF 7
ENDMDL
MODEL 2
REMARK VINA RESULT:    -9.300      1.888      2.810
REMARK INTER + INTRA:         -14.071
REMARK INTER:                 -13.099
REMARK INTRA:                  -0.972
REMARK UNBOUND:                -1.237
REMARK  Name = 
REMARK  7 active torsions:
REMARK  status: ('A' for Active; 'I' for Inactive)
REMARK    1  A    between atoms: C_2  and  C_20
REMARK    2  A    between atoms: N_3  and  C_4
REMARK    3  A    between atoms: C_4  and  C_5
REMARK    4  A    between atoms: C_7  and  C_8
REMARK    5  A    between atoms: C_8  and  N_9
REMARK    6  A    between atoms: N_9  and  C_10
REMARK    7  A    between atoms: C_13  and  O_14
REMARK                            x       y       z     vdW  Elec       q    Type
REMARK                         _______ _______ _______ _____ _____    ______ ____
ROOT
ATOM      1  C   UNL     1      46.026   4.917  13.109  0.00  0.00    +0.000 A 
ATOM      2  C   UNL     1      45.293   4.305  12.102  0.00  0.00    +0.000 A 
ATOM      3  C   UNL     1      45.297   4.886  10.835  0.00  0.00    +0.000 A 
ATOM      4  C   UNL     1      46.030   6.046  10.633  0.00  0.00    +0.000 A 
ATOM      5  C   UNL     1      46.750   6.577  11.689  0.00  0.00    +0.000 A 
ATOM      6  N   UNL     1      46.770   6.035  12.928  0.00  0.00    +0.000 NA
ENDROOT
BRANCH   1   7
ATOM      7  C   UNL     1      46.018   4.273  14.469  0.00  0.00    +0.000 C 
BRANCH   7  10
ATOM      8  O   UNL     1      46.559   3.329  17.002  0.00  0.00    +0.000 OA
ATOM      9  C   UNL     1      47.357   4.081  16.480  0.00  0.00    +0.000 C 
ATOM     10  N   UNL     1      47.180   4.637  15.230  0.00  0.00    +0.000 N 
ATOM     11  H   UNL     1      47.952   5.052  14.737  0.00  0.00    +0.000 HD
BRANCH   9  12
ATOM     12  C   UNL     1      48.583   4.522  17.131  0.00  0.00    +0.000 A 
ATOM     13  C   UNL     1      48.760   5.792  17.654  0.00  0.00    +0.000 A 
ATOM     14  S   UNL     1      50.276   5.983  18.421  0.00  0.00    +0.000 S 
ATOM     15  C   UNL     1      50.720   4.378  18.058  0.00  0.00    +0.000 A 
ATOM     16  N   UNL     1      51.928   3.870  18.419  0.00  0.00    +0.000 NA
ATOM     17  C   UNL     1      52.123   2.653  18.071  0.00  0.00    +0.000 A 
ATOM     18  N   UNL     1      51.210   1.865  17.402  0.00  0.00    +0.000 N 
ATOM     19  C   UNL     1      50.008   2.348  16.947  0.00  0.00    +0.000 A 
ATOM     20  O   UNL     1      49.315   1.663  16.212  0.00  0.00    +0.000 OA
ATOM     21  C   UNL     1      49.736   3.711  17.358  0.00  0.00    +0.000 A 
ATOM     22  H   UNL     1      51.449   0.921  17.134  0.00  0.00    +0.000 HD
ENDBRANCH   9  12
ENDBRANCH   7  10
ENDBRANCH   1   7
BRANCH   3  23
ATOM     23  C   UNL     1      44.355   4.356   9.804  0.00  0.00    +0.000 C 
BRANCH  23  24
ATOM     24  N   UNL     1      44.349   2.916   9.511  0.00  0.00    +0.000 NA
ATOM     25  H   UNL     1      43.519   2.722   8.944  0.00  0.00    +0.000 HD
BRANCH  24  26
ATOM     26  C   UNL     1      45.564   2.638   8.687  0.00  0.00    +0.000 C 
ATOM     27  C   UNL     1      45.814   1.152   8.293  0.00  0.00    +0.000 C 
ATOM     28  C   UNL     1      47.121   1.026   7.486  0.00  0.00    +0.000 C 
ATOM     29  C   UNL     1      47.145   1.935   6.256  0.00  0.00    +0.000 C 
ATOM     30  C   UNL     1      46.845   3.371   6.641  0.00  0.00    +0.000 C 
ATOM     31  C   UNL     1      45.536   3.476   7.399  0.00  0.00    +0.000 C 
BRANCH  29  32
ATOM     32  O   UNL     1      48.423   1.888   5.631  0.00  0.00    +0.000 OA
ATOM     33  H   UNL     1      48.363   1.301   4.858  0.00  0.00    +0.000 HD
ENDBRANCH  29  32
ENDBRANCH  24  26
ENDBRANCH  23  24
ENDBRANCH   3  23
TORSDOF 7
ENDMDL
MODEL 3
REMARK VINA RESULT:    -8.266      1.939      3.003
REMARK INTER + INTRA:         -12.644
REMARK INTER:                 -11.487
REMARK INTRA:                  -1.157
REMARK UNBOUND:                -1.237
REMARK  Name = 
REMARK  7 active torsions:
REMARK  status: ('A' for Active; 'I' for Inactive)
REMARK    1  A    between atoms: C_2  and  C_20
REMARK    2  A    between atoms: N_3  and  C_4
REMARK    3  A    between atoms: C_4  and  C_5
REMARK    4  A    between atoms: C_7  and  C_8
REMARK    5  A    between atoms: C_8  and  N_9
REMARK    6  A    between atoms: N_9  and  C_10
REMARK    7  A    between atoms: C_13  and  O_14
REMARK                            x       y       z     vdW  Elec       q    Type
REMARK                         _______ _______ _______ _____ _____    ______ ____
ROOT
ATOM      1  C   UNL     1      46.235   4.680  13.321  0.00  0.00    +0.000 A 
ATOM      2  C   UNL     1      45.611   3.900  12.358  0.00  0.00    +0.000 A 
ATOM      3  C   UNL     1      45.036   4.539  11.260  0.00  0.00    +0.000 A 
ATOM      4  C   UNL     1      45.113   5.921  11.176  0.00  0.00    +0.000 A 
ATOM      5  C   UNL     1      45.775   6.619  12.171  0.00  0.00    +0.000 A 
ATOM      6  N   UNL     1      46.345   6.028  13.245  0.00  0.00    +0.000 NA
ENDROOT
BRANCH   1   7
ATOM      7  C   UNL     1      46.858   3.974  14.495  0.00  0.00    +0.000 C 
BRANCH   7  10
ATOM      8  O   UNL     1      48.616   3.424  16.546  0.00  0.00    +0.000 OA
ATOM      9  C   UNL     1      48.078   4.513  16.519  0.00  0.00    +0.000 C 
ATOM     10  N   UNL     1      47.162   4.890  15.559  0.00  0.00    +0.000 N 
ATOM     11  H   UNL     1      46.923   5.857  15.426  0.00  0.00    +0.000 HD
BRANCH   9  12
ATOM     12  C   UNL     1      48.305   5.542  17.524  0.00  0.00    +0.000 A 
ATOM     13  C   UNL     1      47.811   5.474  18.816  0.00  0.00    +0.000 A 
ATOM     14  S   UNL     1      48.310   6.794  19.782  0.00  0.00    +0.000 S 
ATOM     15  C   UNL     1      49.183   7.478  18.487  0.00  0.00    +0.000 A 
ATOM     16  N   UNL     1      49.858   8.650  18.618  0.00  0.00    +0.000 NA
ATOM     17  C   UNL     1      50.460   9.044  17.559  0.00  0.00    +0.000 A 
ATOM     18  N   UNL     1      50.476   8.364  16.359  0.00  0.00    +0.000 N 
ATOM     19  C   UNL     1      49.752   7.217  16.148  0.00  0.00    +0.000 A 
ATOM     20  O   UNL     1      49.661   6.752  15.024  0.00  0.00    +0.000 OA
ATOM     21  C   UNL     1      49.089   6.720  17.338  0.00  0.00    +0.000 A 
ATOM     22  H   UNL     1      50.949   8.755  15.557  0.00  0.00    +0.000 HD
ENDBRANCH   9  12
ENDBRANCH   7  10
ENDBRANCH   1   7
BRANCH   3  23
ATOM     23  C   UNL     1      44.189   3.734  10.330  0.00  0.00    +0.000 C 
BRANCH  23  24
ATOM     24  N   UNL     1      43.973   4.215   8.958  0.00  0.00    +0.000 NA
ATOM     25  H   UNL     1      44.232   5.206   8.936  0.00  0.00    +0.000 HD
BRANCH  24  26
ATOM     26  C   UNL     1      44.913   3.457   8.081  0.00  0.00    +0.000 C 
ATOM     27  C   UNL     1      46.144   4.241   7.535  0.00  0.00    +0.000 C 
ATOM     28  C   UNL     1      46.990   3.337   6.618  0.00  0.00    +0.000 C 
ATOM     29  C   UNL     1      47.423   2.040   7.303  0.00  0.00    +0.000 C 
ATOM     30  C   UNL     1      46.225   1.311   7.881  0.00  0.00    +0.000 C 
ATOM     31  C   UNL     1      45.430   2.207   8.810  0.00  0.00    +0.000 C 
BRANCH  29  32
ATOM     32  O   UNL     1      48.074   1.182   6.373  0.00  0.00    +0.000 OA
ATOM     33  H   UNL     1      47.830   0.264   6.582  0.00  0.00    +0.000 HD
ENDBRANCH  29  32
ENDBRANCH  24  26
ENDBRANCH  23  24
ENDBRANCH   3  23
TORSDOF 7
ENDMDL
MODEL 4
REMARK VINA RESULT:    -7.971      1.788      2.317
REMARK INTER + INTRA:         -12.236
REMARK INTER:                 -11.239
REMARK INTRA:                  -0.997
REMARK UNBOUND:                -1.237
REMARK  Name = 
REMARK  7 active torsions:
REMARK  status: ('A' for Active; 'I' for Inactive)
REMARK    1  A    between atoms: C_2  and  C_20
REMARK    2  A    between atoms: N_3  and  C_4
REMARK    3  A    between atoms: C_4  and  C_5
REMARK    4  A    between atoms: C_7  and  C_8
REMARK    5  A    between atoms: C_8  and  N_9
REMARK    6  A    between atoms: N_9  and  C_10
REMARK    7  A    between atoms: C_13  and  O_14
REMARK                            x       y       z     vdW  Elec       q    Type
REMARK                         _______ _______ _______ _____ _____    ______ ____
ROOT
ATOM      1  C   UNL     1      46.817   6.587  12.795  0.00  0.00    +0.000 A 
ATOM      2  C   UNL     1      46.237   5.528  12.112  0.00  0.00    +0.000 A 
ATOM      3  C   UNL     1      45.047   5.758  11.423  0.00  0.00    +0.000 A 
ATOM      4  C   UNL     1      44.496   7.031  11.447  0.00  0.00    +0.000 A 
ATOM      5  C   UNL     1      45.154   8.034  12.136  0.00  0.00    +0.000 A 
ATOM      6  N   UNL     1      46.311   7.843  12.810  0.00  0.00    +0.000 NA
ENDROOT
BRANCH   1   7
ATOM      7  C   UNL     1      48.106   6.324  13.527  0.00  0.00    +0.000 C 
BRANCH   7  10
ATOM      8  O   UNL     1      50.208   6.739  15.261  0.00  0.00    +0.000 OA
ATOM      9  C   UNL     1      49.078   6.730  15.708  0.00  0.00    +0.000 C 
ATOM     10  N   UNL     1      47.953   6.506  14.943  0.00  0.00    +0.000 N 
ATOM     11  H   UNL     1      47.039   6.740  15.289  0.00  0.00    +0.000 HD
BRANCH   9  12
ATOM     12  C   UNL     1      48.777   6.916  17.122  0.00  0.00    +0.000 A 
ATOM     13  C   UNL     1      48.373   8.123  17.667  0.00  0.00    +0.000 A 
ATOM     14  S   UNL     1      48.020   8.006  19.335  0.00  0.00    +0.000 S 
ATOM     15  C   UNL     1      48.411   6.348  19.355  0.00  0.00    +0.000 A 
ATOM     16  N   UNL     1      48.343   5.609  20.494  0.00  0.00    +0.000 NA
ATOM     17  C   UNL     1      48.673   4.380  20.356  0.00  0.00    +0.000 A 
ATOM     18  N   UNL     1      49.056   3.791  19.169  0.00  0.00    +0.000 N 
ATOM     19  C   UNL     1      49.216   4.505  18.006  0.00  0.00    +0.000 A 
ATOM     20  O   UNL     1      49.722   3.975  17.031  0.00  0.00    +0.000 OA
ATOM     21  C   UNL     1      48.811   5.893  18.115  0.00  0.00    +0.000 A 
ATOM     22  H   UNL     1      49.333   2.820  19.145  0.00  0.00    +0.000 HD
ENDBRANCH   9  12
ENDBRANCH   7  10
ENDBRANCH   1   7
BRANCH   3  23
ATOM     23  C   UNL     1      44.311   4.587  10.860  0.00  0.00    +0.000 C 
BRANCH  23  24
ATOM     24  N   UNL     1      43.733   4.683   9.512  0.00  0.00    +0.000 NA
ATOM     25  H   UNL     1      43.887   5.638   9.179  0.00  0.00    +0.000 HD
BRANCH  24  26
ATOM     26  C   UNL     1      44.505   3.745   8.643  0.00  0.00    +0.000 C 
ATOM     27  C   UNL     1      45.810   4.305   8.000  0.00  0.00    +0.000 C 
ATOM     28  C   UNL     1      46.465   3.237   7.104  0.00  0.00    +0.000 C 
ATOM     29  C   UNL     1      46.734   1.928   7.847  0.00  0.00    +0.000 C 
ATOM     30  C   UNL     1      45.472   1.418   8.517  0.00  0.00    +0.000 C 
ATOM     31  C   UNL     1      44.867   2.472   9.424  0.00  0.00    +0.000 C 
BRANCH  29  32
ATOM     32  O   UNL     1      47.204   0.933   6.943  0.00  0.00    +0.000 OA
ATOM     33  H   UNL     1      47.624   0.224   7.460  0.00  0.00    +0.000 HD
ENDBRANCH  29  32
ENDBRANCH  24  26
ENDBRANCH  23  24
ENDBRANCH   3  23
TORSDOF 7
ENDMDL
MODEL 5
REMARK VINA RESULT:    -7.661      2.550      3.209
REMARK INTER + INTRA:         -11.809
REMARK INTER:                 -10.569
REMARK INTRA:                  -1.240
REMARK UNBOUND:                -1.237
REMARK  Name = 
REMARK  7 active torsions:
REMARK  status: ('A' for Active; 'I' for Inactive)
REMARK    1  A    between atoms: C_2  and  C_20
REMARK    2  A    between atoms: N_3  and  C_4
REMARK    3  A    between atoms: C_4  and  C_5
REMARK    4  A    between atoms: C_7  and  C_8
REMARK    5  A    between atoms: C_8  and  N_9
REMARK    6  A    between atoms: N_9  and  C_10
REMARK    7  A    between atoms: C_13  and  O_14
REMARK                            x       y       z     vdW  Elec       q    Type
REMARK                         _______ _______ _______ _____ _____    ______ ____
ROOT
ATOM      1  C   UNL     1      45.950   6.069  11.844  0.00  0.00    +0.000 A 
ATOM      2  C   UNL     1      45.582   5.150  10.873  0.00  0.00    +0.000 A 
ATOM      3  C   UNL     1      45.001   3.950  11.284  0.00  0.00    +0.000 A 
ATOM      4  C   UNL     1      44.815   3.728  12.640  0.00  0.00    +0.000 A 
ATOM      5  C   UNL     1      45.191   4.711  13.539  0.00  0.00    +0.000 A 
ATOM      6  N   UNL     1      45.753   5.885  13.172  0.00  0.00    +0.000 NA
ENDROOT
BRANCH   1   7
ATOM      7  C   UNL     1      46.568   7.362  11.384  0.00  0.00    +0.000 C 
BRANCH   7  10
ATOM      8  O   UNL     1      47.789   9.726  12.105  0.00  0.00    +0.000 OA
ATOM      9  C   UNL     1      48.436   8.699  12.154  0.00  0.00    +0.000 C 
ATOM     10  N   UNL     1      47.941   7.464  11.792  0.00  0.00    +0.000 N 
ATOM     11  H   UNL     1      48.411   6.619  12.067  0.00  0.00    +0.000 HD
BRANCH   9  12
ATOM     12  C   UNL     1      49.834   8.654  12.563  0.00  0.00    +0.000 A 
ATOM     13  C   UNL     1      50.868   9.200  11.822  0.00  0.00    +0.000 A 
ATOM     14  S   UNL     1      52.383   9.056  12.601  0.00  0.00    +0.000 S 
ATOM     15  C   UNL     1      51.682   8.255  13.931  0.00  0.00    +0.000 A 
ATOM     16  N   UNL     1      52.427   7.825  14.983  0.00  0.00    +0.000 NA
ATOM     17  C   UNL     1      51.763   7.233  15.905  0.00  0.00    +0.000 A 
ATOM     18  N   UNL     1      50.398   7.039  15.896  0.00  0.00    +0.000 N 
ATOM     19  C   UNL     1      49.607   7.384  14.827  0.00  0.00    +0.000 A 
ATOM     20  O   UNL     1      48.439   7.034  14.796  0.00  0.00    +0.000 OA
ATOM     21  C   UNL     1      50.319   8.093  13.782  0.00  0.00    +0.000 A 
ATOM     22  H   UNL     1      49.948   6.534  16.647  0.00  0.00    +0.000 HD
ENDBRANCH   9  12
ENDBRANCH   7  10
ENDBRANCH   1   7
BRANCH   3  23
ATOM     23  C   UNL     1      44.792   2.875  10.269  0.00  0.00    +0.000 C 
BRANCH  23  24
ATOM     24  N   UNL     1      44.210   3.222   8.965  0.00  0.00    +0.000 NA
ATOM     25  H   UNL     1      44.080   4.237   8.948  0.00  0.00    +0.000 HD
BRANCH  24  26
ATOM     26  C   UNL     1      45.219   2.853   7.929  0.00  0.00    +0.000 C 
ATOM     27  C   UNL     1      46.197   3.979   7.475  0.00  0.00    +0.000 C 
ATOM     28  C   UNL     1      47.143   3.455   6.378  0.00  0.00    +0.000 C 
ATOM     29  C   UNL     1      47.907   2.201   6.807  0.00  0.00    +0.000 C 
ATOM     30  C   UNL     1      46.952   1.130   7.299  0.00  0.00    +0.000 C 
ATOM     31  C   UNL     1      46.058   1.657   8.405  0.00  0.00    +0.000 C 
BRANCH  29  32
ATOM     32  O   UNL     1      48.653   1.678   5.713  0.00  0.00    +0.000 OA
ATOM     33  H   UNL     1      48.676   2.350   5.010  0.00  0.00    +0.000 HD
ENDBRANCH  29  32
ENDBRANCH  24  26
ENDBRANCH  23  24
ENDBRANCH   3  23
TORSDOF 7
ENDMDL
MODEL 6
REMARK VINA RESULT:    -7.472      2.518      3.367
REMARK INTER + INTRA:         -11.549
REMARK INTER:                 -10.423
REMARK INTRA:                  -1.125
REMARK UNBOUND:                -1.237
REMARK  Name = 
REMARK  7 active torsions:
REMARK  status: ('A' for Active; 'I' for Inactive)
REMARK    1  A    between atoms: C_2  and  C_20
REMARK    2  A    between atoms: N_3  and  C_4
REMARK    3  A    between atoms: C_4  and  C_5
REMARK    4  A    between atoms: C_7  and  C_8
REMARK    5  A    between atoms: C_8  and  N_9
REMARK    6  A    between atoms: N_9  and  C_10
REMARK    7  A    between atoms: C_13  and  O_14
REMARK                            x       y       z     vdW  Elec       q    Type
REMARK                         _______ _______ _______ _____ _____    ______ ____
ROOT
ATOM      1  C   UNL     1      47.092   6.882  13.083  0.00  0.00    +0.000 A 
ATOM      2  C   UNL     1      46.558   5.784  12.424  0.00  0.00    +0.000 A 
ATOM      3  C   UNL     1      45.402   5.967  11.665  0.00  0.00    +0.000 A 
ATOM      4  C   UNL     1      44.838   7.232  11.599  0.00  0.00    +0.000 A 
ATOM      5  C   UNL     1      45.452   8.276  12.270  0.00  0.00    +0.000 A 
ATOM      6  N   UNL     1      46.574   8.132  13.010  0.00  0.00    +0.000 NA
ENDROOT
BRANCH   1   7
ATOM      7  C   UNL     1      48.344   6.671  13.891  0.00  0.00    +0.000 C 
BRANCH   7  10
ATOM      8  O   UNL     1      50.273   6.408  15.842  0.00  0.00    +0.000 OA
ATOM      9  C   UNL     1      49.113   6.519  16.184  0.00  0.00    +0.000 C 
ATOM     10  N   UNL     1      48.061   6.630  15.298  0.00  0.00    +0.000 N 
ATOM     11  H   UNL     1      47.161   6.957  15.605  0.00  0.00    +0.000 HD
BRANCH   9  12
ATOM     12  C   UNL     1      48.685   6.509  17.576  0.00  0.00    +0.000 A 
ATOM     13  C   UNL     1      48.725   5.384  18.383  0.00  0.00    +0.000 A 
ATOM     14  S   UNL     1      48.231   5.707  19.987  0.00  0.00    +0.000 S 
ATOM     15  C   UNL     1      47.946   7.347  19.625  0.00  0.00    +0.000 A 
ATOM     16  N   UNL     1      47.485   8.218  20.562  0.00  0.00    +0.000 NA
ATOM     17  C   UNL     1      47.313   9.415  20.142  0.00  0.00    +0.000 A 
ATOM     18  N   UNL     1      47.578   9.850  18.860  0.00  0.00    +0.000 N 
ATOM     19  C   UNL     1      47.971   9.000  17.856  0.00  0.00    +0.000 A 
ATOM     20  O   UNL     1      48.023   9.400  16.704  0.00  0.00    +0.000 OA
ATOM     21  C   UNL     1      48.216   7.644  18.305  0.00  0.00    +0.000 A 
ATOM     22  H   UNL     1      47.386  10.806  18.594  0.00  0.00    +0.000 HD
ENDBRANCH   9  12
ENDBRANCH   7  10
ENDBRANCH   1   7
BRANCH   3  23
ATOM     23  C   UNL     1      44.707   4.761  11.124  0.00  0.00    +0.000 C 
BRANCH  23  24
ATOM     24  N   UNL     1      43.956   4.869   9.866  0.00  0.00    +0.000 NA
ATOM     25  H   UNL     1      44.076   5.824   9.518  0.00  0.00    +0.000 HD
BRANCH  24  26
ATOM     26  C   UNL     1      44.593   3.926   8.899  0.00  0.00    +0.000 C 
ATOM     27  C   UNL     1      45.855   4.446   8.147  0.00  0.00    +0.000 C 
ATOM     28  C   UNL     1      46.367   3.378   7.161  0.00  0.00    +0.000 C 
ATOM     29  C   UNL     1      46.642   2.034   7.837  0.00  0.00    +0.000 C 
ATOM     30  C   UNL     1      45.428   1.562   8.613  0.00  0.00    +0.000 C 
ATOM     31  C   UNL     1      44.966   2.613   9.604  0.00  0.00    +0.000 C 
BRANCH  29  32
ATOM     32  O   UNL     1      46.972   1.049   6.863  0.00  0.00    +0.000 OA
ATOM     33  H   UNL     1      46.587   0.201   7.145  0.00  0.00    +0.000 HD
ENDBRANCH  29  32
ENDBRANCH  24  26
ENDBRANCH  23  24
ENDBRANCH   3  23
TORSDOF 7
ENDMDL
MODEL 7
REMARK VINA RESULT:    -7.235      2.366      2.939
REMARK INTER + INTRA:         -11.221
REMARK INTER:                 -10.130
REMARK INTRA:                  -1.091
REMARK UNBOUND:                -1.237
REMARK  Name = 
REMARK  7 active torsions:
REMARK  status: ('A' for Active; 'I' for Inactive)
REMARK    1  A    between atoms: C_2  and  C_20
REMARK    2  A    between atoms: N_3  and  C_4
REMARK    3  A    between atoms: C_4  and  C_5
REMARK    4  A    between atoms: C_7  and  C_8
REMARK    5  A    between atoms: C_8  and  N_9
REMARK    6  A    between atoms: N_9  and  C_10
REMARK    7  A    between atoms: C_13  and  O_14
REMARK                            x       y       z     vdW  Elec       q    Type
REMARK                         _______ _______ _______ _____ _____    ______ ____
ROOT
ATOM      1  C   UNL     1      47.526   6.344  13.456  0.00  0.00    +0.000 A 
ATOM      2  C   UNL     1      46.763   6.553  12.316  0.00  0.00    +0.000 A 
ATOM      3  C   UNL     1      45.941   5.518  11.871  0.00  0.00    +0.000 A 
ATOM      4  C   UNL     1      45.919   4.328  12.583  0.00  0.00    +0.000 A 
ATOM      5  C   UNL     1      46.696   4.214  13.723  0.00  0.00    +0.000 A 
ATOM      6  N   UNL     1      47.500   5.201  14.182  0.00  0.00    +0.000 NA
ENDROOT
BRANCH   1   7
ATOM      7  C   UNL     1      48.401   7.474  13.928  0.00  0.00    +0.000 C 
BRANCH   7  10
ATOM      8  O   UNL     1      49.174   7.862  16.545  0.00  0.00    +0.000 OA
ATOM      9  C   UNL     1      49.903   7.223  15.812  0.00  0.00    +0.000 C 
ATOM     10  N   UNL     1      49.634   6.988  14.480  0.00  0.00    +0.000 N 
ATOM     11  H   UNL     1      50.123   6.270  13.974  0.00  0.00    +0.000 HD
BRANCH   9  12
ATOM     12  C   UNL     1      51.176   6.661  16.243  0.00  0.00    +0.000 A 
ATOM     13  C   UNL     1      52.397   7.282  16.042  0.00  0.00    +0.000 A 
ATOM     14  S   UNL     1      53.699   6.412  16.728  0.00  0.00    +0.000 S 
ATOM     15  C   UNL     1      52.654   5.191  17.294  0.00  0.00    +0.000 A 
ATOM     16  N   UNL     1      53.118   4.109  17.972  0.00  0.00    +0.000 NA
ATOM     17  C   UNL     1      52.216   3.272  18.327  0.00  0.00    +0.000 A 
ATOM     18  N   UNL     1      50.865   3.416  18.090  0.00  0.00    +0.000 N 
ATOM     19  C   UNL     1      50.350   4.448  17.345  0.00  0.00    +0.000 A 
ATOM     20  O   UNL     1      49.175   4.435  17.017  0.00  0.00    +0.000 OA
ATOM     21  C   UNL     1      51.338   5.437  16.960  0.00  0.00    +0.000 A 
ATOM     22  H   UNL     1      50.217   2.695  18.374  0.00  0.00    +0.000 HD
ENDBRANCH   9  12
ENDBRANCH   7  10
ENDBRANCH   1   7
BRANCH   3  23
ATOM     23  C   UNL     1      45.278   5.657  10.540  0.00  0.00    +0.000 C 
BRANCH  23  24
ATOM     24  N   UNL     1      44.218   4.711  10.164  0.00  0.00    +0.000 NA
ATOM     25  H   UNL     1      43.435   5.258   9.796  0.00  0.00    +0.000 HD
BRANCH  24  26
ATOM     26  C   UNL     1      44.767   3.864   9.062  0.00  0.00    +0.000 C 
ATOM     27  C   UNL     1      45.978   4.446   8.273  0.00  0.00    +0.000 C 
ATOM     28  C   UNL     1      46.397   3.478   7.149  0.00  0.00    +0.000 C 
ATOM     29  C   UNL     1      46.700   2.070   7.665  0.00  0.00    +0.000 C 
ATOM     30  C   UNL     1      45.538   1.534   8.480  0.00  0.00    +0.000 C 
ATOM     31  C   UNL     1      45.169   2.483   9.602  0.00  0.00    +0.000 C 
BRANCH  29  32
ATOM     32  O   UNL     1      46.940   1.185   6.576  0.00  0.00    +0.000 OA
ATOM     33  H   UNL     1      47.825   1.374   6.219  0.00  0.00    +0.000 HD
ENDBRANCH  29  32
ENDBRANCH  24  26
ENDBRANCH  23  24
ENDBRANCH   3  23
TORSDOF 7
ENDMDL
MODEL 8
REMARK VINA RESULT:    -7.227      2.910      8.138
REMARK INTER + INTRA:         -11.210
REMARK INTER:                  -9.933
REMARK INTRA:                  -1.277
REMARK UNBOUND:                -1.237
REMARK  Name = 
REMARK  7 active torsions:
REMARK  status: ('A' for Active; 'I' for Inactive)
REMARK    1  A    between atoms: C_2  and  C_20
REMARK    2  A    between atoms: N_3  and  C_4
REMARK    3  A    between atoms: C_4  and  C_5
REMARK    4  A    between atoms: C_7  and  C_8
REMARK    5  A    between atoms: C_8  and  N_9
REMARK    6  A    between atoms: N_9  and  C_10
REMARK    7  A    between atoms: C_13  and  O_14
REMARK                            x       y       z     vdW  Elec       q    Type
REMARK                         _______ _______ _______ _____ _____    ______ ____
ROOT
ATOM      1  C   UNL     1      48.309   7.886  12.999  0.00  0.00    +0.000 A 
ATOM      2  C   UNL     1      48.007   7.763  14.348  0.00  0.00    +0.000 A 
ATOM      3  C   UNL     1      49.060   7.733  15.261  0.00  0.00    +0.000 A 
ATOM      4  C   UNL     1      50.359   7.829  14.786  0.00  0.00    +0.000 A 
ATOM      5  C   UNL     1      50.568   7.973  13.426  0.00  0.00    +0.000 A 
ATOM      6  N   UNL     1      49.568   8.008  12.516  0.00  0.00    +0.000 NA
ENDROOT
BRANCH   1   7
ATOM      7  C   UNL     1      47.160   7.925  12.027  0.00  0.00    +0.000 C 
BRANCH   7  10
ATOM      8  O   UNL     1      44.488   7.557  11.457  0.00  0.00    +0.000 OA
ATOM      9  C   UNL     1      45.196   6.577  11.585  0.00  0.00    +0.000 C 
ATOM     10  N   UNL     1      46.538   6.637  11.896  0.00  0.00    +0.000 N 
ATOM     11  H   UNL     1      47.135   5.840  11.760  0.00  0.00    +0.000 HD
BRANCH   9  12
ATOM     12  C   UNL     1      44.700   5.212  11.465  0.00  0.00    +0.000 A 
ATOM     13  C   UNL     1      43.999   4.560  12.465  0.00  0.00    +0.000 A 
ATOM     14  S   UNL     1      43.485   2.998  11.998  0.00  0.00    +0.000 S 
ATOM     15  C   UNL     1      44.200   3.167  10.460  0.00  0.00    +0.000 A 
ATOM     16  N   UNL     1      44.150   2.173   9.534  0.00  0.00    +0.000 NA
ATOM     17  C   UNL     1      44.737   2.440   8.428  0.00  0.00    +0.000 A 
ATOM     18  N   UNL     1      45.366   3.632   8.134  0.00  0.00    +0.000 N 
ATOM     19  C   UNL     1      45.513   4.640   9.056  0.00  0.00    +0.000 A 
ATOM     20  O   UNL     1      46.225   5.597   8.804  0.00  0.00    +0.000 OA
ATOM     21  C   UNL     1      44.825   4.387  10.307  0.00  0.00    +0.000 A 
ATOM     22  H   UNL     1      45.835   3.758   7.249  0.00  0.00    +0.000 HD
ENDBRANCH   9  12
ENDBRANCH   7  10
ENDBRANCH   1   7
BRANCH   3  23
ATOM     23  C   UNL     1      48.760   7.397  16.685  0.00  0.00    +0.000 C 
BRANCH  23  24
ATOM     24  N   UNL     1      47.926   6.224  16.984  0.00  0.00    +0.000 NA
ATOM     25  H   UNL     1      47.181   6.190  16.283  0.00  0.00    +0.000 HD
BRANCH  24  26
ATOM     26  C   UNL     1      48.795   5.022  16.816  0.00  0.00    +0.000 C 
ATOM     27  C   UNL     1      50.052   4.936  17.732  0.00  0.00    +0.000 C 
ATOM     28  C   UNL     1      50.864   3.666  17.409  0.00  0.00    +0.000 C 
ATOM     29  C   UNL     1      50.025   2.390  17.501  0.00  0.00    +0.000 C 
ATOM     30  C   UNL     1      48.775   2.504  16.650  0.00  0.00    +0.000 C 
ATOM     31  C   UNL     1      47.973   3.739  17.012  0.00  0.00    +0.000 C 
BRANCH  29  32
ATOM     32  O   UNL     1      50.780   1.268  17.055  0.00  0.00    +0.000 OA
ATOM     33  H   UNL     1      51.057   0.757  17.835  0.00  0.00    +0.000 HD
ENDBRANCH  29  32
ENDBRANCH  24  26
ENDBRANCH  23  24
ENDBRANCH   3  23
TORSDOF 7
ENDMDL
MODEL 9
REMARK VINA RESULT:    -7.025      3.927      9.060
REMARK INTER + INTRA:         -10.931
REMARK INTER:                  -9.625
REMARK INTRA:                  -1.306
REMARK UNBOUND:                -1.237
REMARK  Name = 
REMARK  7 active torsions:
REMARK  status: ('A' for Active; 'I' for Inactive)
REMARK    1  A    between atoms: C_2  and  C_20
REMARK    2  A    between atoms: N_3  and  C_4
REMARK    3  A    between atoms: C_4  and  C_5
REMARK    4  A    between atoms: C_7  and  C_8
REMARK    5  A    between atoms: C_8  and  N_9
REMARK    6  A    between atoms: N_9  and  C_10
REMARK    7  A    between atoms: C_13  and  O_14
REMARK                            x       y       z     vdW  Elec       q    Type
REMARK                         _______ _______ _______ _____ _____    ______ ____
ROOT
ATOM      1  C   UNL     1      48.588   3.419  17.019  0.00  0.00    +0.000 A 
ATOM      2  C   UNL     1      49.081   4.623  17.501  0.00  0.00    +0.000 A 
ATOM      3  C   UNL     1      50.428   4.692  17.855  0.00  0.00    +0.000 A 
ATOM      4  C   UNL     1      51.216   3.560  17.711  0.00  0.00    +0.000 A 
ATOM      5  C   UNL     1      50.647   2.407  17.200  0.00  0.00    +0.000 A 
ATOM      6  N   UNL     1      49.346   2.309  16.844  0.00  0.00    +0.000 NA
ENDROOT
BRANCH   1   7
ATOM      7  C   UNL     1      47.135   3.363  16.633  0.00  0.00    +0.000 C 
BRANCH   7  10
ATOM      8  O   UNL     1      47.206   3.141  13.887  0.00  0.00    +0.000 OA
ATOM      9  C   UNL     1      46.840   4.191  14.375  0.00  0.00    +0.000 C 
ATOM     10  N   UNL     1      46.788   4.427  15.734  0.00  0.00    +0.000 N 
ATOM     11  H   UNL     1      46.264   5.201  16.103  0.00  0.00    +0.000 HD
BRANCH   9  12
ATOM     12  C   UNL     1      46.446   5.348  13.582  0.00  0.00    +0.000 A 
ATOM     13  C   UNL     1      47.258   6.451  13.379  0.00  0.00    +0.000 A 
ATOM     14  S   UNL     1      46.548   7.609  12.341  0.00  0.00    +0.000 S 
ATOM     15  C   UNL     1      45.145   6.660  12.157  0.00  0.00    +0.000 A 
ATOM     16  N   UNL     1      44.098   7.070  11.393  0.00  0.00    +0.000 NA
ATOM     17  C   UNL     1      43.110   6.256  11.355  0.00  0.00    +0.000 A 
ATOM     18  N   UNL     1      43.065   5.037  11.999  0.00  0.00    +0.000 N 
ATOM     19  C   UNL     1      44.059   4.607  12.844  0.00  0.00    +0.000 A 
ATOM     20  O   UNL     1      43.892   3.607  13.522  0.00  0.00    +0.000 OA
ATOM     21  C   UNL     1      45.212   5.486  12.879  0.00  0.00    +0.000 A 
ATOM     22  H   UNL     1      42.235   4.462  11.948  0.00  0.00    +0.000 HD
ENDBRANCH   9  12
ENDBRANCH   7  10
ENDBRANCH   1   7
BRANCH   3  23
ATOM     23  C   UNL     1      50.917   5.913  18.563  0.00  0.00    +0.000 C 
BRANCH  23  24
ATOM     24  N   UNL     1      50.132   6.459  19.678  0.00  0.00    +0.000 NA
ATOM     25  H   UNL     1      50.775   6.614  20.459  0.00  0.00    +0.000 HD
BRANCH  24  26
ATOM     26  C   UNL     1      49.603   7.781  19.226  0.00  0.00    +0.000 C 
ATOM     27  C   UNL     1      50.133   8.315  17.861  0.00  0.00    +0.000 C 
ATOM     28  C   UNL     1      49.530   9.700  17.558  0.00  0.00    +0.000 C 
ATOM     29  C   UNL     1      48.000   9.699  17.595  0.00  0.00    +0.000 C 
ATOM     30  C   UNL     1      47.493   9.126  18.904  0.00  0.00    +0.000 C 
ATOM     31  C   UNL     1      48.069   7.748  19.162  0.00  0.00    +0.000 C 
BRANCH  29  32
ATOM     32  O   UNL     1      47.501  11.025  17.453  0.00  0.00    +0.000 OA
ATOM     33  H   UNL     1      48.121  11.633  17.891  0.00  0.00    +0.000 HD
ENDBRANCH  29  32
ENDBRANCH  24  26
ENDBRANCH  23  24
ENDBRANCH   3  23
TORSDOF 7
ENDMDL
