MODEL 1
REMARK VINA RESULT:    -7.121      0.000      0.000
REMARK INTER + INTRA:          -9.194
REMARK INTER:                  -8.786
REMARK INTRA:                  -0.408
REMARK UNBOUND:                -0.408
REMARK  Name = 
REMARK  5 active torsions:
REMARK  status: ('A' for Active; 'I' for Inactive)
REMARK    1  A    between atoms: C_1  and  C_2
REMARK    2  A    between atoms: C_2  and  C_3
REMARK    3  A    between atoms: C_2  and  C_14
REMARK    4  A    between atoms: C_3  and  N_4
REMARK    5  A    between atoms: C_9  and  C_10
REMARK                            x       y       z     vdW  Elec       q    Type
REMARK                         _______ _______ _______ _____ _____    ______ ____
ROOT
ATOM      1  N   UNL     1      45.673   4.779  10.725  0.00  0.00    +0.000 N 
ATOM      2  C   UNL     1      45.687   5.966  11.434  0.00  0.00    +0.000 A 
ATOM      3  N   UNL     1      46.483   5.987  12.512  0.00  0.00    +0.000 NA
ATOM      4  C   UNL     1      46.518   7.121  13.240  0.00  0.00    +0.000 A 
ATOM      5  C   UNL     1      45.797   8.239  12.925  0.00  0.00    +0.000 A 
ATOM      6  C   UNL     1      45.017   8.116  11.799  0.00  0.00    +0.000 A 
ATOM      7  N   UNL     1      44.939   6.998  11.038  0.00  0.00    +0.000 NA
ATOM      8  H   UNL     1      46.496   4.262  11.023  0.00  0.00    +0.000 HD
ENDROOT
BRANCH   6   9
ATOM      9  C   UNL     1      44.187   9.276  11.347  0.00  0.00    +0.000 C 
ATOM     10  N   UNL     1      43.017   8.954  10.719  0.00  0.00    +0.000 N 
ATOM     11  O   UNL     1      44.526  10.434  11.531  0.00  0.00    +0.000 OA
ATOM     12  H   UNL     1      42.750   7.981  10.616  0.00  0.00    +0.000 HD
ATOM     13  H   UNL     1      42.390   9.691  10.434  0.00  0.00    +0.000 HD
ENDBRANCH   6   9
BRANCH   1  14
ATOM     14  C   UNL     1      45.483   4.869   9.290  0.00  0.00    +0.000 C 
BRANCH  14  16
ATOM     15  C   UNL     1      44.222   2.755   9.911  0.00  0.00    +0.000 C 
ATOM     16  C   UNL     1      44.740   3.625   8.754  0.00  0.00    +0.000 C 
BRANCH  16  17
ATOM     17  C   UNL     1      45.597   2.769   7.772  0.00  0.00    +0.000 C 
ATOM     18  C   UNL     1      46.052   1.423   8.364  0.00  0.00    +0.000 C 
ATOM     19  C   UNL     1      46.949   0.666   7.394  0.00  0.00    +0.000 C 
ATOM     20  O   UNL     1      48.065   1.467   7.012  0.00  0.00    +0.000 OA
ATOM     21  C   UNL     1      47.662   2.647   6.321  0.00  0.00    +0.000 C 
ATOM     22  C   UNL     1      46.817   3.534   7.225  0.00  0.00    +0.000 C 
ENDBRANCH  16  17
ENDBRANCH  14  16
ENDBRANCH   1  14
TORSDOF 4
ENDMDL
MODEL 2
REMARK VINA RESULT:    -6.818      2.132      2.667
REMARK INTER + INTRA:          -8.821
REMARK INTER:                  -8.385
REMARK INTRA:                  -0.436
REMARK UNBOUND:                -0.408
REMARK  Name = 
REMARK  5 active torsions:
REMARK  status: ('A' for Active; 'I' for Inactive)
REMARK    1  A    between atoms: C_1  and  C_2
REMARK    2  A    between atoms: C_2  and  C_3
REMARK    3  A    between atoms: C_2  and  C_14
REMARK    4  A    between atoms: C_3  and  N_4
REMARK    5  A    between atoms: C_9  and  C_10
REMARK                            x       y       z     vdW  Elec       q    Type
REMARK                         _______ _______ _______ _____ _____    ______ ____
ROOT
ATOM      1  N   UNL     1      44.890   4.842  10.894  0.00  0.00    +0.000 N 
ATOM      2  C   UNL     1      45.803   5.235  11.856  0.00  0.00    +0.000 A 
ATOM      3  N   UNL     1      45.623   4.705  13.074  0.00  0.00    +0.000 NA
ATOM      4  C   UNL     1      46.482   5.071  14.047  0.00  0.00    +0.000 A 
ATOM      5  C   UNL     1      47.522   5.935  13.845  0.00  0.00    +0.000 A 
ATOM      6  C   UNL     1      47.623   6.416  12.560  0.00  0.00    +0.000 A 
ATOM      7  N   UNL     1      46.782   6.089  11.551  0.00  0.00    +0.000 NA
ATOM      8  H   UNL     1      44.438   4.007  11.257  0.00  0.00    +0.000 HD
ENDROOT
BRANCH   6   9
ATOM      9  C   UNL     1      48.726   7.365  12.214  0.00  0.00    +0.000 C 
ATOM     10  N   UNL     1      49.911   7.154  12.863  0.00  0.00    +0.000 N 
ATOM     11  O   UNL     1      48.584   8.265  11.402  0.00  0.00    +0.000 OA
ATOM     12  H   UNL     1      50.003   6.374  13.503  0.00  0.00    +0.000 HD
ATOM     13  H   UNL     1      50.707   7.730  12.637  0.00  0.00    +0.000 HD
ENDBRANCH   6   9
BRANCH   1  14
ATOM     14  C   UNL     1      45.372   4.742   9.529  0.00  0.00    +0.000 C 
BRANCH  14  16
ATOM     15  C   UNL     1      44.184   2.516   9.807  0.00  0.00    +0.000 C 
ATOM     16  C   UNL     1      44.715   3.549   8.800  0.00  0.00    +0.000 C 
BRANCH  16  17
ATOM     17  C   UNL     1      45.658   2.863   7.765  0.00  0.00    +0.000 C 
ATOM     18  C   UNL     1      46.203   1.503   8.234  0.00  0.00    +0.000 C 
ATOM     19  C   UNL     1      47.177   0.917   7.221  0.00  0.00    +0.000 C 
ATOM     20  O   UNL     1      48.236   1.834   6.954  0.00  0.00    +0.000 OA
ATOM     21  C   UNL     1      47.759   3.045   6.371  0.00  0.00    +0.000 C 
ATOM     22  C   UNL     1      46.827   3.769   7.333  0.00  0.00    +0.000 C 
ENDBRANCH  16  17
ENDBRANCH  14  16
ENDBRANCH   1  14
TORSDOF 4
ENDMDL
MODEL 3
REMARK VINA RESULT:    -6.707      3.712      5.130
REMARK INTER + INTRA:          -8.684
REMARK INTER:                  -8.334
REMARK INTRA:                  -0.351
REMARK UNBOUND:                -0.408
REMARK  Name = 
REMARK  5 active torsions:
REMARK  status: ('A' for Active; 'I' for Inactive)
REMARK    1  A    between atoms: C_1  and  C_2
REMARK    2  A    between atoms: C_2  and  C_3
REMARK    3  A    between atoms: C_2  and  C_14
REMARK    4  A    between atoms: C_3  and  N_4
REMARK    5  A    between atoms: C_9  and  C_10
REMARK                            x       y       z     vdW  Elec       q    Type
REMARK                         _______ _______ _______ _____ _____    ______ ____
ROOT
ATOM      1  N   UNL     1      46.500   4.863  12.843  0.00  0.00    +0.000 N 
ATOM      2  C   UNL     1      47.131   5.084  14.053  0.00  0.00    +0.000 A 
ATOM      3  N   UNL     1      48.009   6.097  14.070  0.00  0.00    +0.000 NA
ATOM      4  C   UNL     1      48.658   6.340  15.226  0.00  0.00    +0.000 A 
ATOM      5  C   UNL     1      48.454   5.618  16.369  0.00  0.00    +0.000 A 
ATOM      6  C   UNL     1      47.531   4.607  16.247  0.00  0.00    +0.000 A 
ATOM      7  N   UNL     1      46.859   4.315  15.108  0.00  0.00    +0.000 NA
ATOM      8  H   UNL     1      46.636   5.708  12.294  0.00  0.00    +0.000 HD
ENDROOT
BRANCH   6   9
ATOM      9  C   UNL     1      47.216   3.750  17.433  0.00  0.00    +0.000 C 
ATOM     10  N   UNL     1      47.900   4.052  18.577  0.00  0.00    +0.000 N 
ATOM     11  O   UNL     1      46.399   2.844  17.387  0.00  0.00    +0.000 OA
ATOM     12  H   UNL     1      48.544   4.835  18.587  0.00  0.00    +0.000 HD
ATOM     13  H   UNL     1      47.697   3.543  19.422  0.00  0.00    +0.000 HD
ENDBRANCH   6   9
BRANCH   1  14
ATOM     14  C   UNL     1      45.137   4.368  12.890  0.00  0.00    +0.000 C 
BRANCH  14  16
ATOM     15  C   UNL     1      42.816   5.195  12.275  0.00  0.00    +0.000 C 
ATOM     16  C   UNL     1      44.270   5.036  11.799  0.00  0.00    +0.000 C 
BRANCH  16  17
ATOM     17  C   UNL     1      44.315   4.289  10.431  0.00  0.00    +0.000 C 
ATOM     18  C   UNL     1      44.478   2.765  10.567  0.00  0.00    +0.000 C 
ATOM     19  C   UNL     1      44.594   2.097   9.203  0.00  0.00    +0.000 C 
ATOM     20  O   UNL     1      45.667   2.666   8.455  0.00  0.00    +0.000 OA
ATOM     21  C   UNL     1      45.453   4.050   8.187  0.00  0.00    +0.000 C 
ATOM     22  C   UNL     1      45.398   4.843   9.486  0.00  0.00    +0.000 C 
ENDBRANCH  16  17
ENDBRANCH  14  16
ENDBRANCH   1  14
TORSDOF 4
ENDMDL
MODEL 4
REMARK VINA RESULT:    -6.551      5.012      7.121
REMARK INTER + INTRA:          -8.491
REMARK INTER:                  -8.111
REMARK INTRA:                  -0.380
REMARK UNBOUND:                -0.408
REMARK  Name = 
REMARK  5 active torsions:
REMARK  status: ('A' for Active; 'I' for Inactive)
REMARK    1  A    between atoms: C_1  and  C_2
REMARK    2  A    between atoms: C_2  and  C_3
REMARK    3  A    between atoms: C_2  and  C_14
REMARK    4  A    between atoms: C_3  and  N_4
REMARK    5  A    between atoms: C_9  and  C_10
REMARK                            x       y       z     vdW  Elec       q    Type
REMARK                         _______ _______ _______ _____ _____    ______ ____
ROOT
ATOM      1  N   UNL     1      46.664   5.031  15.020  0.00  0.00    +0.000 N 
ATOM      2  C   UNL     1      47.346   4.393  16.041  0.00  0.00    +0.000 A 
ATOM      3  N   UNL     1      46.625   3.521  16.760  0.00  0.00    +0.000 NA
ATOM      4  C   UNL     1      47.246   2.885  17.774  0.00  0.00    +0.000 A 
ATOM      5  C   UNL     1      48.563   3.078  18.088  0.00  0.00    +0.000 A 
ATOM      6  C   UNL     1      49.212   3.987  17.286  0.00  0.00    +0.000 A 
ATOM      7  N   UNL     1      48.634   4.659  16.263  0.00  0.00    +0.000 NA
ATOM      8  H   UNL     1      45.822   4.486  14.858  0.00  0.00    +0.000 HD
ENDROOT
BRANCH   6   9
ATOM      9  C   UNL     1      50.660   4.278  17.527  0.00  0.00    +0.000 C 
ATOM     10  N   UNL     1      51.262   3.517  18.491  0.00  0.00    +0.000 N 
ATOM     11  O   UNL     1      51.269   5.132  16.903  0.00  0.00    +0.000 OA
ATOM     12  H   UNL     1      50.734   2.792  18.964  0.00  0.00    +0.000 HD
ATOM     13  H   UNL     1      52.248   3.632  18.666  0.00  0.00    +0.000 HD
ENDBRANCH   6   9
BRANCH   1  14
ATOM     14  C   UNL     1      47.423   5.369  13.831  0.00  0.00    +0.000 C 
BRANCH  14  16
ATOM     15  C   UNL     1      46.260   7.286  12.638  0.00  0.00    +0.000 C 
ATOM     16  C   UNL     1      46.481   5.764  12.671  0.00  0.00    +0.000 C 
BRANCH  16  17
ATOM     17  C   UNL     1      45.112   5.017  12.706  0.00  0.00    +0.000 C 
ATOM     18  C   UNL     1      45.174   3.589  12.137  0.00  0.00    +0.000 C 
ATOM     19  C   UNL     1      43.797   2.938  12.123  0.00  0.00    +0.000 C 
ATOM     20  O   UNL     1      42.868   3.743  11.400  0.00  0.00    +0.000 OA
ATOM     21  C   UNL     1      42.683   5.019  12.008  0.00  0.00    +0.000 C 
ATOM     22  C   UNL     1      43.987   5.805  12.008  0.00  0.00    +0.000 C 
ENDBRANCH  16  17
ENDBRANCH  14  16
ENDBRANCH   1  14
TORSDOF 4
ENDMDL
MODEL 5
REMARK VINA RESULT:    -6.332      4.850      6.640
REMARK INTER + INTRA:          -8.222
REMARK INTER:                  -7.857
REMARK INTRA:                  -0.365
REMARK UNBOUND:                -0.408
REMARK  Name = 
REMARK  5 active torsions:
REMARK  status: ('A' for Active; 'I' for Inactive)
REMARK    1  A    between atoms: C_1  and  C_2
REMARK    2  A    between atoms: C_2  and  C_3
REMARK    3  A    between atoms: C_2  and  C_14
REMARK    4  A    between atoms: C_3  and  N_4
REMARK    5  A    between atoms: C_9  and  C_10
REMARK                            x       y       z     vdW  Elec       q    Type
REMARK                         _______ _______ _______ _____ _____    ______ ____
ROOT
ATOM      1  N   UNL     1      46.786   3.819  14.311  0.00  0.00    +0.000 N 
ATOM      2  C   UNL     1      47.467   3.614  15.497  0.00  0.00    +0.000 A 
ATOM      3  N   UNL     1      48.302   2.565  15.510  0.00  0.00    +0.000 NA
ATOM      4  C   UNL     1      48.977   2.319  16.651  0.00  0.00    +0.000 A 
ATOM      5  C   UNL     1      48.860   3.090  17.775  0.00  0.00    +0.000 A 
ATOM      6  C   UNL     1      47.984   4.143  17.655  0.00  0.00    +0.000 A 
ATOM      7  N   UNL     1      47.275   4.428  16.537  0.00  0.00    +0.000 NA
ATOM      8  H   UNL     1      47.283   3.285  13.603  0.00  0.00    +0.000 HD
ENDROOT
BRANCH   6   9
ATOM      9  C   UNL     1      47.776   5.063  18.816  0.00  0.00    +0.000 C 
ATOM     10  N   UNL     1      46.539   5.640  18.897  0.00  0.00    +0.000 N 
ATOM     11  O   UNL     1      48.647   5.282  19.642  0.00  0.00    +0.000 OA
ATOM     12  H   UNL     1      45.828   5.407  18.213  0.00  0.00    +0.000 HD
ATOM     13  H   UNL     1      46.321   6.232  19.683  0.00  0.00    +0.000 HD
ENDBRANCH   6   9
BRANCH   1  14
ATOM     14  C   UNL     1      46.485   5.192  13.953  0.00  0.00    +0.000 C 
BRANCH  14  16
ATOM     15  C   UNL     1      47.081   6.818  12.095  0.00  0.00    +0.000 C 
ATOM     16  C   UNL     1      46.589   5.398  12.425  0.00  0.00    +0.000 C 
BRANCH  16  17
ATOM     17  C   UNL     1      45.260   5.094  11.668  0.00  0.00    +0.000 C 
ATOM     18  C   UNL     1      43.998   5.373  12.504  0.00  0.00    +0.000 C 
ATOM     19  C   UNL     1      42.735   4.985  11.746  0.00  0.00    +0.000 C 
ATOM     20  O   UNL     1      42.794   3.620  11.337  0.00  0.00    +0.000 OA
ATOM     21  C   UNL     1      43.871   3.380  10.435  0.00  0.00    +0.000 C 
ATOM     22  C   UNL     1      45.207   3.659  11.112  0.00  0.00    +0.000 C 
ENDBRANCH  16  17
ENDBRANCH  14  16
ENDBRANCH   1  14
TORSDOF 4
ENDMDL
MODEL 6
REMARK VINA RESULT:    -5.985      4.409      6.657
REMARK INTER + INTRA:          -7.793
REMARK INTER:                  -7.396
REMARK INTRA:                  -0.397
REMARK UNBOUND:                -0.408
REMARK  Name = 
REMARK  5 active torsions:
REMARK  status: ('A' for Active; 'I' for Inactive)
REMARK    1  A    between atoms: C_1  and  C_2
REMARK    2  A    between atoms: C_2  and  C_3
REMARK    3  A    between atoms: C_2  and  C_14
REMARK    4  A    between atoms: C_3  and  N_4
REMARK    5  A    between atoms: C_9  and  C_10
REMARK                            x       y       z     vdW  Elec       q    Type
REMARK                         _______ _______ _______ _____ _____    ______ ____
ROOT
ATOM      1  N   UNL     1      48.260   6.364  13.931  0.00  0.00    +0.000 N 
ATOM      2  C   UNL     1      48.355   6.146  15.293  0.00  0.00    +0.000 A 
ATOM      3  N   UNL     1      48.805   7.182  16.015  0.00  0.00    +0.000 NA
ATOM      4  C   UNL     1      48.927   7.008  17.346  0.00  0.00    +0.000 A 
ATOM      5  C   UNL     1      48.603   5.844  17.985  0.00  0.00    +0.000 A 
ATOM      6  C   UNL     1      48.146   4.847  17.156  0.00  0.00    +0.000 A 
ATOM      7  N   UNL     1      48.014   4.965  15.813  0.00  0.00    +0.000 NA
ATOM      8  H   UNL     1      48.290   7.372  13.803  0.00  0.00    +0.000 HD
ENDROOT
BRANCH   6   9
ATOM      9  C   UNL     1      47.752   3.526  17.740  0.00  0.00    +0.000 C 
ATOM     10  N   UNL     1      48.630   2.996  18.643  0.00  0.00    +0.000 N 
ATOM     11  O   UNL     1      46.715   2.960  17.436  0.00  0.00    +0.000 OA
ATOM     12  H   UNL     1      49.465   3.512  18.898  0.00  0.00    +0.000 HD
ATOM     13  H   UNL     1      48.399   2.132  19.108  0.00  0.00    +0.000 HD
ENDBRANCH   6   9
BRANCH   1  14
ATOM     14  C   UNL     1      47.192   5.682  13.226  0.00  0.00    +0.000 C 
BRANCH  14  16
ATOM     15  C   UNL     1      46.465   8.065  12.735  0.00  0.00    +0.000 C 
ATOM     16  C   UNL     1      46.519   6.624  12.202  0.00  0.00    +0.000 C 
BRANCH  16  17
ATOM     17  C   UNL     1      45.097   6.151  11.769  0.00  0.00    +0.000 C 
ATOM     18  C   UNL     1      44.215   5.696  12.945  0.00  0.00    +0.000 C 
ATOM     19  C   UNL     1      42.870   5.172  12.458  0.00  0.00    +0.000 C 
ATOM     20  O   UNL     1      43.053   4.121  11.512  0.00  0.00    +0.000 OA
ATOM     21  C   UNL     1      43.736   4.569  10.344  0.00  0.00    +0.000 C 
ATOM     22  C   UNL     1      45.138   5.048  10.695  0.00  0.00    +0.000 C 
ENDBRANCH  16  17
ENDBRANCH  14  16
ENDBRANCH   1  14
TORSDOF 4
ENDMDL
MODEL 7
REMARK VINA RESULT:    -5.848      2.798      6.420
REMARK INTER + INTRA:          -7.624
REMARK INTER:                  -7.157
REMARK INTRA:                  -0.466
REMARK UNBOUND:                -0.408
REMARK  Name = 
REMARK  5 active torsions:
REMARK  status: ('A' for Active; 'I' for Inactive)
REMARK    1  A    between atoms: C_1  and  C_2
REMARK    2  A    between atoms: C_2  and  C_3
REMARK    3  A    between atoms: C_2  and  C_14
REMARK    4  A    between atoms: C_3  and  N_4
REMARK    5  A    between atoms: C_9  and  C_10
REMARK                            x       y       z     vdW  Elec       q    Type
REMARK                         _______ _______ _______ _____ _____    ______ ____
ROOT
ATOM      1  N   UNL     1      44.994   6.391  13.057  0.00  0.00    +0.000 N 
ATOM      2  C   UNL     1      44.613   5.277  12.331  0.00  0.00    +0.000 A 
ATOM      3  N   UNL     1      43.909   4.359  13.008  0.00  0.00    +0.000 NA
ATOM      4  C   UNL     1      43.529   3.249  12.343  0.00  0.00    +0.000 A 
ATOM      5  C   UNL     1      43.814   3.029  11.024  0.00  0.00    +0.000 A 
ATOM      6  C   UNL     1      44.533   4.033  10.421  0.00  0.00    +0.000 A 
ATOM      7  N   UNL     1      44.948   5.161  11.045  0.00  0.00    +0.000 NA
ATOM      8  H   UNL     1      44.409   6.401  13.888  0.00  0.00    +0.000 HD
ENDROOT
BRANCH   6   9
ATOM      9  C   UNL     1      44.900   3.910   8.975  0.00  0.00    +0.000 C 
ATOM     10  N   UNL     1      44.468   2.772   8.353  0.00  0.00    +0.000 N 
ATOM     11  O   UNL     1      45.536   4.769   8.386  0.00  0.00    +0.000 OA
ATOM     12  H   UNL     1      43.911   2.098   8.865  0.00  0.00    +0.000 HD
ATOM     13  H   UNL     1      44.642   2.653   7.367  0.00  0.00    +0.000 HD
ENDBRANCH   6   9
BRANCH   1  14
ATOM     14  C   UNL     1      45.072   7.650  12.340  0.00  0.00    +0.000 C 
BRANCH  14  16
ATOM     15  C   UNL     1      46.303   9.861  12.133  0.00  0.00    +0.000 C 
ATOM     16  C   UNL     1      46.186   8.548  12.924  0.00  0.00    +0.000 C 
BRANCH  16  17
ATOM     17  C   UNL     1      47.572   7.837  13.007  0.00  0.00    +0.000 C 
ATOM     18  C   UNL     1      48.288   8.038  14.354  0.00  0.00    +0.000 C 
ATOM     19  C   UNL     1      49.666   7.390  14.350  0.00  0.00    +0.000 C 
ATOM     20  O   UNL     1      50.451   7.887  13.269  0.00  0.00    +0.000 OA
ATOM     21  C   UNL     1      49.876   7.571  12.003  0.00  0.00    +0.000 C 
ATOM     22  C   UNL     1      48.514   8.236  11.855  0.00  0.00    +0.000 C 
ENDBRANCH  16  17
ENDBRANCH  14  16
ENDBRANCH   1  14
TORSDOF 4
ENDMDL
MODEL 8
REMARK VINA RESULT:    -5.759      5.085      7.814
REMARK INTER + INTRA:          -7.514
REMARK INTER:                  -7.225
REMARK INTRA:                  -0.289
REMARK UNBOUND:                -0.408
REMARK  Name = 
REMARK  5 active torsions:
REMARK  status: ('A' for Active; 'I' for Inactive)
REMARK    1  A    between atoms: C_1  and  C_2
REMARK    2  A    between atoms: C_2  and  C_3
REMARK    3  A    between atoms: C_2  and  C_14
REMARK    4  A    between atoms: C_3  and  N_4
REMARK    5  A    between atoms: C_9  and  C_10
REMARK                            x       y       z     vdW  Elec       q    Type
REMARK                         _______ _______ _______ _____ _____    ______ ____
ROOT
ATOM      1  N   UNL     1      47.124   3.519  14.391  0.00  0.00    +0.000 N 
ATOM      2  C   UNL     1      46.248   4.024  13.448  0.00  0.00    +0.000 A 
ATOM      3  N   UNL     1      45.625   3.110  12.690  0.00  0.00    +0.000 NA
ATOM      4  C   UNL     1      44.771   3.557  11.748  0.00  0.00    +0.000 A 
ATOM      5  C   UNL     1      44.505   4.883  11.543  0.00  0.00    +0.000 A 
ATOM      6  C   UNL     1      45.190   5.736  12.376  0.00  0.00    +0.000 A 
ATOM      7  N   UNL     1      46.065   5.340  13.330  0.00  0.00    +0.000 NA
ATOM      8  H   UNL     1      46.894   2.535  14.493  0.00  0.00    +0.000 HD
ENDROOT
BRANCH   6   9
ATOM      9  C   UNL     1      44.977   7.213  12.253  0.00  0.00    +0.000 C 
ATOM     10  N   UNL     1      44.043   7.599  11.333  0.00  0.00    +0.000 N 
ATOM     11  O   UNL     1      45.591   8.021  12.932  0.00  0.00    +0.000 OA
ATOM     12  H   UNL     1      43.527   6.898  10.813  0.00  0.00    +0.000 HD
ATOM     13  H   UNL     1      43.819   8.577  11.237  0.00  0.00    +0.000 HD
ENDBRANCH   6   9
BRANCH   1  14
ATOM     14  C   UNL     1      47.254   4.257  15.633  0.00  0.00    +0.000 C 
BRANCH  14  16
ATOM     15  C   UNL     1      47.160   2.797  17.708  0.00  0.00    +0.000 C 
ATOM     16  C   UNL     1      48.078   3.457  16.666  0.00  0.00    +0.000 C 
BRANCH  16  17
ATOM     17  C   UNL     1      49.176   4.309  17.373  0.00  0.00    +0.000 C 
ATOM     18  C   UNL     1      50.477   3.534  17.646  0.00  0.00    +0.000 C 
ATOM     19  C   UNL     1      51.482   4.389  18.406  0.00  0.00    +0.000 C 
ATOM     20  O   UNL     1      50.910   4.881  19.616  0.00  0.00    +0.000 OA
ATOM     21  C   UNL     1      49.793   5.731  19.369  0.00  0.00    +0.000 C 
ATOM     22  C   UNL     1      48.677   4.960  18.677  0.00  0.00    +0.000 C 
ENDBRANCH  16  17
ENDBRANCH  14  16
ENDBRANCH   1  14
TORSDOF 4
ENDMDL
MODEL 9
REMARK VINA RESULT:    -5.700      3.256      6.617
REMARK INTER + INTRA:          -7.441
REMARK INTER:                  -7.122
REMARK INTRA:                  -0.319
REMARK UNBOUND:                -0.408
REMARK  Name = 
REMARK  5 active torsions:
REMARK  status: ('A' for Active; 'I' for Inactive)
REMARK    1  A    between atoms: C_1  and  C_2
REMARK    2  A    between atoms: C_2  and  C_3
REMARK    3  A    between atoms: C_2  and  C_14
REMARK    4  A    between atoms: C_3  and  N_4
REMARK    5  A    between atoms: C_9  and  C_10
REMARK                            x       y       z     vdW  Elec       q    Type
REMARK                         _______ _______ _______ _____ _____    ______ ____
ROOT
ATOM      1  N   UNL     1      46.244   6.186  13.253  0.00  0.00    +0.000 N 
ATOM      2  C   UNL     1      45.159   5.568  12.659  0.00  0.00    +0.000 A 
ATOM      3  N   UNL     1      43.988   5.719  13.293  0.00  0.00    +0.000 NA
ATOM      4  C   UNL     1      42.906   5.122  12.756  0.00  0.00    +0.000 A 
ATOM      5  C   UNL     1      42.947   4.390  11.601  0.00  0.00    +0.000 A 
ATOM      6  C   UNL     1      44.193   4.302  11.026  0.00  0.00    +0.000 A 
ATOM      7  N   UNL     1      45.312   4.874  11.530  0.00  0.00    +0.000 NA
ATOM      8  H   UNL     1      45.860   6.865  13.906  0.00  0.00    +0.000 HD
ENDROOT
BRANCH   6   9
ATOM      9  C   UNL     1      44.364   3.533   9.754  0.00  0.00    +0.000 C 
ATOM     10  N   UNL     1      44.209   4.255   8.604  0.00  0.00    +0.000 N 
ATOM     11  O   UNL     1      44.630   2.342   9.740  0.00  0.00    +0.000 OA
ATOM     12  H   UNL     1      44.024   5.251   8.654  0.00  0.00    +0.000 HD
ATOM     13  H   UNL     1      44.359   3.805   7.715  0.00  0.00    +0.000 HD
ENDBRANCH   6   9
BRANCH   1  14
ATOM     14  C   UNL     1      47.281   6.691  12.373  0.00  0.00    +0.000 C 
BRANCH  14  16
ATOM     15  C   UNL     1      46.326   9.021  12.695  0.00  0.00    +0.000 C 
ATOM     16  C   UNL     1      47.605   8.167  12.693  0.00  0.00    +0.000 C 
BRANCH  16  17
ATOM     17  C   UNL     1      48.671   8.786  11.738  0.00  0.00    +0.000 C 
ATOM     18  C   UNL     1      50.102   8.288  12.006  0.00  0.00    +0.000 C 
ATOM     19  C   UNL     1      51.109   8.983  11.099  0.00  0.00    +0.000 C 
ATOM     20  O   UNL     1      51.020  10.399  11.242  0.00  0.00    +0.000 OA
ATOM     21  C   UNL     1      49.743  10.894  10.847  0.00  0.00    +0.000 C 
ATOM     22  C   UNL     1      48.649  10.327  11.742  0.00  0.00    +0.000 C 
ENDBRANCH  16  17
ENDBRANCH  14  16
ENDBRANCH   1  14
TORSDOF 4
ENDMDL
