MODEL 1
REMARK VINA RESULT:    -6.668      0.000      0.000
REMARK INTER + INTRA:          -9.304
REMARK INTER:                  -8.812
REMARK INTRA:                  -0.492
REMARK UNBOUND:                -0.492
REMARK  Name = 
REMARK  6 active torsions:
REMARK  status: ('A' for Active; 'I' for Inactive)
REMARK    1  A    between atoms: O_1  and  C_2
REMARK    2  A    between atoms: C_2  and  C_3
REMARK    3  A    between atoms: C_3  and  C_4
REMARK    4  A    between atoms: C_4  and  C_5
REMARK    5  A    between atoms: N_7  and  C_8
REMARK    6  A    between atoms: C_8  and  C_9
REMARK                            x       y       z     vdW  Elec       q    Type
REMARK                         _______ _______ _______ _____ _____    ______ ____
ROOT
ATOM      1  C   UNL     1      46.013   5.921  11.100  0.00  0.00    +0.000 A 
ATOM      2  C   UNL     1      45.903   5.721   9.740  0.00  0.00    +0.000 A 
ATOM      3  N   UNL     1      45.058   4.661   9.523  0.00  0.00    +0.000 N 
ATOM      4  C   UNL     1      44.564   4.194  10.725  0.00  0.00    +0.000 A 
ATOM      5  C   UNL     1      43.657   3.165  11.013  0.00  0.00    +0.000 A 
ATOM      6  C   UNL     1      43.345   2.909  12.351  0.00  0.00    +0.000 A 
ATOM      7  C   UNL     1      43.925   3.658  13.371  0.00  0.00    +0.000 A 
ATOM      8  C   UNL     1      44.826   4.684  13.076  0.00  0.00    +0.000 A 
ATOM      9  C   UNL     1      45.156   4.965  11.733  0.00  0.00    +0.000 A 
ENDROOT
BRANCH   1  10
ATOM     10  C   UNL     1      46.871   6.955  11.768  0.00  0.00    +0.000 C 
BRANCH  10  11
ATOM     11  C   UNL     1      46.094   7.893  12.687  0.00  0.00    +0.000 C 
BRANCH  11  12
ATOM     12  C   UNL     1      45.530   9.103  11.959  0.00  0.00    +0.000 C 
BRANCH  12  13
ATOM     13  O   UNL     1      44.590   9.750  12.810  0.00  0.00    +0.000 OA
ATOM     14  H   UNL     1      44.748   9.410  13.708  0.00  0.00    +0.000 HD
ENDBRANCH  12  13
ENDBRANCH  11  12
ENDBRANCH  10  11
ENDBRANCH   1  10
BRANCH   3  15
ATOM     15  C   UNL     1      44.783   4.093   8.208  0.00  0.00    +0.000 C 
BRANCH  15  16
ATOM     16  C   UNL     1      45.808   3.063   7.827  0.00  0.00    +0.000 A 
ATOM     17  C   UNL     1      45.717   1.751   8.288  0.00  0.00    +0.000 A 
ATOM     18  N   UNL     1      46.640   0.802   8.002  0.00  0.00    +0.000 NA
ATOM     19  C   UNL     1      47.668   1.214   7.232  0.00  0.00    +0.000 A 
ATOM     20  C   UNL     1      47.757   2.505   6.741  0.00  0.00    +0.000 A 
ATOM     21  N   UNL     1      46.831   3.451   7.019  0.00  0.00    +0.000 NA
ENDBRANCH  15  16
ENDBRANCH   3  15
TORSDOF 6
ENDMDL
MODEL 2
REMARK VINA RESULT:    -6.526      2.598      4.061
REMARK INTER + INTRA:          -9.117
REMARK INTER:                  -8.582
REMARK INTRA:                  -0.535
REMARK UNBOUND:                -0.492
REMARK  Name = 
REMARK  6 active torsions:
REMARK  status: ('A' for Active; 'I' for Inactive)
REMARK    1  A    between atoms: O_1  and  C_2
REMARK    2  A    between atoms: C_2  and  C_3
REMARK    3  A    between atoms: C_3  and  C_4
REMARK    4  A    between atoms: C_4  and  C_5
REMARK    5  A    between atoms: N_7  and  C_8
REMARK    6  A    between atoms: C_8  and  C_9
REMARK                            x       y       z     vdW  Elec       q    Type
REMARK                         _______ _______ _______ _____ _____    ______ ____
ROOT
ATOM      1  C   UNL     1      46.436   5.590  13.356  0.00  0.00    +0.000 A 
ATOM      2  C   UNL     1      45.808   4.640  12.579  0.00  0.00    +0.000 A 
ATOM      3  N   UNL     1      44.967   5.282  11.704  0.00  0.00    +0.000 N 
ATOM      4  C   UNL     1      45.075   6.649  11.857  0.00  0.00    +0.000 A 
ATOM      5  C   UNL     1      44.452   7.706  11.180  0.00  0.00    +0.000 A 
ATOM      6  C   UNL     1      44.757   9.015  11.566  0.00  0.00    +0.000 A 
ATOM      7  C   UNL     1      45.657   9.259  12.600  0.00  0.00    +0.000 A 
ATOM      8  C   UNL     1      46.276   8.200  13.268  0.00  0.00    +0.000 A 
ATOM      9  C   UNL     1      45.987   6.869  12.897  0.00  0.00    +0.000 A 
ENDROOT
BRANCH   1  10
ATOM     10  C   UNL     1      47.407   5.313  14.466  0.00  0.00    +0.000 C 
BRANCH  10  11
ATOM     11  C   UNL     1      47.092   4.044  15.252  0.00  0.00    +0.000 C 
BRANCH  11  12
ATOM     12  C   UNL     1      47.272   4.217  16.753  0.00  0.00    +0.000 C 
BRANCH  12  13
ATOM     13  O   UNL     1      46.555   3.184  17.419  0.00  0.00    +0.000 OA
ATOM     14  H   UNL     1      46.760   3.269  18.367  0.00  0.00    +0.000 HD
ENDBRANCH  12  13
ENDBRANCH  11  12
ENDBRANCH  10  11
ENDBRANCH   1  10
BRANCH   3  15
ATOM     15  C   UNL     1      44.058   4.594  10.794  0.00  0.00    +0.000 C 
BRANCH  15  16
ATOM     16  C   UNL     1      44.804   3.894   9.693  0.00  0.00    +0.000 A 
ATOM     17  C   UNL     1      44.885   2.503   9.649  0.00  0.00    +0.000 A 
ATOM     18  N   UNL     1      45.581   1.834   8.699  0.00  0.00    +0.000 NA
ATOM     19  C   UNL     1      46.199   2.611   7.785  0.00  0.00    +0.000 A 
ATOM     20  C   UNL     1      46.103   3.992   7.798  0.00  0.00    +0.000 A 
ATOM     21  N   UNL     1      45.402   4.660   8.742  0.00  0.00    +0.000 NA
ENDBRANCH  15  16
ENDBRANCH   3  15
TORSDOF 6
ENDMDL
MODEL 3
REMARK VINA RESULT:    -6.499      3.239      5.771
REMARK INTER + INTRA:          -9.081
REMARK INTER:                  -8.577
REMARK INTRA:                  -0.504
REMARK UNBOUND:                -0.492
REMARK  Name = 
REMARK  6 active torsions:
REMARK  status: ('A' for Active; 'I' for Inactive)
REMARK    1  A    between atoms: O_1  and  C_2
REMARK    2  A    between atoms: C_2  and  C_3
REMARK    3  A    between atoms: C_3  and  C_4
REMARK    4  A    between atoms: C_4  and  C_5
REMARK    5  A    between atoms: N_7  and  C_8
REMARK    6  A    between atoms: C_8  and  C_9
REMARK                            x       y       z     vdW  Elec       q    Type
REMARK                         _______ _______ _______ _____ _____    ______ ____
ROOT
ATOM      1  C   UNL     1      45.460   4.236   8.908  0.00  0.00    +0.000 A 
ATOM      2  C   UNL     1      45.958   5.470   9.270  0.00  0.00    +0.000 A 
ATOM      3  N   UNL     1      45.531   5.753  10.544  0.00  0.00    +0.000 N 
ATOM      4  C   UNL     1      44.802   4.695  11.048  0.00  0.00    +0.000 A 
ATOM      5  C   UNL     1      44.196   4.502  12.296  0.00  0.00    +0.000 A 
ATOM      6  C   UNL     1      43.505   3.308  12.523  0.00  0.00    +0.000 A 
ATOM      7  C   UNL     1      43.421   2.337  11.530  0.00  0.00    +0.000 A 
ATOM      8  C   UNL     1      44.031   2.535  10.288  0.00  0.00    +0.000 A 
ATOM      9  C   UNL     1      44.737   3.730  10.034  0.00  0.00    +0.000 A 
ENDROOT
BRANCH   1  10
ATOM     10  C   UNL     1      45.657   3.567   7.579  0.00  0.00    +0.000 C 
BRANCH  10  11
ATOM     11  C   UNL     1      47.120   3.312   7.233  0.00  0.00    +0.000 C 
BRANCH  11  12
ATOM     12  C   UNL     1      47.402   1.858   6.883  0.00  0.00    +0.000 C 
BRANCH  12  13
ATOM     13  O   UNL     1      48.417   1.818   5.887  0.00  0.00    +0.000 OA
ATOM     14  H   UNL     1      49.197   1.406   6.299  0.00  0.00    +0.000 HD
ENDBRANCH  12  13
ENDBRANCH  11  12
ENDBRANCH  10  11
ENDBRANCH   1  10
BRANCH   3  15
ATOM     15  C   UNL     1      45.776   7.021  11.222  0.00  0.00    +0.000 C 
BRANCH  15  16
ATOM     16  C   UNL     1      47.095   7.017  11.941  0.00  0.00    +0.000 A 
ATOM     17  C   UNL     1      47.261   6.324  13.139  0.00  0.00    +0.000 A 
ATOM     18  N   UNL     1      48.420   6.328  13.840  0.00  0.00    +0.000 NA
ATOM     19  C   UNL     1      49.418   7.056  13.297  0.00  0.00    +0.000 A 
ATOM     20  C   UNL     1      49.278   7.724  12.093  0.00  0.00    +0.000 A 
ATOM     21  N   UNL     1      48.124   7.714  11.388  0.00  0.00    +0.000 NA
ENDBRANCH  15  16
ENDBRANCH   3  15
TORSDOF 6
ENDMDL
MODEL 4
REMARK VINA RESULT:    -6.344      3.068      4.891
REMARK INTER + INTRA:          -8.876
REMARK INTER:                  -8.417
REMARK INTRA:                  -0.460
REMARK UNBOUND:                -0.492
REMARK  Name = 
REMARK  6 active torsions:
REMARK  status: ('A' for Active; 'I' for Inactive)
REMARK    1  A    between atoms: O_1  and  C_2
REMARK    2  A    between atoms: C_2  and  C_3
REMARK    3  A    between atoms: C_3  and  C_4
REMARK    4  A    between atoms: C_4  and  C_5
REMARK    5  A    between atoms: N_7  and  C_8
REMARK    6  A    between atoms: C_8  and  C_9
REMARK                            x       y       z     vdW  Elec       q    Type
REMARK                         _______ _______ _______ _____ _____    ______ ____
ROOT
ATOM      1  C   UNL     1      46.907   4.634  14.087  0.00  0.00    +0.000 A 
ATOM      2  C   UNL     1      45.834   4.340  13.272  0.00  0.00    +0.000 A 
ATOM      3  N   UNL     1      45.698   5.351  12.353  0.00  0.00    +0.000 N 
ATOM      4  C   UNL     1      46.703   6.283  12.517  0.00  0.00    +0.000 A 
ATOM      5  C   UNL     1      47.000   7.455  11.810  0.00  0.00    +0.000 A 
ATOM      6  C   UNL     1      48.099   8.218  12.218  0.00  0.00    +0.000 A 
ATOM      7  C   UNL     1      48.876   7.819  13.302  0.00  0.00    +0.000 A 
ATOM      8  C   UNL     1      48.575   6.647  14.001  0.00  0.00    +0.000 A 
ATOM      9  C   UNL     1      47.473   5.858  13.608  0.00  0.00    +0.000 A 
ENDROOT
BRANCH   1  10
ATOM     10  C   UNL     1      47.377   3.809  15.249  0.00  0.00    +0.000 C 
BRANCH  10  11
ATOM     11  C   UNL     1      47.515   4.601  16.545  0.00  0.00    +0.000 C 
BRANCH  11  12
ATOM     12  C   UNL     1      47.559   3.713  17.780  0.00  0.00    +0.000 C 
BRANCH  12  13
ATOM     13  O   UNL     1      46.511   2.756  17.691  0.00  0.00    +0.000 OA
ATOM     14  H   UNL     1      46.244   2.548  18.604  0.00  0.00    +0.000 HD
ENDBRANCH  12  13
ENDBRANCH  11  12
ENDBRANCH  10  11
ENDBRANCH   1  10
BRANCH   3  15
ATOM     15  C   UNL     1      44.605   5.435  11.390  0.00  0.00    +0.000 C 
BRANCH  15  16
ATOM     16  C   UNL     1      44.889   4.621  10.160  0.00  0.00    +0.000 A 
ATOM     17  C   UNL     1      45.691   5.119   9.135  0.00  0.00    +0.000 A 
ATOM     18  N   UNL     1      45.938   4.436   7.992  0.00  0.00    +0.000 NA
ATOM     19  C   UNL     1      45.350   3.224   7.908  0.00  0.00    +0.000 A 
ATOM     20  C   UNL     1      44.576   2.703   8.931  0.00  0.00    +0.000 A 
ATOM     21  N   UNL     1      44.335   3.381  10.076  0.00  0.00    +0.000 NA
ENDBRANCH  15  16
ENDBRANCH   3  15
TORSDOF 6
ENDMDL
MODEL 5
REMARK VINA RESULT:    -6.178      1.597      2.238
REMARK INTER + INTRA:          -8.657
REMARK INTER:                  -8.169
REMARK INTRA:                  -0.487
REMARK UNBOUND:                -0.492
REMARK  Name = 
REMARK  6 active torsions:
REMARK  status: ('A' for Active; 'I' for Inactive)
REMARK    1  A    between atoms: O_1  and  C_2
REMARK    2  A    between atoms: C_2  and  C_3
REMARK    3  A    between atoms: C_3  and  C_4
REMARK    4  A    between atoms: C_4  and  C_5
REMARK    5  A    between atoms: N_7  and  C_8
REMARK    6  A    between atoms: C_8  and  C_9
REMARK                            x       y       z     vdW  Elec       q    Type
REMARK                         _______ _______ _______ _____ _____    ______ ____
ROOT
ATOM      1  C   UNL     1      45.234   7.033  12.285  0.00  0.00    +0.000 A 
ATOM      2  C   UNL     1      44.369   6.579  11.312  0.00  0.00    +0.000 A 
ATOM      3  N   UNL     1      44.463   5.210  11.252  0.00  0.00    +0.000 N 
ATOM      4  C   UNL     1      45.340   4.751  12.215  0.00  0.00    +0.000 A 
ATOM      5  C   UNL     1      45.734   3.452  12.561  0.00  0.00    +0.000 A 
ATOM      6  C   UNL     1      46.662   3.291  13.594  0.00  0.00    +0.000 A 
ATOM      7  C   UNL     1      47.182   4.398  14.260  0.00  0.00    +0.000 A 
ATOM      8  C   UNL     1      46.782   5.690  13.911  0.00  0.00    +0.000 A 
ATOM      9  C   UNL     1      45.844   5.880  12.873  0.00  0.00    +0.000 A 
ENDROOT
BRANCH   1  10
ATOM     10  C   UNL     1      45.470   8.470  12.647  0.00  0.00    +0.000 C 
BRANCH  10  11
ATOM     11  C   UNL     1      45.258   9.436  11.485  0.00  0.00    +0.000 C 
BRANCH  11  12
ATOM     12  C   UNL     1      44.132  10.427  11.736  0.00  0.00    +0.000 C 
BRANCH  12  13
ATOM     13  O   UNL     1      42.900   9.821  11.365  0.00  0.00    +0.000 OA
ATOM     14  H   UNL     1      42.876   9.811  10.391  0.00  0.00    +0.000 HD
ENDBRANCH  12  13
ENDBRANCH  11  12
ENDBRANCH  10  11
ENDBRANCH   1  10
BRANCH   3  15
ATOM     15  C   UNL     1      43.770   4.388  10.267  0.00  0.00    +0.000 C 
BRANCH  15  16
ATOM     16  C   UNL     1      44.731   3.756   9.301  0.00  0.00    +0.000 A 
ATOM     17  C   UNL     1      44.908   2.374   9.261  0.00  0.00    +0.000 A 
ATOM     18  N   UNL     1      45.794   1.767   8.436  0.00  0.00    +0.000 NA
ATOM     19  C   UNL     1      46.504   2.596   7.643  0.00  0.00    +0.000 A 
ATOM     20  C   UNL     1      46.318   3.968   7.650  0.00  0.00    +0.000 A 
ATOM     21  N   UNL     1      45.428   4.575   8.468  0.00  0.00    +0.000 NA
ENDBRANCH  15  16
ENDBRANCH   3  15
TORSDOF 6
ENDMDL
MODEL 6
REMARK VINA RESULT:    -5.323      3.934      6.154
REMARK INTER + INTRA:          -7.526
REMARK INTER:                  -7.054
REMARK INTRA:                  -0.472
REMARK UNBOUND:                -0.492
REMARK  Name = 
REMARK  6 active torsions:
REMARK  status: ('A' for Active; 'I' for Inactive)
REMARK    1  A    between atoms: O_1  and  C_2
REMARK    2  A    between atoms: C_2  and  C_3
REMARK    3  A    between atoms: C_3  and  C_4
REMARK    4  A    between atoms: C_4  and  C_5
REMARK    5  A    between atoms: N_7  and  C_8
REMARK    6  A    between atoms: C_8  and  C_9
REMARK                            x       y       z     vdW  Elec       q    Type
REMARK                         _______ _______ _______ _____ _____    ______ ____
ROOT
ATOM      1  C   UNL     1      46.773   4.720  13.911  0.00  0.00    +0.000 A 
ATOM      2  C   UNL     1      47.159   6.041  13.832  0.00  0.00    +0.000 A 
ATOM      3  N   UNL     1      46.666   6.569  12.664  0.00  0.00    +0.000 N 
ATOM      4  C   UNL     1      45.910   5.626  11.998  0.00  0.00    +0.000 A 
ATOM      5  C   UNL     1      45.187   5.700  10.799  0.00  0.00    +0.000 A 
ATOM      6  C   UNL     1      44.511   4.558  10.359  0.00  0.00    +0.000 A 
ATOM      7  C   UNL     1      44.559   3.377  11.094  0.00  0.00    +0.000 A 
ATOM      8  C   UNL     1      45.279   3.312  12.289  0.00  0.00    +0.000 A 
ATOM      9  C   UNL     1      45.968   4.451  12.758  0.00  0.00    +0.000 A 
ENDROOT
BRANCH   1  10
ATOM     10  C   UNL     1      47.134   3.765  15.009  0.00  0.00    +0.000 C 
BRANCH  10  11
ATOM     11  C   UNL     1      47.616   4.452  16.284  0.00  0.00    +0.000 C 
BRANCH  11  12
ATOM     12  C   UNL     1      47.671   3.512  17.479  0.00  0.00    +0.000 C 
BRANCH  12  13
ATOM     13  O   UNL     1      46.407   2.875  17.616  0.00  0.00    +0.000 OA
ATOM     14  H   UNL     1      46.250   2.770  18.571  0.00  0.00    +0.000 HD
ENDBRANCH  12  13
ENDBRANCH  11  12
ENDBRANCH  10  11
ENDBRANCH   1  10
BRANCH   3  15
ATOM     15  C   UNL     1      46.960   7.917  12.191  0.00  0.00    +0.000 C 
BRANCH  15  16
ATOM     16  C   UNL     1      48.424   8.234  12.301  0.00  0.00    +0.000 A 
ATOM     17  C   UNL     1      49.356   7.639  11.452  0.00  0.00    +0.000 A 
ATOM     18  N   UNL     1      50.688   7.864  11.544  0.00  0.00    +0.000 NA
ATOM     19  C   UNL     1      51.061   8.714  12.524  0.00  0.00    +0.000 A 
ATOM     20  C   UNL     1      50.145   9.336  13.355  0.00  0.00    +0.000 A 
ATOM     21  N   UNL     1      48.814   9.118  13.258  0.00  0.00    +0.000 NA
ENDBRANCH  15  16
ENDBRANCH   3  15
TORSDOF 6
ENDMDL
MODEL 7
REMARK VINA RESULT:    -5.216      4.192      7.179
REMARK INTER + INTRA:          -7.385
REMARK INTER:                  -6.743
REMARK INTRA:                  -0.643
REMARK UNBOUND:                -0.492
REMARK  Name = 
REMARK  6 active torsions:
REMARK  status: ('A' for Active; 'I' for Inactive)
REMARK    1  A    between atoms: O_1  and  C_2
REMARK    2  A    between atoms: C_2  and  C_3
REMARK    3  A    between atoms: C_3  and  C_4
REMARK    4  A    between atoms: C_4  and  C_5
REMARK    5  A    between atoms: N_7  and  C_8
REMARK    6  A    between atoms: C_8  and  C_9
REMARK                            x       y       z     vdW  Elec       q    Type
REMARK                         _______ _______ _______ _____ _____    ______ ____
ROOT
ATOM      1  C   UNL     1      44.985   6.348  12.058  0.00  0.00    +0.000 A 
ATOM      2  C   UNL     1      46.148   5.852  12.607  0.00  0.00    +0.000 A 
ATOM      3  N   UNL     1      47.042   6.885  12.738  0.00  0.00    +0.000 N 
ATOM      4  C   UNL     1      46.462   8.070  12.332  0.00  0.00    +0.000 A 
ATOM      5  C   UNL     1      46.957   9.381  12.310  0.00  0.00    +0.000 A 
ATOM      6  C   UNL     1      46.127  10.397  11.828  0.00  0.00    +0.000 A 
ATOM      7  C   UNL     1      44.841  10.111  11.379  0.00  0.00    +0.000 A 
ATOM      8  C   UNL     1      44.353   8.802  11.407  0.00  0.00    +0.000 A 
ATOM      9  C   UNL     1      45.169   7.757  11.891  0.00  0.00    +0.000 A 
ENDROOT
BRANCH   1  10
ATOM     10  C   UNL     1      43.766   5.545  11.711  0.00  0.00    +0.000 C 
BRANCH  10  11
ATOM     11  C   UNL     1      43.427   4.472  12.742  0.00  0.00    +0.000 C 
BRANCH  11  12
ATOM     12  C   UNL     1      43.576   3.059  12.199  0.00  0.00    +0.000 C 
BRANCH  12  13
ATOM     13  O   UNL     1      44.875   2.580  12.526  0.00  0.00    +0.000 OA
ATOM     14  H   UNL     1      44.840   1.609  12.454  0.00  0.00    +0.000 HD
ENDBRANCH  12  13
ENDBRANCH  11  12
ENDBRANCH  10  11
ENDBRANCH   1  10
BRANCH   3  15
ATOM     15  C   UNL     1      48.419   6.720  13.190  0.00  0.00    +0.000 C 
BRANCH  15  16
ATOM     16  C   UNL     1      48.520   6.777  14.687  0.00  0.00    +0.000 A 
ATOM     17  C   UNL     1      48.699   7.989  15.352  0.00  0.00    +0.000 A 
ATOM     18  N   UNL     1      48.836   8.081  16.696  0.00  0.00    +0.000 NA
ATOM     19  C   UNL     1      48.789   6.908  17.360  0.00  0.00    +0.000 A 
ATOM     20  C   UNL     1      48.582   5.699  16.718  0.00  0.00    +0.000 A 
ATOM     21  N   UNL     1      48.436   5.607  15.376  0.00  0.00    +0.000 NA
ENDBRANCH  15  16
ENDBRANCH   3  15
TORSDOF 6
ENDMDL
MODEL 8
REMARK VINA RESULT:    -5.142      4.654      7.012
REMARK INTER + INTRA:          -7.287
REMARK INTER:                  -7.073
REMARK INTRA:                  -0.214
REMARK UNBOUND:                -0.492
REMARK  Name = 
REMARK  6 active torsions:
REMARK  status: ('A' for Active; 'I' for Inactive)
REMARK    1  A    between atoms: O_1  and  C_2
REMARK    2  A    between atoms: C_2  and  C_3
REMARK    3  A    between atoms: C_3  and  C_4
REMARK    4  A    between atoms: C_4  and  C_5
REMARK    5  A    between atoms: N_7  and  C_8
REMARK    6  A    between atoms: C_8  and  C_9
REMARK                            x       y       z     vdW  Elec       q    Type
REMARK                         _______ _______ _______ _____ _____    ______ ____
ROOT
ATOM      1  C   UNL     1      47.892   4.966  16.299  0.00  0.00    +0.000 A 
ATOM      2  C   UNL     1      47.152   4.765  15.153  0.00  0.00    +0.000 A 
ATOM      3  N   UNL     1      47.481   5.741  14.246  0.00  0.00    +0.000 N 
ATOM      4  C   UNL     1      48.473   6.553  14.760  0.00  0.00    +0.000 A 
ATOM      5  C   UNL     1      49.149   7.648  14.206  0.00  0.00    +0.000 A 
ATOM      6  C   UNL     1      50.119   8.292  14.980  0.00  0.00    +0.000 A 
ATOM      7  C   UNL     1      50.402   7.854  16.271  0.00  0.00    +0.000 A 
ATOM      8  C   UNL     1      49.725   6.760  16.816  0.00  0.00    +0.000 A 
ATOM      9  C   UNL     1      48.743   6.091  16.054  0.00  0.00    +0.000 A 
ENDROOT
BRANCH   1  10
ATOM     10  C   UNL     1      47.809   4.146  17.552  0.00  0.00    +0.000 C 
BRANCH  10  11
ATOM     11  C   UNL     1      48.892   3.076  17.656  0.00  0.00    +0.000 C 
BRANCH  11  12
ATOM     12  C   UNL     1      48.810   2.040  16.546  0.00  0.00    +0.000 C 
BRANCH  12  13
ATOM     13  O   UNL     1      50.129   1.727  16.116  0.00  0.00    +0.000 OA
ATOM     14  H   UNL     1      50.051   1.365  15.215  0.00  0.00    +0.000 HD
ENDBRANCH  12  13
ENDBRANCH  11  12
ENDBRANCH  10  11
ENDBRANCH   1  10
BRANCH   3  15
ATOM     15  C   UNL     1      46.823   5.910  12.955  0.00  0.00    +0.000 C 
BRANCH  15  16
ATOM     16  C   UNL     1      45.540   5.132  12.884  0.00  0.00    +0.000 A 
ATOM     17  C   UNL     1      45.535   3.783  12.534  0.00  0.00    +0.000 A 
ATOM     18  N   UNL     1      44.398   3.055  12.418  0.00  0.00    +0.000 NA
ATOM     19  C   UNL     1      43.256   3.729  12.664  0.00  0.00    +0.000 A 
ATOM     20  C   UNL     1      43.247   5.061  13.042  0.00  0.00    +0.000 A 
ATOM     21  N   UNL     1      44.382   5.787  13.166  0.00  0.00    +0.000 NA
ENDBRANCH  15  16
ENDBRANCH   3  15
TORSDOF 6
ENDMDL
MODEL 9
REMARK VINA RESULT:    -5.042      2.698      4.773
REMARK INTER + INTRA:          -7.155
REMARK INTER:                  -6.686
REMARK INTRA:                  -0.469
REMARK UNBOUND:                -0.492
REMARK  Name = 
REMARK  6 active torsions:
REMARK  status: ('A' for Active; 'I' for Inactive)
REMARK    1  A    between atoms: O_1  and  C_2
REMARK    2  A    between atoms: C_2  and  C_3
REMARK    3  A    between atoms: C_3  and  C_4
REMARK    4  A    between atoms: C_4  and  C_5
REMARK    5  A    between atoms: N_7  and  C_8
REMARK    6  A    between atoms: C_8  and  C_9
REMARK                            x       y       z     vdW  Elec       q    Type
REMARK                         _______ _______ _______ _____ _____    ______ ____
ROOT
ATOM      1  C   UNL     1      46.876   7.359  12.821  0.00  0.00    +0.000 A 
ATOM      2  C   UNL     1      45.965   6.339  12.646  0.00  0.00    +0.000 A 
ATOM      3  N   UNL     1      44.846   6.855  12.041  0.00  0.00    +0.000 N 
ATOM      4  C   UNL     1      45.029   8.195  11.765  0.00  0.00    +0.000 A 
ATOM      5  C   UNL     1      44.198   9.131  11.135  0.00  0.00    +0.000 A 
ATOM      6  C   UNL     1      44.657  10.444  11.001  0.00  0.00    +0.000 A 
ATOM      7  C   UNL     1      45.910  10.811  11.483  0.00  0.00    +0.000 A 
ATOM      8  C   UNL     1      46.735   9.872  12.107  0.00  0.00    +0.000 A 
ATOM      9  C   UNL     1      46.297   8.538  12.254  0.00  0.00    +0.000 A 
ENDROOT
BRANCH   1  10
ATOM     10  C   UNL     1      48.217   7.233  13.482  0.00  0.00    +0.000 C 
BRANCH  10  11
ATOM     11  C   UNL     1      48.293   7.912  14.846  0.00  0.00    +0.000 C 
BRANCH  11  12
ATOM     12  C   UNL     1      49.668   7.797  15.489  0.00  0.00    +0.000 C 
BRANCH  12  13
ATOM     13  O   UNL     1      50.472   6.935  14.693  0.00  0.00    +0.000 OA
ATOM     14  H   UNL     1      50.418   7.266  13.779  0.00  0.00    +0.000 HD
ENDBRANCH  12  13
ENDBRANCH  11  12
ENDBRANCH  10  11
ENDBRANCH   1  10
BRANCH   3  15
ATOM     15  C   UNL     1      43.629   6.091  11.790  0.00  0.00    +0.000 C 
BRANCH  15  16
ATOM     16  C   UNL     1      43.905   4.868  10.962  0.00  0.00    +0.000 A 
ATOM     17  C   UNL     1      43.435   3.615  11.348  0.00  0.00    +0.000 A 
ATOM     18  N   UNL     1      43.696   2.482  10.653  0.00  0.00    +0.000 NA
ATOM     19  C   UNL     1      44.452   2.647   9.547  0.00  0.00    +0.000 A 
ATOM     20  C   UNL     1      44.901   3.890   9.134  0.00  0.00    +0.000 A 
ATOM     21  N   UNL     1      44.633   5.023   9.823  0.00  0.00    +0.000 NA
ENDBRANCH  15  16
ENDBRANCH   3  15
TORSDOF 6
ENDMDL
