MODEL 1
REMARK VINA RESULT:    -7.229      0.000      0.000
REMARK INTER + INTRA:         -10.810
REMARK INTER:                 -10.188
REMARK INTRA:                  -0.623
REMARK UNBOUND:                -0.623
REMARK  Name = 
REMARK  8 active torsions:
REMARK  status: ('A' for Active; 'I' for Inactive)
REMARK    1  A    between atoms: N_1  and  C_2
REMARK    2  A    between atoms: C_2  and  C_3
REMARK    3  A    between atoms: C_9  and  C_10
REMARK    4  A    between atoms: C_10  and  C_11
REMARK    5  A    between atoms: C_11  and  C_12
REMARK    6  A    between atoms: C_12  and  O_13
REMARK    7  A    between atoms: N_15  and  C_16
REMARK    8  A    between atoms: C_16  and  C_17
REMARK                            x       y       z     vdW  Elec       q    Type
REMARK                         _______ _______ _______ _____ _____    ______ ____
ROOT
ATOM      1  C   UNL     1      45.483   7.764  12.481  0.00  0.00    +0.000 A 
ATOM      2  C   UNL     1      44.640   7.422  11.425  0.00  0.00    +0.000 A 
ATOM      3  N   UNL     1      44.368   6.171  10.988  0.00  0.00    +0.000 NA
ATOM      4  C   UNL     1      45.009   5.212  11.688  0.00  0.00    +0.000 A 
ATOM      5  C   UNL     1      45.868   5.399  12.768  0.00  0.00    +0.000 A 
ATOM      6  C   UNL     1      46.112   6.722  13.176  0.00  0.00    +0.000 A 
ATOM      7  C   UNL     1      46.307   4.105  13.195  0.00  0.00    +0.000 A 
ATOM      8  C   UNL     1      45.701   3.183  12.360  0.00  0.00    +0.000 A 
ATOM      9  N   UNL     1      44.944   3.864  11.439  0.00  0.00    +0.000 N 
ENDROOT
BRANCH   1  10
ATOM     10  C   UNL     1      45.692   9.199  12.876  0.00  0.00    +0.000 C 
BRANCH  10  11
ATOM     11  N   UNL     1      44.530  10.022  12.568  0.00  0.00    +0.000 NA
ATOM     12  H   UNL     1      44.740  10.612  11.765  0.00  0.00    +0.000 HD
ATOM     13  H   UNL     1      44.351  10.655  13.347  0.00  0.00    +0.000 HD
ENDBRANCH  10  11
ENDBRANCH   1  10
BRANCH   7  14
ATOM     14  C   UNL     1      47.249   3.807  14.319  0.00  0.00    +0.000 C 
BRANCH  14  15
ATOM     15  C   UNL     1      46.827   4.411  15.658  0.00  0.00    +0.000 C 
BRANCH  15  16
ATOM     16  C   UNL     1      47.452   3.710  16.858  0.00  0.00    +0.000 C 
BRANCH  16  17
ATOM     17  O   UNL     1      46.459   2.949  17.540  0.00  0.00    +0.000 OA
ATOM     18  H   UNL     1      46.406   3.283  18.452  0.00  0.00    +0.000 HD
ENDBRANCH  16  17
ENDBRANCH  15  16
ENDBRANCH  14  15
ENDBRANCH   7  14
BRANCH   9  19
ATOM     19  C   UNL     1      44.183   3.249  10.357  0.00  0.00    +0.000 C 
BRANCH  19  20
ATOM     20  C   UNL     1      45.055   2.966   9.164  0.00  0.00    +0.000 A 
ATOM     21  C   UNL     1      45.471   3.983   8.299  0.00  0.00    +0.000 A 
ATOM     22  C   UNL     1      46.335   3.694   7.249  0.00  0.00    +0.000 A 
ATOM     23  C   UNL     1      46.741   2.382   7.081  0.00  0.00    +0.000 A 
ATOM     24  N   UNL     1      46.333   1.363   7.866  0.00  0.00    +0.000 NA
ATOM     25  C   UNL     1      45.506   1.678   8.890  0.00  0.00    +0.000 A 
ENDBRANCH  19  20
ENDBRANCH   9  19
TORSDOF 8
ENDMDL
MODEL 2
REMARK VINA RESULT:    -6.843      2.573      4.437
REMARK INTER + INTRA:         -10.265
REMARK INTER:                  -9.584
REMARK INTRA:                  -0.681
REMARK UNBOUND:                -0.623
REMARK  Name = 
REMARK  8 active torsions:
REMARK  status: ('A' for Active; 'I' for Inactive)
REMARK    1  A    between atoms: N_1  and  C_2
REMARK    2  A    between atoms: C_2  and  C_3
REMARK    3  A    between atoms: C_9  and  C_10
REMARK    4  A    between atoms: C_10  and  C_11
REMARK    5  A    between atoms: C_11  and  C_12
REMARK    6  A    between atoms: C_12  and  O_13
REMARK    7  A    between atoms: N_15  and  C_16
REMARK    8  A    between atoms: C_16  and  C_17
REMARK                            x       y       z     vdW  Elec       q    Type
REMARK                         _______ _______ _______ _____ _____    ______ ____
ROOT
ATOM      1  C   UNL     1      46.854   4.296  14.345  0.00  0.00    +0.000 A 
ATOM      2  C   UNL     1      46.220   3.276  13.637  0.00  0.00    +0.000 A 
ATOM      3  N   UNL     1      45.564   3.403  12.461  0.00  0.00    +0.000 NA
ATOM      4  C   UNL     1      45.562   4.667  11.988  0.00  0.00    +0.000 A 
ATOM      5  C   UNL     1      46.159   5.780  12.574  0.00  0.00    +0.000 A 
ATOM      6  C   UNL     1      46.827   5.584  13.796  0.00  0.00    +0.000 A 
ATOM      7  C   UNL     1      45.907   6.901  11.720  0.00  0.00    +0.000 A 
ATOM      8  C   UNL     1      45.167   6.428  10.650  0.00  0.00    +0.000 A 
ATOM      9  N   UNL     1      44.942   5.086  10.838  0.00  0.00    +0.000 N 
ENDROOT
BRANCH   1  10
ATOM     10  C   UNL     1      47.563   4.019  15.641  0.00  0.00    +0.000 C 
BRANCH  10  11
ATOM     11  N   UNL     1      48.286   2.755  15.605  0.00  0.00    +0.000 NA
ATOM     12  H   UNL     1      49.242   2.905  15.924  0.00  0.00    +0.000 HD
ATOM     13  H   UNL     1      48.355   2.435  14.640  0.00  0.00    +0.000 HD
ENDBRANCH  10  11
ENDBRANCH   1  10
BRANCH   7  14
ATOM     14  C   UNL     1      46.346   8.313  11.946  0.00  0.00    +0.000 C 
BRANCH  14  15
ATOM     15  C   UNL     1      45.283   9.195  12.599  0.00  0.00    +0.000 C 
BRANCH  15  16
ATOM     16  C   UNL     1      44.508  10.045  11.599  0.00  0.00    +0.000 C 
BRANCH  16  17
ATOM     17  O   UNL     1      43.336  10.567  12.219  0.00  0.00    +0.000 OA
ATOM     18  H   UNL     1      42.772   9.813  12.463  0.00  0.00    +0.000 HD
ENDBRANCH  16  17
ENDBRANCH  15  16
ENDBRANCH  14  15
ENDBRANCH   7  14
BRANCH   9  19
ATOM     19  C   UNL     1      44.162   4.233   9.948  0.00  0.00    +0.000 C 
BRANCH  19  20
ATOM     20  C   UNL     1      45.051   3.439   9.030  0.00  0.00    +0.000 A 
ATOM     21  C   UNL     1      45.807   4.054   8.026  0.00  0.00    +0.000 A 
ATOM     22  C   UNL     1      46.671   3.297   7.244  0.00  0.00    +0.000 A 
ATOM     23  C   UNL     1      46.737   1.934   7.476  0.00  0.00    +0.000 A 
ATOM     24  N   UNL     1      45.997   1.294   8.406  0.00  0.00    +0.000 NA
ATOM     25  C   UNL     1      45.177   2.060   9.163  0.00  0.00    +0.000 A 
ENDBRANCH  19  20
ENDBRANCH   9  19
TORSDOF 8
ENDMDL
MODEL 3
REMARK VINA RESULT:    -6.496      1.555      1.836
REMARK INTER + INTRA:          -9.776
REMARK INTER:                  -9.150
REMARK INTRA:                  -0.626
REMARK UNBOUND:                -0.623
REMARK  Name = 
REMARK  8 active torsions:
REMARK  status: ('A' for Active; 'I' for Inactive)
REMARK    1  A    between atoms: N_1  and  C_2
REMARK    2  A    between atoms: C_2  and  C_3
REMARK    3  A    between atoms: C_9  and  C_10
REMARK    4  A    between atoms: C_10  and  C_11
REMARK    5  A    between atoms: C_11  and  C_12
REMARK    6  A    between atoms: C_12  and  O_13
REMARK    7  A    between atoms: N_15  and  C_16
REMARK    8  A    between atoms: C_16  and  C_17
REMARK                            x       y       z     vdW  Elec       q    Type
REMARK                         _______ _______ _______ _____ _____    ______ ____
ROOT
ATOM      1  C   UNL     1      47.554   7.980  13.028  0.00  0.00    +0.000 A 
ATOM      2  C   UNL     1      46.647   8.057  11.973  0.00  0.00    +0.000 A 
ATOM      3  N   UNL     1      45.856   7.057  11.520  0.00  0.00    +0.000 NA
ATOM      4  C   UNL     1      46.013   5.905  12.202  0.00  0.00    +0.000 A 
ATOM      5  C   UNL     1      46.866   5.681  13.280  0.00  0.00    +0.000 A 
ATOM      6  C   UNL     1      47.663   6.758  13.705  0.00  0.00    +0.000 A 
ATOM      7  C   UNL     1      46.695   4.319  13.686  0.00  0.00    +0.000 A 
ATOM      8  C   UNL     1      45.748   3.767  12.841  0.00  0.00    +0.000 A 
ATOM      9  N   UNL     1      45.366   4.724  11.934  0.00  0.00    +0.000 N 
ENDROOT
BRANCH   1  10
ATOM     10  C   UNL     1      48.368   9.173  13.443  0.00  0.00    +0.000 C 
BRANCH  10  11
ATOM     11  N   UNL     1      47.870   9.769  14.676  0.00  0.00    +0.000 NA
ATOM     12  H   UNL     1      48.652  10.161  15.199  0.00  0.00    +0.000 HD
ATOM     13  H   UNL     1      47.472   9.037  15.265  0.00  0.00    +0.000 HD
ENDBRANCH  10  11
ENDBRANCH   1  10
BRANCH   7  14
ATOM     14  C   UNL     1      47.411   3.622  14.800  0.00  0.00    +0.000 C 
BRANCH  14  15
ATOM     15  C   UNL     1      47.232   4.288  16.164  0.00  0.00    +0.000 C 
BRANCH  15  16
ATOM     16  C   UNL     1      47.591   3.376  17.331  0.00  0.00    +0.000 C 
BRANCH  16  17
ATOM     17  O   UNL     1      46.441   2.641  17.738  0.00  0.00    +0.000 OA
ATOM     18  H   UNL     1      46.744   1.780  18.073  0.00  0.00    +0.000 HD
ENDBRANCH  16  17
ENDBRANCH  15  16
ENDBRANCH  14  15
ENDBRANCH   7  14
BRANCH   9  19
ATOM     19  C   UNL     1      44.413   4.520  10.848  0.00  0.00    +0.000 C 
BRANCH  19  20
ATOM     20  C   UNL     1      45.080   3.925   9.638  0.00  0.00    +0.000 A 
ATOM     21  C   UNL     1      45.073   2.548   9.398  0.00  0.00    +0.000 A 
ATOM     22  C   UNL     1      45.638   2.042   8.233  0.00  0.00    +0.000 A 
ATOM     23  C   UNL     1      46.218   2.934   7.348  0.00  0.00    +0.000 A 
ATOM     24  N   UNL     1      46.283   4.266   7.559  0.00  0.00    +0.000 NA
ATOM     25  C   UNL     1      45.710   4.730   8.694  0.00  0.00    +0.000 A 
ENDBRANCH  19  20
ENDBRANCH   9  19
TORSDOF 8
ENDMDL
MODEL 4
REMARK VINA RESULT:    -6.203      2.624      3.975
REMARK INTER + INTRA:          -9.364
REMARK INTER:                  -8.641
REMARK INTRA:                  -0.723
REMARK UNBOUND:                -0.623
REMARK  Name = 
REMARK  8 active torsions:
REMARK  status: ('A' for Active; 'I' for Inactive)
REMARK    1  A    between atoms: N_1  and  C_2
REMARK    2  A    between atoms: C_2  and  C_3
REMARK    3  A    between atoms: C_9  and  C_10
REMARK    4  A    between atoms: C_10  and  C_11
REMARK    5  A    between atoms: C_11  and  C_12
REMARK    6  A    between atoms: C_12  and  O_13
REMARK    7  A    between atoms: N_15  and  C_16
REMARK    8  A    between atoms: C_16  and  C_17
REMARK                            x       y       z     vdW  Elec       q    Type
REMARK                         _______ _______ _______ _____ _____    ______ ____
ROOT
ATOM      1  C   UNL     1      46.955   4.365  14.575  0.00  0.00    +0.000 A 
ATOM      2  C   UNL     1      46.163   3.450  13.884  0.00  0.00    +0.000 A 
ATOM      3  N   UNL     1      45.548   3.658  12.697  0.00  0.00    +0.000 NA
ATOM      4  C   UNL     1      45.767   4.890  12.193  0.00  0.00    +0.000 A 
ATOM      5  C   UNL     1      46.541   5.900  12.760  0.00  0.00    +0.000 A 
ATOM      6  C   UNL     1      47.154   5.624  13.994  0.00  0.00    +0.000 A 
ATOM      7  C   UNL     1      46.492   7.024  11.876  0.00  0.00    +0.000 A 
ATOM      8  C   UNL     1      45.691   6.658  10.808  0.00  0.00    +0.000 A 
ATOM      9  N   UNL     1      45.238   5.380  11.025  0.00  0.00    +0.000 N 
ENDROOT
BRANCH   1  10
ATOM     10  C   UNL     1      47.595   4.005  15.887  0.00  0.00    +0.000 C 
BRANCH  10  11
ATOM     11  N   UNL     1      47.655   5.144  16.793  0.00  0.00    +0.000 NA
ATOM     12  H   UNL     1      48.390   5.779  16.487  0.00  0.00    +0.000 HD
ATOM     13  H   UNL     1      47.926   4.821  17.721  0.00  0.00    +0.000 HD
ENDBRANCH  10  11
ENDBRANCH   1  10
BRANCH   7  14
ATOM     14  C   UNL     1      47.165   8.346  12.074  0.00  0.00    +0.000 C 
BRANCH  14  15
ATOM     15  C   UNL     1      48.652   8.342  11.722  0.00  0.00    +0.000 C 
BRANCH  15  16
ATOM     16  C   UNL     1      49.557   8.136  12.932  0.00  0.00    +0.000 C 
BRANCH  16  17
ATOM     17  O   UNL     1      50.840   7.692  12.501  0.00  0.00    +0.000 OA
ATOM     18  H   UNL     1      51.398   8.478  12.377  0.00  0.00    +0.000 HD
ENDBRANCH  16  17
ENDBRANCH  15  16
ENDBRANCH  14  15
ENDBRANCH   7  14
BRANCH   9  19
ATOM     19  C   UNL     1      44.331   4.650  10.146  0.00  0.00    +0.000 C 
BRANCH  19  20
ATOM     20  C   UNL     1      45.084   3.740   9.214  0.00  0.00    +0.000 A 
ATOM     21  C   UNL     1      45.813   4.239   8.130  0.00  0.00    +0.000 A 
ATOM     22  C   UNL     1      46.554   3.375   7.333  0.00  0.00    +0.000 A 
ATOM     23  C   UNL     1      46.524   2.024   7.632  0.00  0.00    +0.000 A 
ATOM     24  N   UNL     1      45.802   1.494   8.643  0.00  0.00    +0.000 NA
ATOM     25  C   UNL     1      45.104   2.363   9.411  0.00  0.00    +0.000 A 
ENDBRANCH  19  20
ENDBRANCH   9  19
TORSDOF 8
ENDMDL
MODEL 5
REMARK VINA RESULT:    -6.094      2.949      5.533
REMARK INTER + INTRA:          -9.210
REMARK INTER:                  -8.513
REMARK INTRA:                  -0.697
REMARK UNBOUND:                -0.623
REMARK  Name = 
REMARK  8 active torsions:
REMARK  status: ('A' for Active; 'I' for Inactive)
REMARK    1  A    between atoms: N_1  and  C_2
REMARK    2  A    between atoms: C_2  and  C_3
REMARK    3  A    between atoms: C_9  and  C_10
REMARK    4  A    between atoms: C_10  and  C_11
REMARK    5  A    between atoms: C_11  and  C_12
REMARK    6  A    between atoms: C_12  and  O_13
REMARK    7  A    between atoms: N_15  and  C_16
REMARK    8  A    between atoms: C_16  and  C_17
REMARK                            x       y       z     vdW  Elec       q    Type
REMARK                         _______ _______ _______ _____ _____    ______ ____
ROOT
ATOM      1  C   UNL     1      44.763   4.102  11.324  0.00  0.00    +0.000 A 
ATOM      2  C   UNL     1      44.971   5.347  10.733  0.00  0.00    +0.000 A 
ATOM      3  N   UNL     1      45.760   6.338  11.207  0.00  0.00    +0.000 NA
ATOM      4  C   UNL     1      46.373   6.021  12.366  0.00  0.00    +0.000 A 
ATOM      5  C   UNL     1      46.273   4.820  13.064  0.00  0.00    +0.000 A 
ATOM      6  C   UNL     1      45.437   3.828  12.521  0.00  0.00    +0.000 A 
ATOM      7  C   UNL     1      47.097   4.931  14.228  0.00  0.00    +0.000 A 
ATOM      8  C   UNL     1      47.666   6.193  14.196  0.00  0.00    +0.000 A 
ATOM      9  N   UNL     1      47.199   6.849  13.084  0.00  0.00    +0.000 N 
ENDROOT
BRANCH   1  10
ATOM     10  C   UNL     1      43.866   3.078  10.686  0.00  0.00    +0.000 C 
BRANCH  10  11
ATOM     11  N   UNL     1      43.095   2.339  11.677  0.00  0.00    +0.000 NA
ATOM     12  H   UNL     1      42.478   1.682  11.202  0.00  0.00    +0.000 HD
ATOM     13  H   UNL     1      42.488   2.985  12.181  0.00  0.00    +0.000 HD
ENDBRANCH  10  11
ENDBRANCH   1  10
BRANCH   7  14
ATOM     14  C   UNL     1      47.296   3.890  15.285  0.00  0.00    +0.000 C 
BRANCH  14  15
ATOM     15  C   UNL     1      47.737   4.454  16.634  0.00  0.00    +0.000 C 
BRANCH  15  16
ATOM     16  C   UNL     1      47.684   3.430  17.762  0.00  0.00    +0.000 C 
BRANCH  16  17
ATOM     17  O   UNL     1      46.440   2.736  17.721  0.00  0.00    +0.000 OA
ATOM     18  H   UNL     1      45.885   3.083  18.441  0.00  0.00    +0.000 HD
ENDBRANCH  16  17
ENDBRANCH  15  16
ENDBRANCH  14  15
ENDBRANCH   7  14
BRANCH   9  19
ATOM     19  C   UNL     1      47.532   8.221  12.717  0.00  0.00    +0.000 C 
BRANCH  19  20
ATOM     20  C   UNL     1      49.006   8.378  12.457  0.00  0.00    +0.000 A 
ATOM     21  C   UNL     1      49.652   7.669  11.439  0.00  0.00    +0.000 A 
ATOM     22  C   UNL     1      50.999   7.893  11.183  0.00  0.00    +0.000 A 
ATOM     23  C   UNL     1      51.671   8.809  11.973  0.00  0.00    +0.000 A 
ATOM     24  N   UNL     1      51.097   9.485  12.992  0.00  0.00    +0.000 NA
ATOM     25  C   UNL     1      49.780   9.258  13.206  0.00  0.00    +0.000 A 
ENDBRANCH  19  20
ENDBRANCH   9  19
TORSDOF 8
ENDMDL
MODEL 6
REMARK VINA RESULT:    -5.997      2.947      6.389
REMARK INTER + INTRA:          -9.073
REMARK INTER:                  -8.343
REMARK INTRA:                  -0.731
REMARK UNBOUND:                -0.623
REMARK  Name = 
REMARK  8 active torsions:
REMARK  status: ('A' for Active; 'I' for Inactive)
REMARK    1  A    between atoms: N_1  and  C_2
REMARK    2  A    between atoms: C_2  and  C_3
REMARK    3  A    between atoms: C_9  and  C_10
REMARK    4  A    between atoms: C_10  and  C_11
REMARK    5  A    between atoms: C_11  and  C_12
REMARK    6  A    between atoms: C_12  and  O_13
REMARK    7  A    between atoms: N_15  and  C_16
REMARK    8  A    between atoms: C_16  and  C_17
REMARK                            x       y       z     vdW  Elec       q    Type
REMARK                         _______ _______ _______ _____ _____    ______ ____
ROOT
ATOM      1  C   UNL     1      44.943   4.609  11.245  0.00  0.00    +0.000 A 
ATOM      2  C   UNL     1      44.576   3.885  12.378  0.00  0.00    +0.000 A 
ATOM      3  N   UNL     1      45.163   3.947  13.595  0.00  0.00    +0.000 NA
ATOM      4  C   UNL     1      46.196   4.813  13.644  0.00  0.00    +0.000 A 
ATOM      5  C   UNL     1      46.669   5.609  12.604  0.00  0.00    +0.000 A 
ATOM      6  C   UNL     1      46.017   5.500  11.362  0.00  0.00    +0.000 A 
ATOM      7  C   UNL     1      47.770   6.369  13.112  0.00  0.00    +0.000 A 
ATOM      8  C   UNL     1      47.926   6.005  14.439  0.00  0.00    +0.000 A 
ATOM      9  N   UNL     1      46.990   5.047  14.738  0.00  0.00    +0.000 N 
ENDROOT
BRANCH   1  10
ATOM     10  C   UNL     1      44.197   4.457   9.949  0.00  0.00    +0.000 C 
BRANCH  10  11
ATOM     11  N   UNL     1      45.034   4.779   8.800  0.00  0.00    +0.000 NA
ATOM     12  H   UNL     1      45.877   4.208   8.828  0.00  0.00    +0.000 HD
ATOM     13  H   UNL     1      45.344   5.748   8.872  0.00  0.00    +0.000 HD
ENDBRANCH  10  11
ENDBRANCH   1  10
BRANCH   7  14
ATOM     14  C   UNL     1      48.601   7.355  12.354  0.00  0.00    +0.000 C 
BRANCH  14  15
ATOM     15  C   UNL     1      48.261   8.814  12.655  0.00  0.00    +0.000 C 
BRANCH  15  16
ATOM     16  C   UNL     1      46.842   9.198  12.249  0.00  0.00    +0.000 C 
BRANCH  16  17
ATOM     17  O   UNL     1      46.012   9.257  13.405  0.00  0.00    +0.000 OA
ATOM     18  H   UNL     1      45.690   8.357  13.584  0.00  0.00    +0.000 HD
ENDBRANCH  16  17
ENDBRANCH  15  16
ENDBRANCH  14  15
ENDBRANCH   7  14
BRANCH   9  19
ATOM     19  C   UNL     1      46.856   4.377  16.028  0.00  0.00    +0.000 C 
BRANCH  19  20
ATOM     20  C   UNL     1      48.131   3.679  16.418  0.00  0.00    +0.000 A 
ATOM     21  C   UNL     1      49.028   4.243  17.330  0.00  0.00    +0.000 A 
ATOM     22  C   UNL     1      50.160   3.537  17.721  0.00  0.00    +0.000 A 
ATOM     23  C   UNL     1      50.373   2.288  17.165  0.00  0.00    +0.000 A 
ATOM     24  N   UNL     1      49.555   1.722  16.251  0.00  0.00    +0.000 NA
ATOM     25  C   UNL     1      48.453   2.427  15.903  0.00  0.00    +0.000 A 
ENDBRANCH  19  20
ENDBRANCH   9  19
TORSDOF 8
ENDMDL
MODEL 7
REMARK VINA RESULT:    -5.816      3.826      6.506
REMARK INTER + INTRA:          -8.819
REMARK INTER:                  -8.173
REMARK INTRA:                  -0.646
REMARK UNBOUND:                -0.623
REMARK  Name = 
REMARK  8 active torsions:
REMARK  status: ('A' for Active; 'I' for Inactive)
REMARK    1  A    between atoms: N_1  and  C_2
REMARK    2  A    between atoms: C_2  and  C_3
REMARK    3  A    between atoms: C_9  and  C_10
REMARK    4  A    between atoms: C_10  and  C_11
REMARK    5  A    between atoms: C_11  and  C_12
REMARK    6  A    between atoms: C_12  and  O_13
REMARK    7  A    between atoms: N_15  and  C_16
REMARK    8  A    between atoms: C_16  and  C_17
REMARK                            x       y       z     vdW  Elec       q    Type
REMARK                         _______ _______ _______ _____ _____    ______ ____
ROOT
ATOM      1  C   UNL     1      49.343   7.658  12.805  0.00  0.00    +0.000 A 
ATOM      2  C   UNL     1      49.706   7.393  14.124  0.00  0.00    +0.000 A 
ATOM      3  N   UNL     1      49.080   6.545  14.973  0.00  0.00    +0.000 NA
ATOM      4  C   UNL     1      48.012   5.933  14.422  0.00  0.00    +0.000 A 
ATOM      5  C   UNL     1      47.538   6.088  13.122  0.00  0.00    +0.000 A 
ATOM      6  C   UNL     1      48.230   6.983  12.287  0.00  0.00    +0.000 A 
ATOM      7  C   UNL     1      46.393   5.242  12.979  0.00  0.00    +0.000 A 
ATOM      8  C   UNL     1      46.212   4.607  14.196  0.00  0.00    +0.000 A 
ATOM      9  N   UNL     1      47.177   5.054  15.065  0.00  0.00    +0.000 N 
ENDROOT
BRANCH   1  10
ATOM     10  C   UNL     1      50.133   8.617  11.959  0.00  0.00    +0.000 C 
BRANCH  10  11
ATOM     11  N   UNL     1      51.099   7.928  11.114  0.00  0.00    +0.000 NA
ATOM     12  H   UNL     1      50.844   6.944  11.048  0.00  0.00    +0.000 HD
ATOM     13  H   UNL     1      52.015   7.955  11.561  0.00  0.00    +0.000 HD
ENDBRANCH  10  11
ENDBRANCH   1  10
BRANCH   7  14
ATOM     14  C   UNL     1      45.545   5.084  11.756  0.00  0.00    +0.000 C 
BRANCH  14  15
ATOM     15  C   UNL     1      44.377   6.067  11.681  0.00  0.00    +0.000 C 
BRANCH  15  16
ATOM     16  C   UNL     1      43.038   5.441  12.055  0.00  0.00    +0.000 C 
BRANCH  16  17
ATOM     17  O   UNL     1      42.802   5.612  13.450  0.00  0.00    +0.000 OA
ATOM     18  H   UNL     1      43.347   6.359  13.751  0.00  0.00    +0.000 HD
ENDBRANCH  16  17
ENDBRANCH  15  16
ENDBRANCH  14  15
ENDBRANCH   7  14
BRANCH   9  19
ATOM     19  C   UNL     1      47.299   4.653  16.463  0.00  0.00    +0.000 C 
BRANCH  19  20
ATOM     20  C   UNL     1      48.479   3.743  16.671  0.00  0.00    +0.000 A 
ATOM     21  C   UNL     1      49.561   4.116  17.475  0.00  0.00    +0.000 A 
ATOM     22  C   UNL     1      50.600   3.221  17.702  0.00  0.00    +0.000 A 
ATOM     23  C   UNL     1      50.536   1.979  17.095  0.00  0.00    +0.000 A 
ATOM     24  N   UNL     1      49.531   1.593  16.279  0.00  0.00    +0.000 NA
ATOM     25  C   UNL     1      48.526   2.480  16.091  0.00  0.00    +0.000 A 
ENDBRANCH  19  20
ENDBRANCH   9  19
TORSDOF 8
ENDMDL
MODEL 8
REMARK VINA RESULT:    -5.549      3.250      6.967
REMARK INTER + INTRA:          -8.442
REMARK INTER:                  -7.934
REMARK INTRA:                  -0.508
REMARK UNBOUND:                -0.623
REMARK  Name = 
REMARK  8 active torsions:
REMARK  status: ('A' for Active; 'I' for Inactive)
REMARK    1  A    between atoms: N_1  and  C_2
REMARK    2  A    between atoms: C_2  and  C_3
REMARK    3  A    between atoms: C_9  and  C_10
REMARK    4  A    between atoms: C_10  and  C_11
REMARK    5  A    between atoms: C_11  and  C_12
REMARK    6  A    between atoms: C_12  and  O_13
REMARK    7  A    between atoms: N_15  and  C_16
REMARK    8  A    between atoms: C_16  and  C_17
REMARK                            x       y       z     vdW  Elec       q    Type
REMARK                         _______ _______ _______ _____ _____    ______ ____
ROOT
ATOM      1  C   UNL     1      44.971   4.437  11.135  0.00  0.00    +0.000 A 
ATOM      2  C   UNL     1      45.020   3.348  12.003  0.00  0.00    +0.000 A 
ATOM      3  N   UNL     1      45.709   3.278  13.165  0.00  0.00    +0.000 NA
ATOM      4  C   UNL     1      46.390   4.408  13.447  0.00  0.00    +0.000 A 
ATOM      5  C   UNL     1      46.428   5.574  12.687  0.00  0.00    +0.000 A 
ATOM      6  C   UNL     1      45.692   5.585  11.489  0.00  0.00    +0.000 A 
ATOM      7  C   UNL     1      47.270   6.506  13.373  0.00  0.00    +0.000 A 
ATOM      8  C   UNL     1      47.713   5.872  14.521  0.00  0.00    +0.000 A 
ATOM      9  N   UNL     1      47.199   4.599  14.540  0.00  0.00    +0.000 N 
ENDROOT
BRANCH   1  10
ATOM     10  C   UNL     1      44.154   4.391   9.874  0.00  0.00    +0.000 C 
BRANCH  10  11
ATOM     11  N   UNL     1      44.939   4.761   8.704  0.00  0.00    +0.000 NA
ATOM     12  H   UNL     1      44.346   5.266   8.047  0.00  0.00    +0.000 HD
ATOM     13  H   UNL     1      45.242   3.915   8.222  0.00  0.00    +0.000 HD
ENDBRANCH  10  11
ENDBRANCH   1  10
BRANCH   7  14
ATOM     14  C   UNL     1      47.616   7.892  12.928  0.00  0.00    +0.000 C 
BRANCH  14  15
ATOM     15  C   UNL     1      48.580   7.940  11.743  0.00  0.00    +0.000 C 
BRANCH  15  16
ATOM     16  C   UNL     1      50.024   8.204  12.151  0.00  0.00    +0.000 C 
BRANCH  16  17
ATOM     17  O   UNL     1      50.876   7.227  11.560  0.00  0.00    +0.000 OA
ATOM     18  H   UNL     1      50.629   6.361  11.927  0.00  0.00    +0.000 HD
ENDBRANCH  16  17
ENDBRANCH  15  16
ENDBRANCH  14  15
ENDBRANCH   7  14
BRANCH   9  19
ATOM     19  C   UNL     1      47.468   3.600  15.567  0.00  0.00    +0.000 C 
BRANCH  19  20
ATOM     20  C   UNL     1      47.943   4.239  16.844  0.00  0.00    +0.000 A 
ATOM     21  C   UNL     1      49.300   4.291  17.178  0.00  0.00    +0.000 A 
ATOM     22  C   UNL     1      49.707   4.953  18.331  0.00  0.00    +0.000 A 
ATOM     23  C   UNL     1      48.735   5.526  19.133  0.00  0.00    +0.000 A 
ATOM     24  N   UNL     1      47.412   5.464  18.869  0.00  0.00    +0.000 NA
ATOM     25  C   UNL     1      47.049   4.828  17.731  0.00  0.00    +0.000 A 
ENDBRANCH  19  20
ENDBRANCH   9  19
TORSDOF 8
ENDMDL
MODEL 9
REMARK VINA RESULT:    -5.384      3.601      5.443
REMARK INTER + INTRA:          -8.210
REMARK INTER:                  -7.607
REMARK INTRA:                  -0.603
REMARK UNBOUND:                -0.623
REMARK  Name = 
REMARK  8 active torsions:
REMARK  status: ('A' for Active; 'I' for Inactive)
REMARK    1  A    between atoms: N_1  and  C_2
REMARK    2  A    between atoms: C_2  and  C_3
REMARK    3  A    between atoms: C_9  and  C_10
REMARK    4  A    between atoms: C_10  and  C_11
REMARK    5  A    between atoms: C_11  and  C_12
REMARK    6  A    between atoms: C_12  and  O_13
REMARK    7  A    between atoms: N_15  and  C_16
REMARK    8  A    between atoms: C_16  and  C_17
REMARK                            x       y       z     vdW  Elec       q    Type
REMARK                         _______ _______ _______ _____ _____    ______ ____
ROOT
ATOM      1  C   UNL     1      49.485   8.361  12.252  0.00  0.00    +0.000 A 
ATOM      2  C   UNL     1      49.274   7.009  12.519  0.00  0.00    +0.000 A 
ATOM      3  N   UNL     1      48.075   6.394  12.646  0.00  0.00    +0.000 NA
ATOM      4  C   UNL     1      47.029   7.230  12.485  0.00  0.00    +0.000 A 
ATOM      5  C   UNL     1      47.083   8.593  12.204  0.00  0.00    +0.000 A 
ATOM      6  C   UNL     1      48.358   9.175  12.084  0.00  0.00    +0.000 A 
ATOM      7  C   UNL     1      45.736   9.067  12.115  0.00  0.00    +0.000 A 
ATOM      8  C   UNL     1      44.914   7.976  12.347  0.00  0.00    +0.000 A 
ATOM      9  N   UNL     1      45.706   6.883  12.596  0.00  0.00    +0.000 N 
ENDROOT
BRANCH   1  10
ATOM     10  C   UNL     1      50.874   8.921  12.122  0.00  0.00    +0.000 C 
BRANCH  10  11
ATOM     11  N   UNL     1      51.854   8.110  12.833  0.00  0.00    +0.000 NA
ATOM     12  H   UNL     1      51.943   7.207  12.368  0.00  0.00    +0.000 HD
ATOM     13  H   UNL     1      51.510   7.914  13.772  0.00  0.00    +0.000 HD
ENDBRANCH  10  11
ENDBRANCH   1  10
BRANCH   7  14
ATOM     14  C   UNL     1      45.298  10.470  11.839  0.00  0.00    +0.000 C 
BRANCH  14  15
ATOM     15  C   UNL     1      44.398  10.609  10.613  0.00  0.00    +0.000 C 
BRANCH  15  16
ATOM     16  C   UNL     1      43.019  11.173  10.938  0.00  0.00    +0.000 C 
BRANCH  16  17
ATOM     17  O   UNL     1      42.678  10.859  12.284  0.00  0.00    +0.000 OA
ATOM     18  H   UNL     1      43.497  10.611  12.746  0.00  0.00    +0.000 HD
ENDBRANCH  16  17
ENDBRANCH  15  16
ENDBRANCH  14  15
ENDBRANCH   7  14
BRANCH   9  19
ATOM     19  C   UNL     1      45.216   5.549  12.928  0.00  0.00    +0.000 C 
BRANCH  19  20
ATOM     20  C   UNL     1      44.870   4.768  11.689  0.00  0.00    +0.000 A 
ATOM     21  C   UNL     1      45.357   5.133  10.430  0.00  0.00    +0.000 A 
ATOM     22  C   UNL     1      45.074   4.346   9.320  0.00  0.00    +0.000 A 
ATOM     23  C   UNL     1      44.286   3.223   9.500  0.00  0.00    +0.000 A 
ATOM     24  N   UNL     1      43.761   2.856  10.689  0.00  0.00    +0.000 NA
ATOM     25  C   UNL     1      44.068   3.633  11.754  0.00  0.00    +0.000 A 
ENDBRANCH  19  20
ENDBRANCH   9  19
TORSDOF 8
ENDMDL
