MODEL 1
REMARK VINA RESULT:    -7.932      0.000      0.000
REMARK INTER + INTRA:         -11.505
REMARK INTER:                 -10.714
REMARK INTRA:                  -0.792
REMARK UNBOUND:                -0.792
REMARK  Name = 
REMARK  6 active torsions:
REMARK  status: ('A' for Active; 'I' for Inactive)
REMARK    1  A    between atoms: C_2  and  C_25
REMARK    2  A    between atoms: N_3  and  C_4
REMARK    3  A    between atoms: C_4  and  C_5
REMARK    4  A    between atoms: C_8  and  C_9
REMARK    5  A    between atoms: C_9  and  N_10
REMARK    6  A    between atoms: C_11  and  C_13
REMARK                            x       y       z     vdW  Elec       q    Type
REMARK                         _______ _______ _______ _____ _____    ______ ____
ROOT
ATOM      1  C   UNL     1      44.620   4.969  11.437  0.00  0.00    +0.000 A 
ATOM      2  C   UNL     1      44.290   6.319  11.400  0.00  0.00    +0.000 A 
ATOM      3  N   UNL     1      45.045   7.282  11.982  0.00  0.00    +0.000 NA
ATOM      4  C   UNL     1      46.159   6.847  12.629  0.00  0.00    +0.000 A 
ATOM      5  C   UNL     1      46.472   5.494  12.695  0.00  0.00    +0.000 A 
ATOM      6  N   UNL     1      45.720   4.533  12.103  0.00  0.00    +0.000 NA
ENDROOT
BRANCH   1   7
ATOM      7  C   UNL     1      43.763   3.955  10.731  0.00  0.00    +0.000 C 
BRANCH   7  10
ATOM      8  O   UNL     1      44.920   4.429   8.225  0.00  0.00    +0.000 OA
ATOM      9  C   UNL     1      45.112   3.340   8.769  0.00  0.00    +0.000 C 
ATOM     10  N   UNL     1      44.537   3.001   9.970  0.00  0.00    +0.000 N 
ATOM     11  H   UNL     1      44.883   2.158  10.419  0.00  0.00    +0.000 HD
BRANCH   9  12
ATOM     12  C   UNL     1      45.954   2.318   8.186  0.00  0.00    +0.000 A 
ATOM     13  N   UNL     1      45.849   1.018   8.400  0.00  0.00    +0.000 NA
ATOM     14  C   UNL     1      46.825   0.441   7.623  0.00  0.00    +0.000 A 
ATOM     15  C   UNL     1      47.540   1.397   6.942  0.00  0.00    +0.000 A 
ATOM     16  N   UNL     1      46.977   2.585   7.308  0.00  0.00    +0.000 N 
ATOM     17  H   UNL     1      47.237   3.514   7.001  0.00  0.00    +0.000 HD
ENDBRANCH   9  12
ENDBRANCH   7  10
ENDBRANCH   1   7
BRANCH   4  18
ATOM     18  C   UNL     1      47.030   7.872  13.304  0.00  0.00    +0.000 C 
BRANCH  18  19
ATOM     19  N   UNL     1      47.527   7.412  14.582  0.00  0.00    +0.000 N 
ATOM     20  C   UNL     1      48.814   6.970  14.739  0.00  0.00    +0.000 C 
ATOM     21  O   UNL     1      49.623   6.995  13.814  0.00  0.00    +0.000 OA
ATOM     22  H   UNL     1      46.822   7.159  15.268  0.00  0.00    +0.000 HD
BRANCH  20  23
ATOM     23  C   UNL     1      49.199   6.530  16.084  0.00  0.00    +0.000 A 
ATOM     24  C   UNL     1      50.151   7.248  16.795  0.00  0.00    +0.000 A 
ATOM     25  S   UNL     1      50.457   6.621  18.352  0.00  0.00    +0.000 S 
ATOM     26  C   UNL     1      49.363   5.340  18.110  0.00  0.00    +0.000 A 
ATOM     27  N   UNL     1      49.166   4.397  19.071  0.00  0.00    +0.000 NA
ATOM     28  C   UNL     1      48.341   3.463  18.737  0.00  0.00    +0.000 A 
ATOM     29  N   UNL     1      47.686   3.390  17.535  0.00  0.00    +0.000 N 
ATOM     30  C   UNL     1      47.813   4.346  16.558  0.00  0.00    +0.000 A 
ATOM     31  O   UNL     1      47.147   4.305  15.530  0.00  0.00    +0.000 OA
ATOM     32  C   UNL     1      48.756   5.404  16.869  0.00  0.00    +0.000 A 
ATOM     33  H   UNL     1      47.038   2.641  17.343  0.00  0.00    +0.000 HD
ENDBRANCH  20  23
ENDBRANCH  18  19
ENDBRANCH   4  18
TORSDOF 6
ENDMDL
MODEL 2
REMARK VINA RESULT:    -7.655      1.935      3.634
REMARK INTER + INTRA:         -11.132
REMARK INTER:                 -10.249
REMARK INTRA:                  -0.883
REMARK UNBOUND:                -0.792
REMARK  Name = 
REMARK  6 active torsions:
REMARK  status: ('A' for Active; 'I' for Inactive)
REMARK    1  A    between atoms: C_2  and  C_25
REMARK    2  A    between atoms: N_3  and  C_4
REMARK    3  A    between atoms: C_4  and  C_5
REMARK    4  A    between atoms: C_8  and  C_9
REMARK    5  A    between atoms: C_9  and  N_10
REMARK    6  A    between atoms: C_11  and  C_13
REMARK                            x       y       z     vdW  Elec       q    Type
REMARK                         _______ _______ _______ _____ _____    ______ ____
ROOT
ATOM      1  C   UNL     1      44.622   4.371  11.534  0.00  0.00    +0.000 A 
ATOM      2  C   UNL     1      45.225   3.237  12.067  0.00  0.00    +0.000 A 
ATOM      3  N   UNL     1      45.955   3.254  13.208  0.00  0.00    +0.000 NA
ATOM      4  C   UNL     1      46.080   4.467  13.811  0.00  0.00    +0.000 A 
ATOM      5  C   UNL     1      45.504   5.606  13.261  0.00  0.00    +0.000 A 
ATOM      6  N   UNL     1      44.765   5.585  12.124  0.00  0.00    +0.000 NA
ENDROOT
BRANCH   1   7
ATOM      7  C   UNL     1      43.786   4.276  10.288  0.00  0.00    +0.000 C 
BRANCH   7  10
ATOM      8  O   UNL     1      45.884   5.313   8.750  0.00  0.00    +0.000 OA
ATOM      9  C   UNL     1      45.517   4.154   8.547  0.00  0.00    +0.000 C 
ATOM     10  N   UNL     1      44.459   3.584   9.214  0.00  0.00    +0.000 N 
ATOM     11  H   UNL     1      44.338   2.581   9.104  0.00  0.00    +0.000 HD
BRANCH   9  12
ATOM     12  C   UNL     1      46.163   3.293   7.579  0.00  0.00    +0.000 A 
ATOM     13  N   UNL     1      46.515   3.639   6.352  0.00  0.00    +0.000 NA
ATOM     14  C   UNL     1      47.117   2.525   5.819  0.00  0.00    +0.000 A 
ATOM     15  C   UNL     1      47.117   1.487   6.720  0.00  0.00    +0.000 A 
ATOM     16  N   UNL     1      46.509   1.988   7.834  0.00  0.00    +0.000 N 
ATOM     17  H   UNL     1      46.335   1.514   8.711  0.00  0.00    +0.000 HD
ENDBRANCH   9  12
ENDBRANCH   7  10
ENDBRANCH   1   7
BRANCH   4  18
ATOM     18  C   UNL     1      46.890   4.547  15.077  0.00  0.00    +0.000 C 
BRANCH  18  19
ATOM     19  N   UNL     1      47.676   5.759  15.147  0.00  0.00    +0.000 N 
ATOM     20  C   UNL     1      48.772   5.862  15.963  0.00  0.00    +0.000 C 
ATOM     21  O   UNL     1      49.170   4.913  16.634  0.00  0.00    +0.000 OA
ATOM     22  H   UNL     1      47.227   6.601  14.801  0.00  0.00    +0.000 HD
BRANCH  20  23
ATOM     23  C   UNL     1      49.487   7.142  15.944  0.00  0.00    +0.000 A 
ATOM     24  C   UNL     1      49.793   7.776  17.141  0.00  0.00    +0.000 A 
ATOM     25  S   UNL     1      50.655   9.234  16.942  0.00  0.00    +0.000 S 
ATOM     26  C   UNL     1      50.607   9.095  15.247  0.00  0.00    +0.000 A 
ATOM     27  N   UNL     1      51.153  10.051  14.450  0.00  0.00    +0.000 NA
ATOM     28  C   UNL     1      51.009   9.836  13.185  0.00  0.00    +0.000 A 
ATOM     29  N   UNL     1      50.376   8.748  12.644  0.00  0.00    +0.000 N 
ATOM     30  C   UNL     1      49.857   7.732  13.408  0.00  0.00    +0.000 A 
ATOM     31  O   UNL     1      49.377   6.726  12.897  0.00  0.00    +0.000 OA
ATOM     32  C   UNL     1      49.963   7.939  14.840  0.00  0.00    +0.000 A 
ATOM     33  H   UNL     1      50.313   8.630  11.644  0.00  0.00    +0.000 HD
ENDBRANCH  20  23
ENDBRANCH  18  19
ENDBRANCH   4  18
TORSDOF 6
ENDMDL
MODEL 3
REMARK VINA RESULT:    -7.433      1.922      2.297
REMARK INTER + INTRA:         -10.832
REMARK INTER:                  -9.854
REMARK INTRA:                  -0.978
REMARK UNBOUND:                -0.792
REMARK  Name = 
REMARK  6 active torsions:
REMARK  status: ('A' for Active; 'I' for Inactive)
REMARK    1  A    between atoms: C_2  and  C_25
REMARK    2  A    between atoms: N_3  and  C_4
REMARK    3  A    between atoms: C_4  and  C_5
REMARK    4  A    between atoms: C_8  and  C_9
REMARK    5  A    between atoms: C_9  and  N_10
REMARK    6  A    between atoms: C_11  and  C_13
REMARK                            x       y       z     vdW  Elec       q    Type
REMARK                         _______ _______ _______ _____ _____    ______ ____
ROOT
ATOM      1  C   UNL     1      45.187   4.630  11.906  0.00  0.00    +0.000 A 
ATOM      2  C   UNL     1      45.264   5.973  11.553  0.00  0.00    +0.000 A 
ATOM      3  N   UNL     1      46.114   6.846  12.145  0.00  0.00    +0.000 NA
ATOM      4  C   UNL     1      46.895   6.332  13.132  0.00  0.00    +0.000 A 
ATOM      5  C   UNL     1      46.795   4.997  13.507  0.00  0.00    +0.000 A 
ATOM      6  N   UNL     1      45.951   4.122  12.906  0.00  0.00    +0.000 NA
ENDROOT
BRANCH   1   7
ATOM      7  C   UNL     1      44.254   3.703  11.177  0.00  0.00    +0.000 C 
BRANCH   7  10
ATOM      8  O   UNL     1      44.755   4.164   8.460  0.00  0.00    +0.000 OA
ATOM      9  C   UNL     1      45.192   3.134   8.976  0.00  0.00    +0.000 C 
ATOM     10  N   UNL     1      44.945   2.799  10.286  0.00  0.00    +0.000 N 
ATOM     11  H   UNL     1      45.482   2.025  10.668  0.00  0.00    +0.000 HD
BRANCH   9  12
ATOM     12  C   UNL     1      45.998   2.180   8.245  0.00  0.00    +0.000 A 
ATOM     13  N   UNL     1      45.951   0.865   8.382  0.00  0.00    +0.000 NA
ATOM     14  C   UNL     1      46.857   0.372   7.473  0.00  0.00    +0.000 A 
ATOM     15  C   UNL     1      47.472   1.394   6.790  0.00  0.00    +0.000 A 
ATOM     16  N   UNL     1      46.918   2.536   7.289  0.00  0.00    +0.000 N 
ATOM     17  H   UNL     1      47.119   3.491   7.020  0.00  0.00    +0.000 HD
ENDBRANCH   9  12
ENDBRANCH   7  10
ENDBRANCH   1   7
BRANCH   4  18
ATOM     18  C   UNL     1      47.851   7.260  13.833  0.00  0.00    +0.000 C 
BRANCH  18  19
ATOM     19  N   UNL     1      47.955   6.971  15.246  0.00  0.00    +0.000 N 
ATOM     20  C   UNL     1      49.157   6.681  15.837  0.00  0.00    +0.000 C 
ATOM     21  O   UNL     1      50.210   6.704  15.204  0.00  0.00    +0.000 OA
ATOM     22  H   UNL     1      47.091   6.710  15.712  0.00  0.00    +0.000 HD
BRANCH  20  23
ATOM     23  C   UNL     1      49.133   6.408  17.277  0.00  0.00    +0.000 A 
ATOM     24  C   UNL     1      49.672   5.224  17.761  0.00  0.00    +0.000 A 
ATOM     25  S   UNL     1      49.594   5.080  19.459  0.00  0.00    +0.000 S 
ATOM     26  C   UNL     1      48.791   6.574  19.602  0.00  0.00    +0.000 A 
ATOM     27  N   UNL     1      48.400   7.044  20.817  0.00  0.00    +0.000 NA
ATOM     28  C   UNL     1      47.767   8.168  20.773  0.00  0.00    +0.000 A 
ATOM     29  N   UNL     1      47.498   8.871  19.627  0.00  0.00    +0.000 N 
ATOM     30  C   UNL     1      47.919   8.460  18.387  0.00  0.00    +0.000 A 
ATOM     31  O   UNL     1      47.744   9.152  17.389  0.00  0.00    +0.000 OA
ATOM     32  C   UNL     1      48.608   7.184  18.374  0.00  0.00    +0.000 A 
ATOM     33  H   UNL     1      47.013   9.754  19.664  0.00  0.00    +0.000 HD
ENDBRANCH  20  23
ENDBRANCH  18  19
ENDBRANCH   4  18
TORSDOF 6
ENDMDL
MODEL 4
REMARK VINA RESULT:    -7.375      1.072      1.542
REMARK INTER + INTRA:         -10.753
REMARK INTER:                  -9.757
REMARK INTRA:                  -0.996
REMARK UNBOUND:                -0.792
REMARK  Name = 
REMARK  6 active torsions:
REMARK  status: ('A' for Active; 'I' for Inactive)
REMARK    1  A    between atoms: C_2  and  C_25
REMARK    2  A    between atoms: N_3  and  C_4
REMARK    3  A    between atoms: C_4  and  C_5
REMARK    4  A    between atoms: C_8  and  C_9
REMARK    5  A    between atoms: C_9  and  N_10
REMARK    6  A    between atoms: C_11  and  C_13
REMARK                            x       y       z     vdW  Elec       q    Type
REMARK                         _______ _______ _______ _____ _____    ______ ____
ROOT
ATOM      1  C   UNL     1      45.144   6.284  11.247  0.00  0.00    +0.000 A 
ATOM      2  C   UNL     1      46.339   5.805  11.773  0.00  0.00    +0.000 A 
ATOM      3  N   UNL     1      47.096   6.509  12.649  0.00  0.00    +0.000 NA
ATOM      4  C   UNL     1      46.622   7.739  12.984  0.00  0.00    +0.000 A 
ATOM      5  C   UNL     1      45.444   8.231  12.432  0.00  0.00    +0.000 A 
ATOM      6  N   UNL     1      44.683   7.520  11.564  0.00  0.00    +0.000 NA
ENDROOT
BRANCH   1   7
ATOM      7  C   UNL     1      44.327   5.433  10.314  0.00  0.00    +0.000 C 
BRANCH   7  10
ATOM      8  O   UNL     1      44.471   2.673   9.860  0.00  0.00    +0.000 OA
ATOM      9  C   UNL     1      45.095   3.429   9.114  0.00  0.00    +0.000 C 
ATOM     10  N   UNL     1      45.127   4.791   9.297  0.00  0.00    +0.000 N 
ATOM     11  H   UNL     1      45.524   5.343   8.542  0.00  0.00    +0.000 HD
BRANCH   9  12
ATOM     12  C   UNL     1      45.856   2.948   7.980  0.00  0.00    +0.000 A 
ATOM     13  N   UNL     1      46.083   3.619   6.864  0.00  0.00    +0.000 NA
ATOM     14  C   UNL     1      46.867   2.791   6.095  0.00  0.00    +0.000 A 
ATOM     15  C   UNL     1      47.105   1.602   6.741  0.00  0.00    +0.000 A 
ATOM     16  N   UNL     1      46.458   1.714   7.937  0.00  0.00    +0.000 N 
ATOM     17  H   UNL     1      46.414   1.033   8.684  0.00  0.00    +0.000 HD
ENDBRANCH   9  12
ENDBRANCH   7  10
ENDBRANCH   1   7
BRANCH   4  18
ATOM     18  C   UNL     1      47.429   8.570  13.945  0.00  0.00    +0.000 C 
BRANCH  18  19
ATOM     19  N   UNL     1      47.831   7.819  15.113  0.00  0.00    +0.000 N 
ATOM     20  C   UNL     1      49.104   7.333  15.256  0.00  0.00    +0.000 C 
ATOM     21  O   UNL     1      49.978   7.556  14.422  0.00  0.00    +0.000 OA
ATOM     22  H   UNL     1      47.078   7.426  15.671  0.00  0.00    +0.000 HD
BRANCH  20  23
ATOM     23  C   UNL     1      49.389   6.588  16.487  0.00  0.00    +0.000 A 
ATOM     24  C   UNL     1      50.351   7.062  17.369  0.00  0.00    +0.000 A 
ATOM     25  S   UNL     1      50.533   6.097  18.764  0.00  0.00    +0.000 S 
ATOM     26  C   UNL     1      49.369   4.985  18.213  0.00  0.00    +0.000 A 
ATOM     27  N   UNL     1      49.060   3.877  18.939  0.00  0.00    +0.000 NA
ATOM     28  C   UNL     1      48.191   3.102  18.383  0.00  0.00    +0.000 A 
ATOM     29  N   UNL     1      47.594   3.337  17.172  0.00  0.00    +0.000 N 
ATOM     30  C   UNL     1      47.836   4.467  16.430  0.00  0.00    +0.000 A 
ATOM     31  O   UNL     1      47.221   4.697  15.394  0.00  0.00    +0.000 OA
ATOM     32  C   UNL     1      48.831   5.358  16.994  0.00  0.00    +0.000 A 
ATOM     33  H   UNL     1      46.908   2.698  16.800  0.00  0.00    +0.000 HD
ENDBRANCH  20  23
ENDBRANCH  18  19
ENDBRANCH   4  18
TORSDOF 6
ENDMDL
MODEL 5
REMARK VINA RESULT:    -7.108      3.774      4.737
REMARK INTER + INTRA:         -10.393
REMARK INTER:                  -9.681
REMARK INTRA:                  -0.712
REMARK UNBOUND:                -0.792
REMARK  Name = 
REMARK  6 active torsions:
REMARK  status: ('A' for Active; 'I' for Inactive)
REMARK    1  A    between atoms: C_2  and  C_25
REMARK    2  A    between atoms: N_3  and  C_4
REMARK    3  A    between atoms: C_4  and  C_5
REMARK    4  A    between atoms: C_8  and  C_9
REMARK    5  A    between atoms: C_9  and  N_10
REMARK    6  A    between atoms: C_11  and  C_13
REMARK                            x       y       z     vdW  Elec       q    Type
REMARK                         _______ _______ _______ _____ _____    ______ ____
ROOT
ATOM      1  C   UNL     1      44.221   4.382  11.493  0.00  0.00    +0.000 A 
ATOM      2  C   UNL     1      43.495   5.514  11.139  0.00  0.00    +0.000 A 
ATOM      3  N   UNL     1      43.817   6.761  11.562  0.00  0.00    +0.000 NA
ATOM      4  C   UNL     1      44.902   6.846  12.377  0.00  0.00    +0.000 A 
ATOM      5  C   UNL     1      45.607   5.710  12.757  0.00  0.00    +0.000 A 
ATOM      6  N   UNL     1      45.290   4.465  12.325  0.00  0.00    +0.000 NA
ENDROOT
BRANCH   1   7
ATOM      7  C   UNL     1      43.838   3.032  10.952  0.00  0.00    +0.000 C 
BRANCH   7  10
ATOM      8  O   UNL     1      44.372   4.006   8.381  0.00  0.00    +0.000 OA
ATOM      9  C   UNL     1      45.050   3.073   8.814  0.00  0.00    +0.000 C 
ATOM     10  N   UNL     1      44.821   2.496  10.039  0.00  0.00    +0.000 N 
ATOM     11  H   UNL     1      45.530   1.853  10.380  0.00  0.00    +0.000 HD
BRANCH   9  12
ATOM     12  C   UNL     1      46.146   2.497   8.064  0.00  0.00    +0.000 A 
ATOM     13  N   UNL     1      46.522   1.230   8.097  0.00  0.00    +0.000 NA
ATOM     14  C   UNL     1      47.569   1.137   7.213  0.00  0.00    +0.000 A 
ATOM     15  C   UNL     1      47.845   2.360   6.648  0.00  0.00    +0.000 A 
ATOM     16  N   UNL     1      46.935   3.215   7.197  0.00  0.00    +0.000 N 
ATOM     17  H   UNL     1      46.826   4.204   7.015  0.00  0.00    +0.000 HD
ENDBRANCH   9  12
ENDBRANCH   7  10
ENDBRANCH   1   7
BRANCH   4  18
ATOM     18  C   UNL     1      45.298   8.206  12.886  0.00  0.00    +0.000 C 
BRANCH  18  19
ATOM     19  N   UNL     1      46.474   8.718  12.219  0.00  0.00    +0.000 N 
ATOM     20  C   UNL     1      47.569   9.155  12.918  0.00  0.00    +0.000 C 
ATOM     21  O   UNL     1      47.624   9.083  14.143  0.00  0.00    +0.000 OA
ATOM     22  H   UNL     1      46.347   9.008  11.254  0.00  0.00    +0.000 HD
BRANCH  20  23
ATOM     23  C   UNL     1      48.700   9.651  12.127  0.00  0.00    +0.000 A 
ATOM     24  C   UNL     1      48.719  10.976  11.712  0.00  0.00    +0.000 A 
ATOM     25  S   UNL     1      50.119  11.397  10.834  0.00  0.00    +0.000 S 
ATOM     26  C   UNL     1      50.725   9.809  10.934  0.00  0.00    +0.000 A 
ATOM     27  N   UNL     1      51.905   9.472  10.349  0.00  0.00    +0.000 NA
ATOM     28  C   UNL     1      52.223   8.227  10.470  0.00  0.00    +0.000 A 
ATOM     29  N   UNL     1      51.473   7.289  11.132  0.00  0.00    +0.000 N 
ATOM     30  C   UNL     1      50.303   7.596  11.781  0.00  0.00    +0.000 A 
ATOM     31  O   UNL     1      49.699   6.757  12.443  0.00  0.00    +0.000 OA
ATOM     32  C   UNL     1      49.882   8.977  11.649  0.00  0.00    +0.000 A 
ATOM     33  H   UNL     1      51.787   6.334  11.205  0.00  0.00    +0.000 HD
ENDBRANCH  20  23
ENDBRANCH  18  19
ENDBRANCH   4  18
TORSDOF 6
ENDMDL
MODEL 6
REMARK VINA RESULT:    -6.920      3.032      8.525
REMARK INTER + INTRA:         -10.138
REMARK INTER:                  -9.297
REMARK INTRA:                  -0.841
REMARK UNBOUND:                -0.792
REMARK  Name = 
REMARK  6 active torsions:
REMARK  status: ('A' for Active; 'I' for Inactive)
REMARK    1  A    between atoms: C_2  and  C_25
REMARK    2  A    between atoms: N_3  and  C_4
REMARK    3  A    between atoms: C_4  and  C_5
REMARK    4  A    between atoms: C_8  and  C_9
REMARK    5  A    between atoms: C_9  and  N_10
REMARK    6  A    between atoms: C_11  and  C_13
REMARK                            x       y       z     vdW  Elec       q    Type
REMARK                         _______ _______ _______ _____ _____    ______ ____
ROOT
ATOM      1  C   UNL     1      50.021   7.373  15.209  0.00  0.00    +0.000 A 
ATOM      2  C   UNL     1      50.166   8.394  14.276  0.00  0.00    +0.000 A 
ATOM      3  N   UNL     1      49.331   8.557  13.222  0.00  0.00    +0.000 NA
ATOM      4  C   UNL     1      48.330   7.642  13.115  0.00  0.00    +0.000 A 
ATOM      5  C   UNL     1      48.205   6.602  14.028  0.00  0.00    +0.000 A 
ATOM      6  N   UNL     1      49.036   6.447  15.089  0.00  0.00    +0.000 NA
ENDROOT
BRANCH   1   7
ATOM      7  C   UNL     1      50.955   7.275  16.383  0.00  0.00    +0.000 C 
BRANCH   7  10
ATOM      8  O   UNL     1      49.906   5.550  18.324  0.00  0.00    +0.000 OA
ATOM      9  C   UNL     1      50.790   5.131  17.575  0.00  0.00    +0.000 C 
ATOM     10  N   UNL     1      51.401   5.924  16.633  0.00  0.00    +0.000 N 
ATOM     11  H   UNL     1      51.992   5.452  15.954  0.00  0.00    +0.000 HD
BRANCH   9  12
ATOM     12  C   UNL     1      51.268   3.765  17.625  0.00  0.00    +0.000 A 
ATOM     13  N   UNL     1      50.654   2.714  17.110  0.00  0.00    +0.000 NA
ATOM     14  C   UNL     1      51.481   1.647  17.368  0.00  0.00    +0.000 A 
ATOM     15  C   UNL     1      52.599   2.049  18.059  0.00  0.00    +0.000 A 
ATOM     16  N   UNL     1      52.452   3.396  18.216  0.00  0.00    +0.000 N 
ATOM     17  H   UNL     1      53.085   4.039  18.674  0.00  0.00    +0.000 HD
ENDBRANCH   9  12
ENDBRANCH   7  10
ENDBRANCH   1   7
BRANCH   4  18
ATOM     18  C   UNL     1      47.379   7.768  11.955  0.00  0.00    +0.000 C 
BRANCH  18  19
ATOM     19  N   UNL     1      46.707   6.521  11.662  0.00  0.00    +0.000 N 
ATOM     20  C   UNL     1      45.347   6.391  11.770  0.00  0.00    +0.000 C 
ATOM     21  O   UNL     1      44.629   7.342  12.070  0.00  0.00    +0.000 OA
ATOM     22  H   UNL     1      47.291   5.691  11.658  0.00  0.00    +0.000 HD
BRANCH  20  23
ATOM     23  C   UNL     1      44.784   5.077  11.444  0.00  0.00    +0.000 A 
ATOM     24  C   UNL     1      44.024   4.401  12.389  0.00  0.00    +0.000 A 
ATOM     25  S   UNL     1      43.418   2.906  11.837  0.00  0.00    +0.000 S 
ATOM     26  C   UNL     1      44.191   3.087  10.331  0.00  0.00    +0.000 A 
ATOM     27  N   UNL     1      44.099   2.122   9.377  0.00  0.00    +0.000 NA
ATOM     28  C   UNL     1      44.767   2.373   8.301  0.00  0.00    +0.000 A 
ATOM     29  N   UNL     1      45.510   3.505   8.088  0.00  0.00    +0.000 N 
ATOM     30  C   UNL     1      45.588   4.527   9.001  0.00  0.00    +0.000 A 
ATOM     31  O   UNL     1      46.185   5.569   8.748  0.00  0.00    +0.000 OA
ATOM     32  C   UNL     1      44.881   4.283  10.244  0.00  0.00    +0.000 A 
ATOM     33  H   UNL     1      45.996   3.648   7.216  0.00  0.00    +0.000 HD
ENDBRANCH  20  23
ENDBRANCH  18  19
ENDBRANCH   4  18
TORSDOF 6
ENDMDL
MODEL 7
REMARK VINA RESULT:    -6.870      3.484      8.171
REMARK INTER + INTRA:         -10.072
REMARK INTER:                  -9.232
REMARK INTRA:                  -0.840
REMARK UNBOUND:                -0.792
REMARK  Name = 
REMARK  6 active torsions:
REMARK  status: ('A' for Active; 'I' for Inactive)
REMARK    1  A    between atoms: C_2  and  C_25
REMARK    2  A    between atoms: N_3  and  C_4
REMARK    3  A    between atoms: C_4  and  C_5
REMARK    4  A    between atoms: C_8  and  C_9
REMARK    5  A    between atoms: C_9  and  N_10
REMARK    6  A    between atoms: C_11  and  C_13
REMARK                            x       y       z     vdW  Elec       q    Type
REMARK                         _______ _______ _______ _____ _____    ______ ____
ROOT
ATOM      1  C   UNL     1      49.801   6.872  15.906  0.00  0.00    +0.000 A 
ATOM      2  C   UNL     1      50.467   7.802  15.115  0.00  0.00    +0.000 A 
ATOM      3  N   UNL     1      50.051   8.150  13.873  0.00  0.00    +0.000 NA
ATOM      4  C   UNL     1      48.932   7.519  13.427  0.00  0.00    +0.000 A 
ATOM      5  C   UNL     1      48.286   6.565  14.204  0.00  0.00    +0.000 A 
ATOM      6  N   UNL     1      48.697   6.226  15.451  0.00  0.00    +0.000 NA
ENDROOT
BRANCH   1   7
ATOM      7  C   UNL     1      50.288   6.565  17.295  0.00  0.00    +0.000 C 
BRANCH   7  10
ATOM      8  O   UNL     1      49.343   4.195  18.452  0.00  0.00    +0.000 OA
ATOM      9  C   UNL     1      50.451   4.190  17.911  0.00  0.00    +0.000 C 
ATOM     10  N   UNL     1      51.016   5.320  17.370  0.00  0.00    +0.000 N 
ATOM     11  H   UNL     1      51.848   5.185  16.802  0.00  0.00    +0.000 HD
BRANCH   9  12
ATOM     12  C   UNL     1      51.258   2.993  17.806  0.00  0.00    +0.000 A 
ATOM     13  N   UNL     1      50.867   1.843  17.283  0.00  0.00    +0.000 NA
ATOM     14  C   UNL     1      51.960   1.015  17.367  0.00  0.00    +0.000 A 
ATOM     15  C   UNL     1      53.020   1.659  17.960  0.00  0.00    +0.000 A 
ATOM     16  N   UNL     1      52.561   2.915  18.234  0.00  0.00    +0.000 N 
ATOM     17  H   UNL     1      53.065   3.678  18.667  0.00  0.00    +0.000 HD
ENDBRANCH   9  12
ENDBRANCH   7  10
ENDBRANCH   1   7
BRANCH   4  18
ATOM     18  C   UNL     1      48.432   7.858  12.049  0.00  0.00    +0.000 C 
BRANCH  18  19
ATOM     19  N   UNL     1      47.671   6.777  11.462  0.00  0.00    +0.000 N 
ATOM     20  C   UNL     1      46.305   6.820  11.373  0.00  0.00    +0.000 C 
ATOM     21  O   UNL     1      45.665   7.803  11.740  0.00  0.00    +0.000 OA
ATOM     22  H   UNL     1      48.151   5.885  11.388  0.00  0.00    +0.000 HD
BRANCH  20  23
ATOM     23  C   UNL     1      45.648   5.663  10.756  0.00  0.00    +0.000 A 
ATOM     24  C   UNL     1      45.721   5.485   9.381  0.00  0.00    +0.000 A 
ATOM     25  S   UNL     1      44.935   4.074   8.833  0.00  0.00    +0.000 S 
ATOM     26  C   UNL     1      44.428   3.678  10.409  0.00  0.00    +0.000 A 
ATOM     27  N   UNL     1      43.670   2.574  10.644  0.00  0.00    +0.000 NA
ATOM     28  C   UNL     1      43.324   2.419  11.878  0.00  0.00    +0.000 A 
ATOM     29  N   UNL     1      43.675   3.261  12.900  0.00  0.00    +0.000 N 
ATOM     30  C   UNL     1      44.482   4.357  12.718  0.00  0.00    +0.000 A 
ATOM     31  O   UNL     1      44.856   5.042  13.665  0.00  0.00    +0.000 OA
ATOM     32  C   UNL     1      44.873   4.598  11.342  0.00  0.00    +0.000 A 
ATOM     33  H   UNL     1      43.386   3.073  13.848  0.00  0.00    +0.000 HD
ENDBRANCH  20  23
ENDBRANCH  18  19
ENDBRANCH   4  18
TORSDOF 6
ENDMDL
MODEL 8
REMARK VINA RESULT:    -6.717      3.172      4.397
REMARK INTER + INTRA:          -9.865
REMARK INTER:                  -9.130
REMARK INTRA:                  -0.735
REMARK UNBOUND:                -0.792
REMARK  Name = 
REMARK  6 active torsions:
REMARK  status: ('A' for Active; 'I' for Inactive)
REMARK    1  A    between atoms: C_2  and  C_25
REMARK    2  A    between atoms: N_3  and  C_4
REMARK    3  A    between atoms: C_4  and  C_5
REMARK    4  A    between atoms: C_8  and  C_9
REMARK    5  A    between atoms: C_9  and  N_10
REMARK    6  A    between atoms: C_11  and  C_13
REMARK                            x       y       z     vdW  Elec       q    Type
REMARK                         _______ _______ _______ _____ _____    ______ ____
ROOT
ATOM      1  C   UNL     1      44.613   4.482  11.746  0.00  0.00    +0.000 A 
ATOM      2  C   UNL     1      44.412   5.734  11.174  0.00  0.00    +0.000 A 
ATOM      3  N   UNL     1      45.002   6.862  11.637  0.00  0.00    +0.000 NA
ATOM      4  C   UNL     1      45.806   6.705  12.722  0.00  0.00    +0.000 A 
ATOM      5  C   UNL     1      45.981   5.460  13.314  0.00  0.00    +0.000 A 
ATOM      6  N   UNL     1      45.398   4.330  12.843  0.00  0.00    +0.000 NA
ENDROOT
BRANCH   1   7
ATOM      7  C   UNL     1      43.965   3.261  11.155  0.00  0.00    +0.000 C 
BRANCH   7  10
ATOM      8  O   UNL     1      44.288   3.764   8.418  0.00  0.00    +0.000 OA
ATOM      9  C   UNL     1      44.977   2.888   8.945  0.00  0.00    +0.000 C 
ATOM     10  N   UNL     1      44.844   2.536  10.267  0.00  0.00    +0.000 N 
ATOM     11  H   UNL     1      45.563   1.929  10.651  0.00  0.00    +0.000 HD
BRANCH   9  12
ATOM     12  C   UNL     1      45.982   2.146   8.214  0.00  0.00    +0.000 A 
ATOM     13  N   UNL     1      46.129   0.832   8.223  0.00  0.00    +0.000 NA
ATOM     14  C   UNL     1      47.176   0.578   7.370  0.00  0.00    +0.000 A 
ATOM     15  C   UNL     1      47.681   1.745   6.850  0.00  0.00    +0.000 A 
ATOM     16  N   UNL     1      46.914   2.734   7.393  0.00  0.00    +0.000 N 
ATOM     17  H   UNL     1      46.987   3.731   7.237  0.00  0.00    +0.000 HD
ENDBRANCH   9  12
ENDBRANCH   7  10
ENDBRANCH   1   7
BRANCH   4  18
ATOM     18  C   UNL     1      46.478   7.928  13.287  0.00  0.00    +0.000 C 
BRANCH  18  19
ATOM     19  N   UNL     1      47.784   8.151  12.709  0.00  0.00    +0.000 N 
ATOM     20  C   UNL     1      48.931   7.740  13.335  0.00  0.00    +0.000 C 
ATOM     21  O   UNL     1      48.902   7.116  14.393  0.00  0.00    +0.000 OA
ATOM     22  H   UNL     1      47.835   8.862  11.985  0.00  0.00    +0.000 HD
BRANCH  20  23
ATOM     23  C   UNL     1      50.195   8.024  12.647  0.00  0.00    +0.000 A 
ATOM     24  C   UNL     1      50.371   7.605  11.335  0.00  0.00    +0.000 A 
ATOM     25  S   UNL     1      51.881   8.045  10.674  0.00  0.00    +0.000 S 
ATOM     26  C   UNL     1      52.371   8.767  12.135  0.00  0.00    +0.000 A 
ATOM     27  N   UNL     1      53.605   9.325  12.261  0.00  0.00    +0.000 NA
ATOM     28  C   UNL     1      53.857   9.799  13.435  0.00  0.00    +0.000 A 
ATOM     29  N   UNL     1      52.985   9.776  14.492  0.00  0.00    +0.000 N 
ATOM     30  C   UNL     1      51.712   9.271  14.396  0.00  0.00    +0.000 A 
ATOM     31  O   UNL     1      50.920   9.345  15.330  0.00  0.00    +0.000 OA
ATOM     32  C   UNL     1      51.387   8.694  13.105  0.00  0.00    +0.000 A 
ATOM     33  H   UNL     1      53.238  10.181  15.381  0.00  0.00    +0.000 HD
ENDBRANCH  20  23
ENDBRANCH  18  19
ENDBRANCH   4  18
TORSDOF 6
ENDMDL
MODEL 9
REMARK VINA RESULT:    -6.305      2.804      4.361
REMARK INTER + INTRA:          -9.308
REMARK INTER:                  -8.368
REMARK INTRA:                  -0.940
REMARK UNBOUND:                -0.792
REMARK  Name = 
REMARK  6 active torsions:
REMARK  status: ('A' for Active; 'I' for Inactive)
REMARK    1  A    between atoms: C_2  and  C_25
REMARK    2  A    between atoms: N_3  and  C_4
REMARK    3  A    between atoms: C_4  and  C_5
REMARK    4  A    between atoms: C_8  and  C_9
REMARK    5  A    between atoms: C_9  and  N_10
REMARK    6  A    between atoms: C_11  and  C_13
REMARK                            x       y       z     vdW  Elec       q    Type
REMARK                         _______ _______ _______ _____ _____    ______ ____
ROOT
ATOM      1  C   UNL     1      47.892   7.549  13.236  0.00  0.00    +0.000 A 
ATOM      2  C   UNL     1      48.120   6.313  13.831  0.00  0.00    +0.000 A 
ATOM      3  N   UNL     1      48.499   6.174  15.124  0.00  0.00    +0.000 NA
ATOM      4  C   UNL     1      48.661   7.330  15.820  0.00  0.00    +0.000 A 
ATOM      5  C   UNL     1      48.466   8.567  15.216  0.00  0.00    +0.000 A 
ATOM      6  N   UNL     1      48.076   8.705  13.925  0.00  0.00    +0.000 NA
ENDROOT
BRANCH   1   7
ATOM      7  C   UNL     1      47.427   7.634  11.808  0.00  0.00    +0.000 C 
BRANCH   7  10
ATOM      8  O   UNL     1      44.687   7.248  11.378  0.00  0.00    +0.000 OA
ATOM      9  C   UNL     1      45.463   6.329  11.113  0.00  0.00    +0.000 C 
ATOM     10  N   UNL     1      46.815   6.410  11.345  0.00  0.00    +0.000 N 
ATOM     11  H   UNL     1      47.392   5.677  10.942  0.00  0.00    +0.000 HD
BRANCH   9  12
ATOM     12  C   UNL     1      45.018   5.077  10.538  0.00  0.00    +0.000 A 
ATOM     13  N   UNL     1      44.596   4.024  11.217  0.00  0.00    +0.000 NA
ATOM     14  C   UNL     1      44.251   3.093  10.266  0.00  0.00    +0.000 A 
ATOM     15  C   UNL     1      44.479   3.576   9.000  0.00  0.00    +0.000 A 
ATOM     16  N   UNL     1      44.965   4.837   9.186  0.00  0.00    +0.000 N 
ATOM     17  H   UNL     1      45.241   5.505   8.478  0.00  0.00    +0.000 HD
ENDBRANCH   9  12
ENDBRANCH   7  10
ENDBRANCH   1   7
BRANCH   4  18
ATOM     18  C   UNL     1      49.094   7.235  17.259  0.00  0.00    +0.000 C 
BRANCH  18  19
ATOM     19  N   UNL     1      50.105   6.221  17.460  0.00  0.00    +0.000 N 
ATOM     20  C   UNL     1      50.386   5.718  18.703  0.00  0.00    +0.000 C 
ATOM     21  O   UNL     1      49.755   6.066  19.698  0.00  0.00    +0.000 OA
ATOM     22  H   UNL     1      50.782   6.113  16.710  0.00  0.00    +0.000 HD
BRANCH  20  23
ATOM     23  C   UNL     1      51.432   4.693  18.777  0.00  0.00    +0.000 A 
ATOM     24  C   UNL     1      52.603   4.955  19.475  0.00  0.00    +0.000 A 
ATOM     25  S   UNL     1      53.697   3.646  19.491  0.00  0.00    +0.000 S 
ATOM     26  C   UNL     1      52.664   2.701  18.523  0.00  0.00    +0.000 A 
ATOM     27  N   UNL     1      53.022   1.448  18.135  0.00  0.00    +0.000 NA
ATOM     28  C   UNL     1      52.162   0.862  17.371  0.00  0.00    +0.000 A 
ATOM     29  N   UNL     1      50.972   1.409  16.968  0.00  0.00    +0.000 N 
ATOM     30  C   UNL     1      50.546   2.649  17.379  0.00  0.00    +0.000 A 
ATOM     31  O   UNL     1      49.437   3.078  17.078  0.00  0.00    +0.000 OA
ATOM     32  C   UNL     1      51.491   3.366  18.213  0.00  0.00    +0.000 A 
ATOM     33  H   UNL     1      50.334   0.890  16.384  0.00  0.00    +0.000 HD
ENDBRANCH  20  23
ENDBRANCH  18  19
ENDBRANCH   4  18
TORSDOF 6
ENDMDL
