MODEL 1
REMARK VINA RESULT:    -7.656      0.000      0.000
REMARK INTER + INTRA:         -12.435
REMARK INTER:                 -11.236
REMARK INTRA:                  -1.198
REMARK UNBOUND:                -1.198
REMARK  Name = 
REMARK  9 active torsions:
REMARK  status: ('A' for Active; 'I' for Inactive)
REMARK    1  A    between atoms: C_1  and  O_2
REMARK    2  A    between atoms: O_2  and  C_3
REMARK    3  A    between atoms: C_10  and  C_11
REMARK    4  A    between atoms: N_13  and  C_14
REMARK    5  A    between atoms: C_14  and  C_15
REMARK    6  A    between atoms: C_18  and  C_19
REMARK    7  A    between atoms: C_19  and  C_20
REMARK    8  A    between atoms: C_20  and  C_21
REMARK    9  A    between atoms: C_21  and  N_22
REMARK                            x       y       z     vdW  Elec       q    Type
REMARK                         _______ _______ _______ _____ _____    ______ ____
ROOT
ATOM      1  C   UNL     1      48.240   6.808  13.941  0.00  0.00    +0.000 C 
ENDROOT
BRANCH   1   2
ATOM      2  C   UNL     1      47.149   5.947  13.366  0.00  0.00    +0.000 A 
ATOM      3  C   UNL     1      46.585   6.214  12.117  0.00  0.00    +0.000 A 
ATOM      4  C   UNL     1      45.647   5.335  11.573  0.00  0.00    +0.000 A 
ATOM      5  C   UNL     1      45.253   4.225  12.313  0.00  0.00    +0.000 A 
ATOM      6  N   UNL     1      45.742   3.977  13.552  0.00  0.00    +0.000 NA
ATOM      7  C   UNL     1      46.669   4.834  14.046  0.00  0.00    +0.000 A 
BRANCH   5   8
ATOM      8  C   UNL     1      44.261   3.237  11.749  0.00  0.00    +0.000 C 
BRANCH   8   9
ATOM      9  C   UNL     1      44.111   3.340  10.228  0.00  0.00    +0.000 C 
BRANCH   9  10
ATOM     10  C   UNL     1      44.583   2.090   9.469  0.00  0.00    +0.000 C 
BRANCH  10  11
ATOM     11  N   UNL     1      45.749   2.326   8.601  0.00  0.00    +0.000 NA
ATOM     12  C   UNL     1      46.251   1.088   7.979  0.00  0.00    +0.000 C 
ATOM     13  C   UNL     1      47.525   1.359   7.180  0.00  0.00    +0.000 C 
ATOM     14  C   UNL     1      47.295   2.434   6.124  0.00  0.00    +0.000 C 
ATOM     15  C   UNL     1      46.666   3.673   6.753  0.00  0.00    +0.000 C 
ATOM     16  C   UNL     1      45.419   3.316   7.564  0.00  0.00    +0.000 C 
ENDBRANCH  10  11
ENDBRANCH   9  10
ENDBRANCH   8   9
ENDBRANCH   5   8
ENDBRANCH   1   2
BRANCH   1  19
ATOM     17  C   UNL     1      49.247   7.398  16.115  0.00  0.00    +0.000 C 
ATOM     18  O   UNL     1      50.123   8.083  15.590  0.00  0.00    +0.000 OA
ATOM     19  N   UNL     1      48.295   6.740  15.378  0.00  0.00    +0.000 N 
ATOM     20  H   UNL     1      47.611   6.160  15.844  0.00  0.00    +0.000 HD
BRANCH  17  28
ATOM     21  C   UNL     1      48.908   4.716  18.271  0.00  0.00    +0.000 A 
ATOM     22  N   UNL     1      48.765   3.930  19.355  0.00  0.00    +0.000 NA
ATOM     23  C   UNL     1      48.726   4.524  20.561  0.00  0.00    +0.000 A 
ATOM     24  N   UNL     1      48.811   5.833  20.830  0.00  0.00    +0.000 NA
ATOM     25  C   UNL     1      48.952   6.561  19.714  0.00  0.00    +0.000 A 
ATOM     26  O   UNL     1      49.068   7.917  19.728  0.00  0.00    +0.000 OA
ATOM     27  C   UNL     1      49.196   8.320  18.440  0.00  0.00    +0.000 A 
ATOM     28  C   UNL     1      49.160   7.248  17.563  0.00  0.00    +0.000 A 
ATOM     29  C   UNL     1      49.011   6.099  18.407  0.00  0.00    +0.000 A 
BRANCH  21  31
ATOM     30  C   UNL     1      48.240   2.954  16.886  0.00  0.00    +0.000 C 
ATOM     31  O   UNL     1      49.016   4.139  17.024  0.00  0.00    +0.000 OA
ENDBRANCH  21  31
ENDBRANCH  17  28
ENDBRANCH   1  19
TORSDOF 8
ENDMDL
MODEL 2
REMARK VINA RESULT:    -7.044      1.698      2.061
REMARK INTER + INTRA:         -11.537
REMARK INTER:                 -10.392
REMARK INTRA:                  -1.144
REMARK UNBOUND:                -1.198
REMARK  Name = 
REMARK  9 active torsions:
REMARK  status: ('A' for Active; 'I' for Inactive)
REMARK    1  A    between atoms: C_1  and  O_2
REMARK    2  A    between atoms: O_2  and  C_3
REMARK    3  A    between atoms: C_10  and  C_11
REMARK    4  A    between atoms: N_13  and  C_14
REMARK    5  A    between atoms: C_14  and  C_15
REMARK    6  A    between atoms: C_18  and  C_19
REMARK    7  A    between atoms: C_19  and  C_20
REMARK    8  A    between atoms: C_20  and  C_21
REMARK    9  A    between atoms: C_21  and  N_22
REMARK                            x       y       z     vdW  Elec       q    Type
REMARK                         _______ _______ _______ _____ _____    ______ ____
ROOT
ATOM      1  C   UNL     1      48.880   7.604  12.634  0.00  0.00    +0.000 C 
ENDROOT
BRANCH   1   2
ATOM      2  C   UNL     1      47.667   6.744  12.409  0.00  0.00    +0.000 A 
ATOM      3  C   UNL     1      46.778   6.988  11.360  0.00  0.00    +0.000 A 
ATOM      4  C   UNL     1      45.722   6.109  11.122  0.00  0.00    +0.000 A 
ATOM      5  C   UNL     1      45.543   5.021  11.971  0.00  0.00    +0.000 A 
ATOM      6  N   UNL     1      46.357   4.796  13.031  0.00  0.00    +0.000 NA
ATOM      7  C   UNL     1      47.390   5.652  13.224  0.00  0.00    +0.000 A 
BRANCH   5   8
ATOM      8  C   UNL     1      44.428   4.032  11.732  0.00  0.00    +0.000 C 
BRANCH   8   9
ATOM      9  C   UNL     1      44.185   3.752  10.245  0.00  0.00    +0.000 C 
BRANCH   9  10
ATOM     10  C   UNL     1      44.708   2.385   9.776  0.00  0.00    +0.000 C 
BRANCH  10  11
ATOM     11  N   UNL     1      45.780   2.472   8.769  0.00  0.00    +0.000 NA
ATOM     12  C   UNL     1      46.065   1.173   8.134  0.00  0.00    +0.000 C 
ATOM     13  C   UNL     1      47.255   1.285   7.181  0.00  0.00    +0.000 C 
ATOM     14  C   UNL     1      47.018   2.357   6.126  0.00  0.00    +0.000 C 
ATOM     15  C   UNL     1      46.607   3.671   6.782  0.00  0.00    +0.000 C 
ATOM     16  C   UNL     1      45.436   3.472   7.745  0.00  0.00    +0.000 C 
ENDBRANCH  10  11
ENDBRANCH   9  10
ENDBRANCH   8   9
ENDBRANCH   5   8
ENDBRANCH   1   2
BRANCH   1  19
ATOM     17  C   UNL     1      50.058   7.743  14.798  0.00  0.00    +0.000 C 
ATOM     18  O   UNL     1      49.604   8.860  15.041  0.00  0.00    +0.000 OA
ATOM     19  N   UNL     1      49.756   7.067  13.643  0.00  0.00    +0.000 N 
ATOM     20  H   UNL     1      50.175   6.165  13.464  0.00  0.00    +0.000 HD
BRANCH  17  28
ATOM     21  C   UNL     1      49.632   5.341  17.248  0.00  0.00    +0.000 A 
ATOM     22  N   UNL     1      49.813   4.463  18.253  0.00  0.00    +0.000 NA
ATOM     23  C   UNL     1      51.057   4.315  18.742  0.00  0.00    +0.000 A 
ATOM     24  N   UNL     1      52.170   4.948  18.348  0.00  0.00    +0.000 NA
ATOM     25  C   UNL     1      51.925   5.806  17.348  0.00  0.00    +0.000 A 
ATOM     26  O   UNL     1      52.899   6.562  16.771  0.00  0.00    +0.000 OA
ATOM     27  C   UNL     1      52.307   7.305  15.803  0.00  0.00    +0.000 A 
ATOM     28  C   UNL     1      50.945   7.059  15.733  0.00  0.00    +0.000 A 
ATOM     29  C   UNL     1      50.706   6.068  16.740  0.00  0.00    +0.000 A 
BRANCH  21  31
ATOM     30  C   UNL     1      47.527   4.367  16.943  0.00  0.00    +0.000 C 
ATOM     31  O   UNL     1      48.383   5.473  16.681  0.00  0.00    +0.000 OA
ENDBRANCH  21  31
ENDBRANCH  17  28
ENDBRANCH   1  19
TORSDOF 8
ENDMDL
MODEL 3
REMARK VINA RESULT:    -6.399      1.573      2.474
REMARK INTER + INTRA:         -10.590
REMARK INTER:                 -10.104
REMARK INTRA:                  -0.486
REMARK UNBOUND:                -1.198
REMARK  Name = 
REMARK  9 active torsions:
REMARK  status: ('A' for Active; 'I' for Inactive)
REMARK    1  A    between atoms: C_1  and  O_2
REMARK    2  A    between atoms: O_2  and  C_3
REMARK    3  A    between atoms: C_10  and  C_11
REMARK    4  A    between atoms: N_13  and  C_14
REMARK    5  A    between atoms: C_14  and  C_15
REMARK    6  A    between atoms: C_18  and  C_19
REMARK    7  A    between atoms: C_19  and  C_20
REMARK    8  A    between atoms: C_20  and  C_21
REMARK    9  A    between atoms: C_21  and  N_22
REMARK                            x       y       z     vdW  Elec       q    Type
REMARK                         _______ _______ _______ _____ _____    ______ ____
ROOT
ATOM      1  C   UNL     1      47.401   6.565  13.895  0.00  0.00    +0.000 C 
ENDROOT
BRANCH   1   2
ATOM      2  C   UNL     1      46.342   5.728  13.234  0.00  0.00    +0.000 A 
ATOM      3  C   UNL     1      45.451   6.270  12.305  0.00  0.00    +0.000 A 
ATOM      4  C   UNL     1      44.549   5.441  11.638  0.00  0.00    +0.000 A 
ATOM      5  C   UNL     1      44.520   4.085  11.948  0.00  0.00    +0.000 A 
ATOM      6  N   UNL     1      45.333   3.546  12.888  0.00  0.00    +0.000 NA
ATOM      7  C   UNL     1      46.216   4.370  13.504  0.00  0.00    +0.000 A 
BRANCH   5   8
ATOM      8  C   UNL     1      43.577   3.151  11.229  0.00  0.00    +0.000 C 
BRANCH   8   9
ATOM      9  C   UNL     1      44.223   2.455  10.027  0.00  0.00    +0.000 C 
BRANCH   9  10
ATOM     10  C   UNL     1      44.507   3.393   8.843  0.00  0.00    +0.000 C 
BRANCH  10  11
ATOM     11  N   UNL     1      45.391   2.809   7.820  0.00  0.00    +0.000 NA
ATOM     12  C   UNL     1      46.305   3.802   7.229  0.00  0.00    +0.000 C 
ATOM     13  C   UNL     1      47.122   3.181   6.096  0.00  0.00    +0.000 C 
ATOM     14  C   UNL     1      47.895   1.960   6.579  0.00  0.00    +0.000 C 
ATOM     15  C   UNL     1      46.965   0.987   7.295  0.00  0.00    +0.000 C 
ATOM     16  C   UNL     1      46.157   1.689   8.389  0.00  0.00    +0.000 C 
ENDBRANCH  10  11
ENDBRANCH   9  10
ENDBRANCH   8   9
ENDBRANCH   5   8
ENDBRANCH   1   2
BRANCH   1  19
ATOM     17  C   UNL     1      48.845   6.569  15.897  0.00  0.00    +0.000 C 
ATOM     18  O   UNL     1      49.438   7.585  15.539  0.00  0.00    +0.000 OA
ATOM     19  N   UNL     1      47.842   6.007  15.148  0.00  0.00    +0.000 N 
ATOM     20  H   UNL     1      47.400   5.153  15.458  0.00  0.00    +0.000 HD
BRANCH  17  28
ATOM     21  C   UNL     1      51.243   7.002  18.349  0.00  0.00    +0.000 A 
ATOM     22  N   UNL     1      52.023   6.880  19.440  0.00  0.00    +0.000 NA
ATOM     23  C   UNL     1      51.746   5.887  20.303  0.00  0.00    +0.000 A 
ATOM     24  N   UNL     1      50.769   4.977  20.214  0.00  0.00    +0.000 NA
ATOM     25  C   UNL     1      50.028   5.150  19.110  0.00  0.00    +0.000 A 
ATOM     26  O   UNL     1      48.969   4.354  18.801  0.00  0.00    +0.000 OA
ATOM     27  C   UNL     1      48.455   4.809  17.632  0.00  0.00    +0.000 A 
ATOM     28  C   UNL     1      49.165   5.898  17.152  0.00  0.00    +0.000 A 
ATOM     29  C   UNL     1      50.186   6.122  18.132  0.00  0.00    +0.000 A 
BRANCH  21  31
ATOM     30  C   UNL     1      52.651   7.904  16.714  0.00  0.00    +0.000 C 
ATOM     31  O   UNL     1      51.458   8.046  17.476  0.00  0.00    +0.000 OA
ENDBRANCH  21  31
ENDBRANCH  17  28
ENDBRANCH   1  19
TORSDOF 8
ENDMDL
MODEL 4
REMARK VINA RESULT:    -6.295      2.420      3.686
REMARK INTER + INTRA:         -10.438
REMARK INTER:                  -9.383
REMARK INTRA:                  -1.055
REMARK UNBOUND:                -1.198
REMARK  Name = 
REMARK  9 active torsions:
REMARK  status: ('A' for Active; 'I' for Inactive)
REMARK    1  A    between atoms: C_1  and  O_2
REMARK    2  A    between atoms: O_2  and  C_3
REMARK    3  A    between atoms: C_10  and  C_11
REMARK    4  A    between atoms: N_13  and  C_14
REMARK    5  A    between atoms: C_14  and  C_15
REMARK    6  A    between atoms: C_18  and  C_19
REMARK    7  A    between atoms: C_19  and  C_20
REMARK    8  A    between atoms: C_20  and  C_21
REMARK    9  A    between atoms: C_21  and  N_22
REMARK                            x       y       z     vdW  Elec       q    Type
REMARK                         _______ _______ _______ _____ _____    ______ ____
ROOT
ATOM      1  C   UNL     1      47.704   8.207  13.107  0.00  0.00    +0.000 C 
ENDROOT
BRANCH   1   2
ATOM      2  C   UNL     1      46.665   7.208  12.681  0.00  0.00    +0.000 A 
ATOM      3  C   UNL     1      45.619   7.557  11.823  0.00  0.00    +0.000 A 
ATOM      4  C   UNL     1      44.733   6.579  11.370  0.00  0.00    +0.000 A 
ATOM      5  C   UNL     1      44.881   5.271  11.821  0.00  0.00    +0.000 A 
ATOM      6  N   UNL     1      45.851   4.920  12.698  0.00  0.00    +0.000 NA
ATOM      7  C   UNL     1      46.712   5.885  13.105  0.00  0.00    +0.000 A 
BRANCH   5   8
ATOM      8  C   UNL     1      43.960   4.180  11.332  0.00  0.00    +0.000 C 
BRANCH   8   9
ATOM      9  C   UNL     1      44.629   3.237  10.328  0.00  0.00    +0.000 C 
BRANCH   9  10
ATOM     10  C   UNL     1      44.457   3.665   8.862  0.00  0.00    +0.000 C 
BRANCH  10  11
ATOM     11  N   UNL     1      45.320   2.930   7.921  0.00  0.00    +0.000 NA
ATOM     12  C   UNL     1      46.372   3.779   7.337  0.00  0.00    +0.000 C 
ATOM     13  C   UNL     1      47.170   3.008   6.286  0.00  0.00    +0.000 C 
ATOM     14  C   UNL     1      47.770   1.736   6.872  0.00  0.00    +0.000 C 
ATOM     15  C   UNL     1      46.697   0.915   7.579  0.00  0.00    +0.000 C 
ATOM     16  C   UNL     1      45.920   1.763   8.588  0.00  0.00    +0.000 C 
ENDBRANCH  10  11
ENDBRANCH   9  10
ENDBRANCH   8   9
ENDBRANCH   5   8
ENDBRANCH   1   2
BRANCH   1  19
ATOM     17  C   UNL     1      48.926   7.872  15.226  0.00  0.00    +0.000 C 
ATOM     18  O   UNL     1      48.193   8.646  15.839  0.00  0.00    +0.000 OA
ATOM     19  N   UNL     1      48.755   7.608  13.890  0.00  0.00    +0.000 N 
ATOM     20  H   UNL     1      49.397   6.991  13.412  0.00  0.00    +0.000 HD
BRANCH  17  28
ATOM     21  C   UNL     1      52.361   7.815  14.838  0.00  0.00    +0.000 A 
ATOM     22  N   UNL     1      53.677   7.546  14.943  0.00  0.00    +0.000 NA
ATOM     23  C   UNL     1      54.064   6.656  15.874  0.00  0.00    +0.000 A 
ATOM     24  N   UNL     1      53.289   5.983  16.733  0.00  0.00    +0.000 NA
ATOM     25  C   UNL     1      51.994   6.293  16.580  0.00  0.00    +0.000 A 
ATOM     26  O   UNL     1      51.010   5.744  17.344  0.00  0.00    +0.000 OA
ATOM     27  C   UNL     1      49.835   6.278  16.926  0.00  0.00    +0.000 A 
ATOM     28  C   UNL     1      50.023   7.173  15.885  0.00  0.00    +0.000 A 
ATOM     29  C   UNL     1      51.441   7.185  15.672  0.00  0.00    +0.000 A 
BRANCH  21  31
ATOM     30  C   UNL     1      52.874   9.022  12.901  0.00  0.00    +0.000 C 
ATOM     31  O   UNL     1      51.934   8.767  13.938  0.00  0.00    +0.000 OA
ENDBRANCH  21  31
ENDBRANCH  17  28
ENDBRANCH   1  19
TORSDOF 8
ENDMDL
MODEL 5
REMARK VINA RESULT:    -6.083      3.182      4.639
REMARK INTER + INTRA:         -10.127
REMARK INTER:                  -9.408
REMARK INTRA:                  -0.719
REMARK UNBOUND:                -1.198
REMARK  Name = 
REMARK  9 active torsions:
REMARK  status: ('A' for Active; 'I' for Inactive)
REMARK    1  A    between atoms: C_1  and  O_2
REMARK    2  A    between atoms: O_2  and  C_3
REMARK    3  A    between atoms: C_10  and  C_11
REMARK    4  A    between atoms: N_13  and  C_14
REMARK    5  A    between atoms: C_14  and  C_15
REMARK    6  A    between atoms: C_18  and  C_19
REMARK    7  A    between atoms: C_19  and  C_20
REMARK    8  A    between atoms: C_20  and  C_21
REMARK    9  A    between atoms: C_21  and  N_22
REMARK                            x       y       z     vdW  Elec       q    Type
REMARK                         _______ _______ _______ _____ _____    ______ ____
ROOT
ATOM      1  C   UNL     1      45.668   8.089  12.940  0.00  0.00    +0.000 C 
ENDROOT
BRANCH   1   2
ATOM      2  C   UNL     1      45.019   6.792  12.542  0.00  0.00    +0.000 A 
ATOM      3  C   UNL     1      43.899   6.757  11.708  0.00  0.00    +0.000 A 
ATOM      4  C   UNL     1      43.387   5.532  11.279  0.00  0.00    +0.000 A 
ATOM      5  C   UNL     1      43.978   4.357  11.732  0.00  0.00    +0.000 A 
ATOM      6  N   UNL     1      45.028   4.364  12.587  0.00  0.00    +0.000 NA
ATOM      7  C   UNL     1      45.520   5.568  12.970  0.00  0.00    +0.000 A 
BRANCH   5   8
ATOM      8  C   UNL     1      43.469   3.013  11.270  0.00  0.00    +0.000 C 
BRANCH   8   9
ATOM      9  C   UNL     1      44.322   2.402  10.153  0.00  0.00    +0.000 C 
BRANCH   9  10
ATOM     10  C   UNL     1      44.456   3.297   8.911  0.00  0.00    +0.000 C 
BRANCH  10  11
ATOM     11  N   UNL     1      45.388   2.774   7.898  0.00  0.00    +0.000 NA
ATOM     12  C   UNL     1      46.393   3.769   7.487  0.00  0.00    +0.000 C 
ATOM     13  C   UNL     1      47.265   3.224   6.356  0.00  0.00    +0.000 C 
ATOM     14  C   UNL     1      47.937   1.917   6.759  0.00  0.00    +0.000 C 
ATOM     15  C   UNL     1      46.906   0.929   7.294  0.00  0.00    +0.000 C 
ATOM     16  C   UNL     1      46.050   1.558   8.396  0.00  0.00    +0.000 C 
ENDBRANCH  10  11
ENDBRANCH   9  10
ENDBRANCH   8   9
ENDBRANCH   5   8
ENDBRANCH   1   2
BRANCH   1  19
ATOM     17  C   UNL     1      48.053   8.529  13.398  0.00  0.00    +0.000 C 
ATOM     18  O   UNL     1      47.832   8.835  14.569  0.00  0.00    +0.000 OA
ATOM     19  N   UNL     1      47.050   8.159  12.538  0.00  0.00    +0.000 N 
ATOM     20  H   UNL     1      47.266   7.947  11.574  0.00  0.00    +0.000 HD
BRANCH  17  28
ATOM     21  C   UNL     1      51.218   8.061  14.708  0.00  0.00    +0.000 A 
ATOM     22  N   UNL     1      52.549   7.953  14.885  0.00  0.00    +0.000 NA
ATOM     23  C   UNL     1      53.341   8.121  13.811  0.00  0.00    +0.000 A 
ATOM     24  N   UNL     1      52.967   8.391  12.554  0.00  0.00    +0.000 NA
ATOM     25  C   UNL     1      51.634   8.485  12.443  0.00  0.00    +0.000 A 
ATOM     26  O   UNL     1      51.011   8.745  11.261  0.00  0.00    +0.000 OA
ATOM     27  C   UNL     1      49.678   8.768  11.510  0.00  0.00    +0.000 A 
ATOM     28  C   UNL     1      49.404   8.533  12.848  0.00  0.00    +0.000 A 
ATOM     29  C   UNL     1      50.691   8.337  13.449  0.00  0.00    +0.000 A 
BRANCH  21  31
ATOM     30  C   UNL     1      50.419   8.861  16.755  0.00  0.00    +0.000 C 
ATOM     31  O   UNL     1      50.373   7.833  15.772  0.00  0.00    +0.000 OA
ENDBRANCH  21  31
ENDBRANCH  17  28
ENDBRANCH   1  19
TORSDOF 8
ENDMDL
MODEL 6
REMARK VINA RESULT:    -5.493      3.778      6.384
REMARK INTER + INTRA:          -9.260
REMARK INTER:                  -7.619
REMARK INTRA:                  -1.642
REMARK UNBOUND:                -1.198
REMARK  Name = 
REMARK  9 active torsions:
REMARK  status: ('A' for Active; 'I' for Inactive)
REMARK    1  A    between atoms: C_1  and  O_2
REMARK    2  A    between atoms: O_2  and  C_3
REMARK    3  A    between atoms: C_10  and  C_11
REMARK    4  A    between atoms: N_13  and  C_14
REMARK    5  A    between atoms: C_14  and  C_15
REMARK    6  A    between atoms: C_18  and  C_19
REMARK    7  A    between atoms: C_19  and  C_20
REMARK    8  A    between atoms: C_20  and  C_21
REMARK    9  A    between atoms: C_21  and  N_22
REMARK                            x       y       z     vdW  Elec       q    Type
REMARK                         _______ _______ _______ _____ _____    ______ ____
ROOT
ATOM      1  C   UNL     1      46.385   5.589  13.411  0.00  0.00    +0.000 C 
ENDROOT
BRANCH   1   2
ATOM      2  C   UNL     1      46.922   6.900  12.908  0.00  0.00    +0.000 A 
ATOM      3  C   UNL     1      48.199   7.005  12.352  0.00  0.00    +0.000 A 
ATOM      4  C   UNL     1      48.623   8.216  11.804  0.00  0.00    +0.000 A 
ATOM      5  C   UNL     1      47.778   9.320  11.866  0.00  0.00    +0.000 A 
ATOM      6  N   UNL     1      46.558   9.257  12.453  0.00  0.00    +0.000 NA
ATOM      7  C   UNL     1      46.162   8.063  12.956  0.00  0.00    +0.000 A 
BRANCH   5   8
ATOM      8  C   UNL     1      48.189  10.640  11.262  0.00  0.00    +0.000 C 
BRANCH   8   9
ATOM      9  C   UNL     1      49.542  11.140  11.779  0.00  0.00    +0.000 C 
BRANCH   9  10
ATOM     10  C   UNL     1      50.665  11.091  10.731  0.00  0.00    +0.000 C 
BRANCH  10  11
ATOM     11  N   UNL     1      51.870  10.373  11.181  0.00  0.00    +0.000 NA
ATOM     12  C   UNL     1      51.845  10.077  12.624  0.00  0.00    +0.000 C 
ATOM     13  C   UNL     1      53.159   9.434  13.068  0.00  0.00    +0.000 C 
ATOM     14  C   UNL     1      53.456   8.174  12.266  0.00  0.00    +0.000 C 
ATOM     15  C   UNL     1      53.365   8.458  10.771  0.00  0.00    +0.000 C 
ATOM     16  C   UNL     1      52.039   9.131  10.410  0.00  0.00    +0.000 C 
ENDBRANCH  10  11
ENDBRANCH   9  10
ENDBRANCH   8   9
ENDBRANCH   5   8
ENDBRANCH   1   2
BRANCH   1  19
ATOM     17  C   UNL     1      47.311   4.091  15.140  0.00  0.00    +0.000 C 
ATOM     18  O   UNL     1      47.442   3.160  14.347  0.00  0.00    +0.000 OA
ATOM     19  N   UNL     1      46.798   5.306  14.761  0.00  0.00    +0.000 N 
ATOM     20  H   UNL     1      46.675   6.037  15.449  0.00  0.00    +0.000 HD
BRANCH  17  28
ATOM     21  C   UNL     1      48.928   6.136  17.412  0.00  0.00    +0.000 A 
ATOM     22  N   UNL     1      49.523   6.647  18.506  0.00  0.00    +0.000 NA
ATOM     23  C   UNL     1      49.573   5.881  19.610  0.00  0.00    +0.000 A 
ATOM     24  N   UNL     1      49.095   4.640  19.765  0.00  0.00    +0.000 NA
ATOM     25  C   UNL     1      48.515   4.188  18.644  0.00  0.00    +0.000 A 
ATOM     26  O   UNL     1      47.947   2.954  18.555  0.00  0.00    +0.000 OA
ATOM     27  C   UNL     1      47.459   2.830  17.296  0.00  0.00    +0.000 A 
ATOM     28  C   UNL     1      47.703   3.965  16.540  0.00  0.00    +0.000 A 
ATOM     29  C   UNL     1      48.384   4.854  17.434  0.00  0.00    +0.000 A 
BRANCH  21  31
ATOM     30  C   UNL     1      50.022   7.061  15.563  0.00  0.00    +0.000 C 
ATOM     31  O   UNL     1      48.803   6.915  16.282  0.00  0.00    +0.000 OA
ENDBRANCH  21  31
ENDBRANCH  17  28
ENDBRANCH   1  19
TORSDOF 8
ENDMDL
MODEL 7
REMARK VINA RESULT:    -5.442      3.646      5.381
REMARK INTER + INTRA:          -9.186
REMARK INTER:                  -8.254
REMARK INTRA:                  -0.932
REMARK UNBOUND:                -1.198
REMARK  Name = 
REMARK  9 active torsions:
REMARK  status: ('A' for Active; 'I' for Inactive)
REMARK    1  A    between atoms: C_1  and  O_2
REMARK    2  A    between atoms: O_2  and  C_3
REMARK    3  A    between atoms: C_10  and  C_11
REMARK    4  A    between atoms: N_13  and  C_14
REMARK    5  A    between atoms: C_14  and  C_15
REMARK    6  A    between atoms: C_18  and  C_19
REMARK    7  A    between atoms: C_19  and  C_20
REMARK    8  A    between atoms: C_20  and  C_21
REMARK    9  A    between atoms: C_21  and  N_22
REMARK                            x       y       z     vdW  Elec       q    Type
REMARK                         _______ _______ _______ _____ _____    ______ ____
ROOT
ATOM      1  C   UNL     1      47.587   8.850  12.748  0.00  0.00    +0.000 C 
ENDROOT
BRANCH   1   2
ATOM      2  C   UNL     1      46.950   7.489  12.686  0.00  0.00    +0.000 A 
ATOM      3  C   UNL     1      46.208   7.077  11.577  0.00  0.00    +0.000 A 
ATOM      4  C   UNL     1      45.718   5.772  11.513  0.00  0.00    +0.000 A 
ATOM      5  C   UNL     1      45.940   4.913  12.584  0.00  0.00    +0.000 A 
ATOM      6  N   UNL     1      46.607   5.308  13.695  0.00  0.00    +0.000 NA
ATOM      7  C   UNL     1      47.092   6.573  13.722  0.00  0.00    +0.000 A 
BRANCH   5   8
ATOM      8  C   UNL     1      45.450   3.486  12.541  0.00  0.00    +0.000 C 
BRANCH   8   9
ATOM      9  C   UNL     1      43.982   3.369  12.118  0.00  0.00    +0.000 C 
BRANCH   9  10
ATOM     10  C   UNL     1      43.775   2.631  10.786  0.00  0.00    +0.000 C 
BRANCH  10  11
ATOM     11  N   UNL     1      44.862   2.839   9.815  0.00  0.00    +0.000 NA
ATOM     12  C   UNL     1      45.145   1.633   9.017  0.00  0.00    +0.000 C 
ATOM     13  C   UNL     1      46.351   1.858   8.104  0.00  0.00    +0.000 C 
ATOM     14  C   UNL     1      46.140   3.064   7.198  0.00  0.00    +0.000 C 
ATOM     15  C   UNL     1      45.731   4.283   8.017  0.00  0.00    +0.000 C 
ATOM     16  C   UNL     1      44.543   3.970   8.929  0.00  0.00    +0.000 C 
ENDBRANCH  10  11
ENDBRANCH   9  10
ENDBRANCH   8   9
ENDBRANCH   5   8
ENDBRANCH   1   2
BRANCH   1  19
ATOM     17  C   UNL     1      49.994   8.312  12.662  0.00  0.00    +0.000 C 
ATOM     18  O   UNL     1      49.910   7.850  11.525  0.00  0.00    +0.000 OA
ATOM     19  N   UNL     1      48.905   8.815  13.328  0.00  0.00    +0.000 N 
ATOM     20  H   UNL     1      49.007   9.156  14.274  0.00  0.00    +0.000 HD
BRANCH  17  28
ATOM     21  C   UNL     1      53.257   9.032  11.774  0.00  0.00    +0.000 A 
ATOM     22  N   UNL     1      54.590   9.228  11.768  0.00  0.00    +0.000 NA
ATOM     23  C   UNL     1      55.255   9.058  12.924  0.00  0.00    +0.000 A 
ATOM     24  N   UNL     1      54.749   8.707  14.113  0.00  0.00    +0.000 NA
ATOM     25  C   UNL     1      53.422   8.527  14.055  0.00  0.00    +0.000 A 
ATOM     26  O   UNL     1      52.678   8.174  15.138  0.00  0.00    +0.000 OA
ATOM     27  C   UNL     1      51.390   8.083  14.725  0.00  0.00    +0.000 A 
ATOM     28  C   UNL     1      51.266   8.364  13.374  0.00  0.00    +0.000 A 
ATOM     29  C   UNL     1      52.600   8.665  12.945  0.00  0.00    +0.000 A 
BRANCH  21  31
ATOM     30  C   UNL     1      52.285  10.638  10.378  0.00  0.00    +0.000 C 
ATOM     31  O   UNL     1      52.534   9.258  10.623  0.00  0.00    +0.000 OA
ENDBRANCH  21  31
ENDBRANCH  17  28
ENDBRANCH   1  19
TORSDOF 8
ENDMDL
MODEL 8
REMARK VINA RESULT:    -5.075      4.416      6.023
REMARK INTER + INTRA:          -8.647
REMARK INTER:                  -7.908
REMARK INTRA:                  -0.739
REMARK UNBOUND:                -1.198
REMARK  Name = 
REMARK  9 active torsions:
REMARK  status: ('A' for Active; 'I' for Inactive)
REMARK    1  A    between atoms: C_1  and  O_2
REMARK    2  A    between atoms: O_2  and  C_3
REMARK    3  A    between atoms: C_10  and  C_11
REMARK    4  A    between atoms: N_13  and  C_14
REMARK    5  A    between atoms: C_14  and  C_15
REMARK    6  A    between atoms: C_18  and  C_19
REMARK    7  A    between atoms: C_19  and  C_20
REMARK    8  A    between atoms: C_20  and  C_21
REMARK    9  A    between atoms: C_21  and  N_22
REMARK                            x       y       z     vdW  Elec       q    Type
REMARK                         _______ _______ _______ _____ _____    ______ ____
ROOT
ATOM      1  C   UNL     1      45.724   9.450  12.737  0.00  0.00    +0.000 C 
ENDROOT
BRANCH   1   2
ATOM      2  C   UNL     1      45.158   8.155  12.222  0.00  0.00    +0.000 A 
ATOM      3  C   UNL     1      43.920   8.100  11.577  0.00  0.00    +0.000 A 
ATOM      4  C   UNL     1      43.475   6.899  11.025  0.00  0.00    +0.000 A 
ATOM      5  C   UNL     1      44.257   5.758  11.169  0.00  0.00    +0.000 A 
ATOM      6  N   UNL     1      45.433   5.773  11.841  0.00  0.00    +0.000 NA
ATOM      7  C   UNL     1      45.853   6.958  12.348  0.00  0.00    +0.000 A 
BRANCH   5   8
ATOM      8  C   UNL     1      43.823   4.446  10.562  0.00  0.00    +0.000 C 
BRANCH   8   9
ATOM      9  C   UNL     1      44.573   4.105   9.270  0.00  0.00    +0.000 C 
BRANCH   9  10
ATOM     10  C   UNL     1      44.557   2.610   8.917  0.00  0.00    +0.000 C 
BRANCH  10  11
ATOM     11  N   UNL     1      45.389   2.264   7.751  0.00  0.00    +0.000 NA
ATOM     12  C   UNL     1      45.994   3.448   7.117  0.00  0.00    +0.000 C 
ATOM     13  C   UNL     1      46.752   3.057   5.849  0.00  0.00    +0.000 C 
ATOM     14  C   UNL     1      47.814   2.005   6.145  0.00  0.00    +0.000 C 
ATOM     15  C   UNL     1      47.207   0.832   6.906  0.00  0.00    +0.000 C 
ATOM     16  C   UNL     1      46.435   1.305   8.139  0.00  0.00    +0.000 C 
ENDBRANCH  10  11
ENDBRANCH   9  10
ENDBRANCH   8   9
ENDBRANCH   5   8
ENDBRANCH   1   2
BRANCH   1  19
ATOM     17  C   UNL     1      48.130   9.968  12.552  0.00  0.00    +0.000 C 
ATOM     18  O   UNL     1      48.340   9.692  13.732  0.00  0.00    +0.000 OA
ATOM     19  N   UNL     1      46.880   9.879  11.993  0.00  0.00    +0.000 N 
ATOM     20  H   UNL     1      46.741  10.146  11.028  0.00  0.00    +0.000 HD
BRANCH  17  28
ATOM     21  C   UNL     1      51.535   9.388  12.386  0.00  0.00    +0.000 A 
ATOM     22  N   UNL     1      52.839   9.392  12.050  0.00  0.00    +0.000 NA
ATOM     23  C   UNL     1      53.213  10.130  10.989  0.00  0.00    +0.000 A 
ATOM     24  N   UNL     1      52.433  10.883  10.203  0.00  0.00    +0.000 NA
ATOM     25  C   UNL     1      51.150  10.838  10.587  0.00  0.00    +0.000 A 
ATOM     26  O   UNL     1      50.163  11.516   9.939  0.00  0.00    +0.000 OA
ATOM     27  C   UNL     1      49.002  11.245  10.586  0.00  0.00    +0.000 A 
ATOM     28  C   UNL     1      49.204  10.399  11.664  0.00  0.00    +0.000 A 
ATOM     29  C   UNL     1      50.612  10.128  11.651  0.00  0.00    +0.000 A 
BRANCH  21  31
ATOM     30  C   UNL     1      52.132   8.301  14.369  0.00  0.00    +0.000 C 
ATOM     31  O   UNL     1      51.106   8.595  13.428  0.00  0.00    +0.000 OA
ENDBRANCH  21  31
ENDBRANCH  17  28
ENDBRANCH   1  19
TORSDOF 8
ENDMDL
MODEL 9
REMARK VINA RESULT:    -4.907     10.189     13.610
REMARK INTER + INTRA:          -8.401
REMARK INTER:                  -6.816
REMARK INTRA:                  -1.585
REMARK UNBOUND:                -1.198
REMARK  Name = 
REMARK  9 active torsions:
REMARK  status: ('A' for Active; 'I' for Inactive)
REMARK    1  A    between atoms: C_1  and  O_2
REMARK    2  A    between atoms: O_2  and  C_3
REMARK    3  A    between atoms: C_10  and  C_11
REMARK    4  A    between atoms: N_13  and  C_14
REMARK    5  A    between atoms: C_14  and  C_15
REMARK    6  A    between atoms: C_18  and  C_19
REMARK    7  A    between atoms: C_19  and  C_20
REMARK    8  A    between atoms: C_20  and  C_21
REMARK    9  A    between atoms: C_21  and  N_22
REMARK                            x       y       z     vdW  Elec       q    Type
REMARK                         _______ _______ _______ _____ _____    ______ ____
ROOT
ATOM      1  C   UNL     1      41.184  -3.919  14.729  0.00  0.00    +0.000 C 
ENDROOT
BRANCH   1   2
ATOM      2  C   UNL     1      40.869  -3.212  16.019  0.00  0.00    +0.000 A 
ATOM      3  C   UNL     1      40.482  -1.871  16.045  0.00  0.00    +0.000 A 
ATOM      4  C   UNL     1      40.100  -1.279  17.250  0.00  0.00    +0.000 A 
ATOM      5  C   UNL     1      40.159  -2.029  18.420  0.00  0.00    +0.000 A 
ATOM      6  N   UNL     1      40.588  -3.314  18.429  0.00  0.00    +0.000 NA
ATOM      7  C   UNL     1      40.930  -3.872  17.241  0.00  0.00    +0.000 A 
BRANCH   5   8
ATOM      8  C   UNL     1      39.730  -1.433  19.739  0.00  0.00    +0.000 C 
BRANCH   8   9
ATOM      9  C   UNL     1      38.508  -0.518  19.613  0.00  0.00    +0.000 C 
BRANCH   9  10
ATOM     10  C   UNL     1      38.812   0.966  19.874  0.00  0.00    +0.000 C 
BRANCH  10  11
ATOM     11  N   UNL     1      38.700   1.816  18.677  0.00  0.00    +0.000 NA
ATOM     12  C   UNL     1      37.550   1.453  17.831  0.00  0.00    +0.000 C 
ATOM     13  C   UNL     1      37.538   2.282  16.547  0.00  0.00    +0.000 C 
ATOM     14  C   UNL     1      37.528   3.774  16.854  0.00  0.00    +0.000 C 
ATOM     15  C   UNL     1      38.650   4.128  17.825  0.00  0.00    +0.000 C 
ATOM     16  C   UNL     1      38.618   3.233  19.065  0.00  0.00    +0.000 C 
ENDBRANCH  10  11
ENDBRANCH   9  10
ENDBRANCH   8   9
ENDBRANCH   5   8
ENDBRANCH   1   2
BRANCH   1  19
ATOM     17  C   UNL     1      40.646  -2.909  12.542  0.00  0.00    +0.000 C 
ATOM     18  O   UNL     1      41.807  -2.548  12.357  0.00  0.00    +0.000 OA
ATOM     19  N   UNL     1      40.261  -3.578  13.676  0.00  0.00    +0.000 N 
ATOM     20  H   UNL     1      39.291  -3.830  13.808  0.00  0.00    +0.000 HD
BRANCH  17  28
ATOM     21  C   UNL     1      37.610  -1.255  12.584  0.00  0.00    +0.000 A 
ATOM     22  N   UNL     1      36.411  -0.731  12.266  0.00  0.00    +0.000 NA
ATOM     23  C   UNL     1      35.957  -0.914  11.013  0.00  0.00    +0.000 A 
ATOM     24  N   UNL     1      36.561  -1.570  10.014  0.00  0.00    +0.000 NA
ATOM     25  C   UNL     1      37.747  -2.066  10.391  0.00  0.00    +0.000 A 
ATOM     26  O   UNL     1      38.554  -2.766   9.548  0.00  0.00    +0.000 OA
ATOM     27  C   UNL     1      39.662  -3.111  10.251  0.00  0.00    +0.000 A 
ATOM     28  C   UNL     1      39.600  -2.655  11.558  0.00  0.00    +0.000 A 
ATOM     29  C   UNL     1      38.348  -1.961  11.638  0.00  0.00    +0.000 A 
BRANCH  21  31
ATOM     30  C   UNL     1      37.157  -1.081  14.872  0.00  0.00    +0.000 C 
ATOM     31  O   UNL     1      38.134  -1.034  13.839  0.00  0.00    +0.000 OA
ENDBRANCH  21  31
ENDBRANCH  17  28
ENDBRANCH   1  19
TORSDOF 8
ENDMDL
