MODEL 1
REMARK VINA RESULT:    -7.283      0.000      0.000
REMARK INTER + INTRA:         -11.189
REMARK INTER:                  -9.837
REMARK INTRA:                  -1.352
REMARK UNBOUND:                -1.352
REMARK  Name = 
REMARK  7 active torsions:
REMARK  status: ('A' for Active; 'I' for Inactive)
REMARK    1  A    between atoms: C_1  and  O_2
REMARK    2  A    between atoms: O_2  and  C_3
REMARK    3  A    between atoms: C_10  and  C_11
REMARK    4  A    between atoms: N_13  and  C_14
REMARK    5  A    between atoms: C_14  and  C_15
REMARK    6  A    between atoms: N_19  and  C_20
REMARK    7  A    between atoms: C_20  and  C_21
REMARK                            x       y       z     vdW  Elec       q    Type
REMARK                         _______ _______ _______ _____ _____    ______ ____
ROOT
ATOM      1  C   UNL     1      48.582   7.026  15.724  0.00  0.00    +0.000 C 
ENDROOT
BRANCH   1   2
ATOM      2  C   UNL     1      47.901   6.490  14.501  0.00  0.00    +0.000 A 
ATOM      3  C   UNL     1      47.832   7.219  13.316  0.00  0.00    +0.000 A 
ATOM      4  C   UNL     1      47.088   6.721  12.245  0.00  0.00    +0.000 A 
ATOM      5  C   UNL     1      46.468   5.479  12.349  0.00  0.00    +0.000 A 
ATOM      6  N   UNL     1      45.612   5.084  11.297  0.00  0.00    +0.000 N 
ATOM      7  N   UNL     1      46.586   4.731  13.463  0.00  0.00    +0.000 NA
ATOM      8  C   UNL     1      47.280   5.248  14.506  0.00  0.00    +0.000 A 
ATOM      9  H   UNL     1      44.786   5.669  11.387  0.00  0.00    +0.000 HD
BRANCH   6  10
ATOM     10  C   UNL     1      45.271   3.658  11.306  0.00  0.00    +0.000 C 
BRANCH  10  11
ATOM     11  C   UNL     1      44.226   3.328  10.215  0.00  0.00    +0.000 C 
ATOM     12  C   UNL     1      44.536   2.039   9.432  0.00  0.00    +0.000 C 
ATOM     13  C   UNL     1      45.786   2.196   8.568  0.00  0.00    +0.000 C 
ATOM     14  C   UNL     1      45.704   3.440   7.685  0.00  0.00    +0.000 C 
ATOM     15  N   UNL     1      45.371   4.648   8.442  0.00  0.00    +0.000 NA
ATOM     16  C   UNL     1      44.134   4.490   9.208  0.00  0.00    +0.000 C 
ATOM     17  H   UNL     1      45.276   5.434   7.799  0.00  0.00    +0.000 HD
ENDBRANCH  10  11
ENDBRANCH   6  10
ENDBRANCH   1   2
BRANCH   1  20
ATOM     18  C   UNL     1      50.093   6.149  17.420  0.00  0.00    +0.000 C 
ATOM     19  O   UNL     1      49.559   6.830  18.292  0.00  0.00    +0.000 OA
ATOM     20  N   UNL     1      49.738   6.258  16.099  0.00  0.00    +0.000 N 
ATOM     21  H   UNL     1      50.098   5.577  15.441  0.00  0.00    +0.000 HD
BRANCH  18  29
ATOM     22  C   UNL     1      50.292   2.793  17.138  0.00  0.00    +0.000 A 
ATOM     23  N   UNL     1      50.585   1.472  17.098  0.00  0.00    +0.000 NA
ATOM     24  C   UNL     1      51.789   1.050  17.515  0.00  0.00    +0.000 A 
ATOM     25  C   UNL     1      52.773   1.883  17.996  0.00  0.00    +0.000 A 
ATOM     26  C   UNL     1      52.466   3.249  18.034  0.00  0.00    +0.000 A 
ATOM     27  S   UNL     1      53.501   4.493  18.609  0.00  0.00    +0.000 S 
ATOM     28  C   UNL     1      52.337   5.689  18.315  0.00  0.00    +0.000 A 
ATOM     29  C   UNL     1      51.173   5.205  17.743  0.00  0.00    +0.000 A 
ATOM     30  C   UNL     1      51.231   3.749  17.594  0.00  0.00    +0.000 A 
BRANCH  22  32
ATOM     31  C   UNL     1      48.020   3.038  17.644  0.00  0.00    +0.000 C 
ATOM     32  O   UNL     1      49.055   3.201  16.679  0.00  0.00    +0.000 OA
ENDBRANCH  22  32
ENDBRANCH  18  29
ENDBRANCH   1  20
TORSDOF 6
ENDMDL
MODEL 2
REMARK VINA RESULT:    -6.972      3.160      9.263
REMARK INTER + INTRA:         -10.769
REMARK INTER:                  -9.954
REMARK INTRA:                  -0.815
REMARK UNBOUND:                -1.352
REMARK  Name = 
REMARK  7 active torsions:
REMARK  status: ('A' for Active; 'I' for Inactive)
REMARK    1  A    between atoms: C_1  and  O_2
REMARK    2  A    between atoms: O_2  and  C_3
REMARK    3  A    between atoms: C_10  and  C_11
REMARK    4  A    between atoms: N_13  and  C_14
REMARK    5  A    between atoms: C_14  and  C_15
REMARK    6  A    between atoms: N_19  and  C_20
REMARK    7  A    between atoms: C_20  and  C_21
REMARK                            x       y       z     vdW  Elec       q    Type
REMARK                         _______ _______ _______ _____ _____    ______ ____
ROOT
ATOM      1  C   UNL     1      47.151   3.536  16.756  0.00  0.00    +0.000 C 
ENDROOT
BRANCH   1   2
ATOM      2  C   UNL     1      48.568   3.193  17.104  0.00  0.00    +0.000 A 
ATOM      3  C   UNL     1      49.362   4.038  17.875  0.00  0.00    +0.000 A 
ATOM      4  C   UNL     1      50.708   3.725  18.074  0.00  0.00    +0.000 A 
ATOM      5  C   UNL     1      51.231   2.546  17.546  0.00  0.00    +0.000 A 
ATOM      6  N   UNL     1      52.625   2.345  17.652  0.00  0.00    +0.000 N 
ATOM      7  N   UNL     1      50.456   1.686  16.859  0.00  0.00    +0.000 NA
ATOM      8  C   UNL     1      49.162   2.025  16.645  0.00  0.00    +0.000 A 
ATOM      9  H   UNL     1      53.043   2.998  16.994  0.00  0.00    +0.000 HD
BRANCH   6  10
ATOM     10  C   UNL     1      53.051   0.966  17.391  0.00  0.00    +0.000 C 
BRANCH  10  11
ATOM     11  C   UNL     1      54.455   0.695  17.981  0.00  0.00    +0.000 C 
ATOM     12  C   UNL     1      55.606   1.031  17.016  0.00  0.00    +0.000 C 
ATOM     13  C   UNL     1      55.629   0.081  15.820  0.00  0.00    +0.000 C 
ATOM     14  C   UNL     1      55.614  -1.382  16.266  0.00  0.00    +0.000 C 
ATOM     15  N   UNL     1      54.535  -1.671  17.212  0.00  0.00    +0.000 NA
ATOM     16  C   UNL     1      54.579  -0.788  18.379  0.00  0.00    +0.000 C 
ATOM     17  H   UNL     1      54.606  -2.642  17.517  0.00  0.00    +0.000 HD
ENDBRANCH  10  11
ENDBRANCH   6  10
ENDBRANCH   1   2
BRANCH   1  20
ATOM     18  C   UNL     1      46.965   4.368  14.475  0.00  0.00    +0.000 C 
ATOM     19  O   UNL     1      47.139   3.242  14.017  0.00  0.00    +0.000 OA
ATOM     20  N   UNL     1      47.055   4.623  15.821  0.00  0.00    +0.000 N 
ATOM     21  H   UNL     1      46.759   5.529  16.165  0.00  0.00    +0.000 HD
BRANCH  18  29
ATOM     22  C   UNL     1      44.234   5.205  12.679  0.00  0.00    +0.000 A 
ATOM     23  N   UNL     1      43.255   5.728  11.905  0.00  0.00    +0.000 NA
ATOM     24  C   UNL     1      43.470   6.885  11.259  0.00  0.00    +0.000 A 
ATOM     25  C   UNL     1      44.647   7.596  11.326  0.00  0.00    +0.000 A 
ATOM     26  C   UNL     1      45.657   7.052  12.129  0.00  0.00    +0.000 A 
ATOM     27  S   UNL     1      47.220   7.723  12.365  0.00  0.00    +0.000 S 
ATOM     28  C   UNL     1      47.690   6.444  13.373  0.00  0.00    +0.000 A 
ATOM     29  C   UNL     1      46.688   5.515  13.598  0.00  0.00    +0.000 A 
ATOM     30  C   UNL     1      45.481   5.856  12.841  0.00  0.00    +0.000 A 
BRANCH  22  32
ATOM     31  C   UNL     1      43.679   2.940  12.479  0.00  0.00    +0.000 C 
ATOM     32  O   UNL     1      43.975   4.028  13.351  0.00  0.00    +0.000 OA
ENDBRANCH  22  32
ENDBRANCH  18  29
ENDBRANCH   1  20
TORSDOF 6
ENDMDL
MODEL 3
REMARK VINA RESULT:    -6.845      2.529      2.902
REMARK INTER + INTRA:         -10.597
REMARK INTER:                  -9.441
REMARK INTRA:                  -1.156
REMARK UNBOUND:                -1.352
REMARK  Name = 
REMARK  7 active torsions:
REMARK  status: ('A' for Active; 'I' for Inactive)
REMARK    1  A    between atoms: C_1  and  O_2
REMARK    2  A    between atoms: O_2  and  C_3
REMARK    3  A    between atoms: C_10  and  C_11
REMARK    4  A    between atoms: N_13  and  C_14
REMARK    5  A    between atoms: C_14  and  C_15
REMARK    6  A    between atoms: N_19  and  C_20
REMARK    7  A    between atoms: C_20  and  C_21
REMARK                            x       y       z     vdW  Elec       q    Type
REMARK                         _______ _______ _______ _____ _____    ______ ____
ROOT
ATOM      1  C   UNL     1      47.834   8.268  13.774  0.00  0.00    +0.000 C 
ENDROOT
BRANCH   1   2
ATOM      2  C   UNL     1      46.892   7.322  13.091  0.00  0.00    +0.000 A 
ATOM      3  C   UNL     1      45.582   7.680  12.784  0.00  0.00    +0.000 A 
ATOM      4  C   UNL     1      44.715   6.725  12.252  0.00  0.00    +0.000 A 
ATOM      5  C   UNL     1      45.180   5.439  11.984  0.00  0.00    +0.000 A 
ATOM      6  N   UNL     1      44.233   4.471  11.582  0.00  0.00    +0.000 N 
ATOM      7  N   UNL     1      46.464   5.101  12.210  0.00  0.00    +0.000 NA
ATOM      8  C   UNL     1      47.280   6.030  12.762  0.00  0.00    +0.000 A 
ATOM      9  H   UNL     1      43.692   4.260  12.416  0.00  0.00    +0.000 HD
BRANCH   6  10
ATOM     10  C   UNL     1      44.824   3.263  10.999  0.00  0.00    +0.000 C 
BRANCH  10  11
ATOM     11  C   UNL     1      44.170   2.924   9.638  0.00  0.00    +0.000 C 
ATOM     12  C   UNL     1      44.911   1.825   8.854  0.00  0.00    +0.000 C 
ATOM     13  C   UNL     1      46.283   2.302   8.382  0.00  0.00    +0.000 C 
ATOM     14  C   UNL     1      46.186   3.628   7.628  0.00  0.00    +0.000 C 
ATOM     15  N   UNL     1      45.446   4.648   8.375  0.00  0.00    +0.000 NA
ATOM     16  C   UNL     1      44.111   4.185   8.756  0.00  0.00    +0.000 C 
ATOM     17  H   UNL     1      45.366   5.490   7.805  0.00  0.00    +0.000 HD
ENDBRANCH  10  11
ENDBRANCH   6  10
ENDBRANCH   1   2
BRANCH   1  20
ATOM     18  C   UNL     1      48.982   7.404  15.740  0.00  0.00    +0.000 C 
ATOM     19  O   UNL     1      49.816   6.834  15.041  0.00  0.00    +0.000 OA
ATOM     20  N   UNL     1      47.905   8.055  15.194  0.00  0.00    +0.000 N 
ATOM     21  H   UNL     1      47.328   8.632  15.797  0.00  0.00    +0.000 HD
BRANCH  18  29
ATOM     22  C   UNL     1      48.749   4.877  17.963  0.00  0.00    +0.000 A 
ATOM     23  N   UNL     1      48.701   4.022  19.012  0.00  0.00    +0.000 NA
ATOM     24  C   UNL     1      48.862   4.493  20.258  0.00  0.00    +0.000 A 
ATOM     25  C   UNL     1      49.074   5.820  20.557  0.00  0.00    +0.000 A 
ATOM     26  C   UNL     1      49.124   6.701  19.469  0.00  0.00    +0.000 A 
ATOM     27  S   UNL     1      49.351   8.401  19.567  0.00  0.00    +0.000 S 
ATOM     28  C   UNL     1      49.236   8.580  17.885  0.00  0.00    +0.000 A 
ATOM     29  C   UNL     1      49.073   7.383  17.208  0.00  0.00    +0.000 A 
ATOM     30  C   UNL     1      48.981   6.261  18.145  0.00  0.00    +0.000 A 
BRANCH  22  32
ATOM     31  C   UNL     1      47.244   4.173  16.314  0.00  0.00    +0.000 C 
ATOM     32  O   UNL     1      48.605   4.359  16.692  0.00  0.00    +0.000 OA
ENDBRANCH  22  32
ENDBRANCH  18  29
ENDBRANCH   1  20
TORSDOF 6
ENDMDL
MODEL 4
REMARK VINA RESULT:    -6.645      3.586      8.937
REMARK INTER + INTRA:         -10.327
REMARK INTER:                  -9.195
REMARK INTRA:                  -1.132
REMARK UNBOUND:                -1.352
REMARK  Name = 
REMARK  7 active torsions:
REMARK  status: ('A' for Active; 'I' for Inactive)
REMARK    1  A    between atoms: C_1  and  O_2
REMARK    2  A    between atoms: O_2  and  C_3
REMARK    3  A    between atoms: C_10  and  C_11
REMARK    4  A    between atoms: N_13  and  C_14
REMARK    5  A    between atoms: C_14  and  C_15
REMARK    6  A    between atoms: N_19  and  C_20
REMARK    7  A    between atoms: C_20  and  C_21
REMARK                            x       y       z     vdW  Elec       q    Type
REMARK                         _______ _______ _______ _____ _____    ______ ____
ROOT
ATOM      1  C   UNL     1      47.146   3.723  16.743  0.00  0.00    +0.000 C 
ENDROOT
BRANCH   1   2
ATOM      2  C   UNL     1      48.545   3.320  17.099  0.00  0.00    +0.000 A 
ATOM      3  C   UNL     1      49.365   4.122  17.889  0.00  0.00    +0.000 A 
ATOM      4  C   UNL     1      50.695   3.754  18.095  0.00  0.00    +0.000 A 
ATOM      5  C   UNL     1      51.176   2.563  17.557  0.00  0.00    +0.000 A 
ATOM      6  N   UNL     1      52.560   2.305  17.672  0.00  0.00    +0.000 N 
ATOM      7  N   UNL     1      50.375   1.742  16.851  0.00  0.00    +0.000 NA
ATOM      8  C   UNL     1      49.097   2.136  16.629  0.00  0.00    +0.000 A 
ATOM      9  H   UNL     1      53.010   2.949  17.027  0.00  0.00    +0.000 HD
BRANCH   6  10
ATOM     10  C   UNL     1      52.934   0.914  17.397  0.00  0.00    +0.000 C 
BRANCH  10  11
ATOM     11  C   UNL     1      54.316   0.577  18.004  0.00  0.00    +0.000 C 
ATOM     12  C   UNL     1      55.490   0.815  17.037  0.00  0.00    +0.000 C 
ATOM     13  C   UNL     1      55.462  -0.170  15.870  0.00  0.00    +0.000 C 
ATOM     14  C   UNL     1      55.358  -1.615  16.358  0.00  0.00    +0.000 C 
ATOM     15  N   UNL     1      54.259  -1.811  17.305  0.00  0.00    +0.000 NA
ATOM     16  C   UNL     1      54.349  -0.898  18.445  0.00  0.00    +0.000 C 
ATOM     17  H   UNL     1      54.270  -2.775  17.638  0.00  0.00    +0.000 HD
ENDBRANCH  10  11
ENDBRANCH   6  10
ENDBRANCH   1   2
BRANCH   1  20
ATOM     18  C   UNL     1      46.990   4.416  14.414  0.00  0.00    +0.000 C 
ATOM     19  O   UNL     1      47.103   3.256  14.029  0.00  0.00    +0.000 OA
ATOM     20  N   UNL     1      47.101   4.752  15.740  0.00  0.00    +0.000 N 
ATOM     21  H   UNL     1      46.856   5.692  16.026  0.00  0.00    +0.000 HD
BRANCH  18  29
ATOM     22  C   UNL     1      48.768   7.211  13.772  0.00  0.00    +0.000 A 
ATOM     23  N   UNL     1      49.326   8.370  13.352  0.00  0.00    +0.000 NA
ATOM     24  C   UNL     1      48.728   9.080  12.383  0.00  0.00    +0.000 A 
ATOM     25  C   UNL     1      47.553   8.707  11.770  0.00  0.00    +0.000 A 
ATOM     26  C   UNL     1      46.980   7.506  12.206  0.00  0.00    +0.000 A 
ATOM     27  S   UNL     1      45.511   6.828  11.627  0.00  0.00    +0.000 S 
ATOM     28  C   UNL     1      45.621   5.513  12.690  0.00  0.00    +0.000 A 
ATOM     29  C   UNL     1      46.768   5.518  13.466  0.00  0.00    +0.000 A 
ATOM     30  C   UNL     1      47.571   6.714  13.202  0.00  0.00    +0.000 A 
BRANCH  22  32
ATOM     31  C   UNL     1      49.742   7.271  15.899  0.00  0.00    +0.000 C 
ATOM     32  O   UNL     1      49.420   6.490  14.751  0.00  0.00    +0.000 OA
ENDBRANCH  22  32
ENDBRANCH  18  29
ENDBRANCH   1  20
TORSDOF 6
ENDMDL
MODEL 5
REMARK VINA RESULT:    -6.630      1.613      2.425
REMARK INTER + INTRA:         -10.307
REMARK INTER:                  -9.063
REMARK INTRA:                  -1.244
REMARK UNBOUND:                -1.352
REMARK  Name = 
REMARK  7 active torsions:
REMARK  status: ('A' for Active; 'I' for Inactive)
REMARK    1  A    between atoms: C_1  and  O_2
REMARK    2  A    between atoms: O_2  and  C_3
REMARK    3  A    between atoms: C_10  and  C_11
REMARK    4  A    between atoms: N_13  and  C_14
REMARK    5  A    between atoms: C_14  and  C_15
REMARK    6  A    between atoms: N_19  and  C_20
REMARK    7  A    between atoms: C_20  and  C_21
REMARK                            x       y       z     vdW  Elec       q    Type
REMARK                         _______ _______ _______ _____ _____    ______ ____
ROOT
ATOM      1  C   UNL     1      48.269   5.927  16.229  0.00  0.00    +0.000 C 
ENDROOT
BRANCH   1   2
ATOM      2  C   UNL     1      47.635   5.591  14.912  0.00  0.00    +0.000 A 
ATOM      3  C   UNL     1      47.605   6.498  13.856  0.00  0.00    +0.000 A 
ATOM      4  C   UNL     1      46.903   6.177  12.694  0.00  0.00    +0.000 A 
ATOM      5  C   UNL     1      46.285   4.934  12.578  0.00  0.00    +0.000 A 
ATOM      6  N   UNL     1      45.470   4.711  11.446  0.00  0.00    +0.000 N 
ATOM      7  N   UNL     1      46.366   4.020  13.564  0.00  0.00    +0.000 NA
ATOM      8  C   UNL     1      47.020   4.365  14.699  0.00  0.00    +0.000 A 
ATOM      9  H   UNL     1      44.638   5.276  11.597  0.00  0.00    +0.000 HD
BRANCH   6  10
ATOM     10  C   UNL     1      45.135   3.302  11.218  0.00  0.00    +0.000 C 
BRANCH  10  11
ATOM     11  C   UNL     1      44.227   3.139   9.976  0.00  0.00    +0.000 C 
ATOM     12  C   UNL     1      44.645   1.980   9.053  0.00  0.00    +0.000 C 
ATOM     13  C   UNL     1      45.983   2.262   8.372  0.00  0.00    +0.000 C 
ATOM     14  C   UNL     1      45.982   3.624   7.678  0.00  0.00    +0.000 C 
ATOM     15  N   UNL     1      45.546   4.706   8.563  0.00  0.00    +0.000 NA
ATOM     16  C   UNL     1      44.232   4.438   9.148  0.00  0.00    +0.000 C 
ATOM     17  H   UNL     1      45.512   5.579   8.035  0.00  0.00    +0.000 HD
ENDBRANCH  10  11
ENDBRANCH   6  10
ENDBRANCH   1   2
BRANCH   1  20
ATOM     18  C   UNL     1      49.472   4.260  17.534  0.00  0.00    +0.000 C 
ATOM     19  O   UNL     1      48.573   4.219  18.369  0.00  0.00    +0.000 OA
ATOM     20  N   UNL     1      49.451   5.152  16.491  0.00  0.00    +0.000 N 
ATOM     21  H   UNL     1      50.134   5.050  15.750  0.00  0.00    +0.000 HD
BRANCH  18  29
ATOM     22  C   UNL     1      52.714   4.906  18.211  0.00  0.00    +0.000 A 
ATOM     23  N   UNL     1      54.042   4.940  18.470  0.00  0.00    +0.000 NA
ATOM     24  C   UNL     1      54.748   3.798  18.456  0.00  0.00    +0.000 A 
ATOM     25  C   UNL     1      54.206   2.562  18.188  0.00  0.00    +0.000 A 
ATOM     26  C   UNL     1      52.831   2.531  17.922  0.00  0.00    +0.000 A 
ATOM     27  S   UNL     1      51.917   1.129  17.535  0.00  0.00    +0.000 S 
ATOM     28  C   UNL     1      50.490   2.027  17.361  0.00  0.00    +0.000 A 
ATOM     29  C   UNL     1      50.645   3.377  17.629  0.00  0.00    +0.000 A 
ATOM     30  C   UNL     1      52.041   3.690  17.940  0.00  0.00    +0.000 A 
BRANCH  22  32
ATOM     31  C   UNL     1      52.480   7.058  17.320  0.00  0.00    +0.000 C 
ATOM     32  O   UNL     1      52.010   6.092  18.257  0.00  0.00    +0.000 OA
ENDBRANCH  22  32
ENDBRANCH  18  29
ENDBRANCH   1  20
TORSDOF 6
ENDMDL
MODEL 6
REMARK VINA RESULT:    -6.492      2.040      2.619
REMARK INTER + INTRA:         -10.121
REMARK INTER:                  -8.729
REMARK INTRA:                  -1.393
REMARK UNBOUND:                -1.352
REMARK  Name = 
REMARK  7 active torsions:
REMARK  status: ('A' for Active; 'I' for Inactive)
REMARK    1  A    between atoms: C_1  and  O_2
REMARK    2  A    between atoms: O_2  and  C_3
REMARK    3  A    between atoms: C_10  and  C_11
REMARK    4  A    between atoms: N_13  and  C_14
REMARK    5  A    between atoms: C_14  and  C_15
REMARK    6  A    between atoms: N_19  and  C_20
REMARK    7  A    between atoms: C_20  and  C_21
REMARK                            x       y       z     vdW  Elec       q    Type
REMARK                         _______ _______ _______ _____ _____    ______ ____
ROOT
ATOM      1  C   UNL     1      49.859   8.427  12.716  0.00  0.00    +0.000 C 
ENDROOT
BRANCH   1   2
ATOM      2  C   UNL     1      48.490   7.815  12.741  0.00  0.00    +0.000 A 
ATOM      3  C   UNL     1      47.336   8.590  12.660  0.00  0.00    +0.000 A 
ATOM      4  C   UNL     1      46.088   7.982  12.804  0.00  0.00    +0.000 A 
ATOM      5  C   UNL     1      46.005   6.601  12.972  0.00  0.00    +0.000 A 
ATOM      6  N   UNL     1      44.735   6.052  13.255  0.00  0.00    +0.000 N 
ATOM      7  N   UNL     1      47.110   5.832  12.981  0.00  0.00    +0.000 NA
ATOM      8  C   UNL     1      48.314   6.445  12.878  0.00  0.00    +0.000 A 
ATOM      9  H   UNL     1      44.527   6.329  14.211  0.00  0.00    +0.000 HD
BRANCH   6  10
ATOM     10  C   UNL     1      44.661   4.597  13.084  0.00  0.00    +0.000 C 
BRANCH  10  11
ATOM     11  C   UNL     1      43.373   4.189  12.331  0.00  0.00    +0.000 C 
ATOM     12  C   UNL     1      43.505   2.869  11.550  0.00  0.00    +0.000 C 
ATOM     13  C   UNL     1      44.471   3.008  10.375  0.00  0.00    +0.000 C 
ATOM     14  C   UNL     1      44.112   4.204   9.493  0.00  0.00    +0.000 C 
ATOM     15  N   UNL     1      43.954   5.441  10.259  0.00  0.00    +0.000 NA
ATOM     16  C   UNL     1      42.974   5.296  11.336  0.00  0.00    +0.000 C 
ATOM     17  H   UNL     1      43.662   6.191   9.631  0.00  0.00    +0.000 HD
ENDBRANCH  10  11
ENDBRANCH   6  10
ENDBRANCH   1   2
BRANCH   1  20
ATOM     18  C   UNL     1      50.893   8.080  14.893  0.00  0.00    +0.000 C 
ATOM     19  O   UNL     1      50.338   9.075  15.350  0.00  0.00    +0.000 OA
ATOM     20  N   UNL     1      50.791   7.740  13.567  0.00  0.00    +0.000 N 
ATOM     21  H   UNL     1      51.141   6.837  13.268  0.00  0.00    +0.000 HD
BRANCH  18  29
ATOM     22  C   UNL     1      50.115   5.523  16.952  0.00  0.00    +0.000 A 
ATOM     23  N   UNL     1      50.027   4.479  17.809  0.00  0.00    +0.000 NA
ATOM     24  C   UNL     1      51.144   3.985  18.366  0.00  0.00    +0.000 A 
ATOM     25  C   UNL     1      52.406   4.478  18.126  0.00  0.00    +0.000 A 
ATOM     26  C   UNL     1      52.493   5.558  17.238  0.00  0.00    +0.000 A 
ATOM     27  S   UNL     1      53.937   6.371  16.788  0.00  0.00    +0.000 S 
ATOM     28  C   UNL     1      53.095   7.458  15.796  0.00  0.00    +0.000 A 
ATOM     29  C   UNL     1      51.732   7.217  15.738  0.00  0.00    +0.000 A 
ATOM     30  C   UNL     1      51.361   6.102  16.613  0.00  0.00    +0.000 A 
BRANCH  22  32
ATOM     31  C   UNL     1      47.903   5.029  16.370  0.00  0.00    +0.000 C 
ATOM     32  O   UNL     1      48.953   5.992  16.375  0.00  0.00    +0.000 OA
ENDBRANCH  22  32
ENDBRANCH  18  29
ENDBRANCH   1  20
TORSDOF 6
ENDMDL
MODEL 7
REMARK VINA RESULT:    -6.240      3.710      9.122
REMARK INTER + INTRA:          -9.780
REMARK INTER:                  -8.291
REMARK INTRA:                  -1.489
REMARK UNBOUND:                -1.352
REMARK  Name = 
REMARK  7 active torsions:
REMARK  status: ('A' for Active; 'I' for Inactive)
REMARK    1  A    between atoms: C_1  and  O_2
REMARK    2  A    between atoms: O_2  and  C_3
REMARK    3  A    between atoms: C_10  and  C_11
REMARK    4  A    between atoms: N_13  and  C_14
REMARK    5  A    between atoms: C_14  and  C_15
REMARK    6  A    between atoms: N_19  and  C_20
REMARK    7  A    between atoms: C_20  and  C_21
REMARK                            x       y       z     vdW  Elec       q    Type
REMARK                         _______ _______ _______ _____ _____    ______ ____
ROOT
ATOM      1  C   UNL     1      47.350   3.519  16.743  0.00  0.00    +0.000 C 
ENDROOT
BRANCH   1   2
ATOM      2  C   UNL     1      48.788   3.322  17.120  0.00  0.00    +0.000 A 
ATOM      3  C   UNL     1      49.476   2.151  16.814  0.00  0.00    +0.000 A 
ATOM      4  C   UNL     1      50.777   1.974  17.288  0.00  0.00    +0.000 A 
ATOM      5  C   UNL     1      51.394   2.989  18.015  0.00  0.00    +0.000 A 
ATOM      6  N   UNL     1      52.652   2.708  18.593  0.00  0.00    +0.000 N 
ATOM      7  N   UNL     1      50.765   4.155  18.257  0.00  0.00    +0.000 NA
ATOM      8  C   UNL     1      49.489   4.293  17.822  0.00  0.00    +0.000 A 
ATOM      9  H   UNL     1      52.459   2.072  19.362  0.00  0.00    +0.000 HD
BRANCH   6  10
ATOM     10  C   UNL     1      53.382   3.897  19.042  0.00  0.00    +0.000 C 
BRANCH  10  11
ATOM     11  C   UNL     1      54.905   3.629  19.097  0.00  0.00    +0.000 C 
ATOM     12  C   UNL     1      55.756   4.778  18.525  0.00  0.00    +0.000 C 
ATOM     13  C   UNL     1      55.561   4.922  17.017  0.00  0.00    +0.000 C 
ATOM     14  C   UNL     1      55.772   3.590  16.296  0.00  0.00    +0.000 C 
ATOM     15  N   UNL     1      54.983   2.503  16.878  0.00  0.00    +0.000 NA
ATOM     16  C   UNL     1      55.240   2.347  18.310  0.00  0.00    +0.000 C 
ATOM     17  H   UNL     1      55.203   1.632  16.395  0.00  0.00    +0.000 HD
ENDBRANCH  10  11
ENDBRANCH   6  10
ENDBRANCH   1   2
BRANCH   1  20
ATOM     18  C   UNL     1      46.967   4.380  14.498  0.00  0.00    +0.000 C 
ATOM     19  O   UNL     1      47.128   3.265  14.009  0.00  0.00    +0.000 OA
ATOM     20  N   UNL     1      47.158   4.617  15.836  0.00  0.00    +0.000 N 
ATOM     21  H   UNL     1      46.871   5.512  16.217  0.00  0.00    +0.000 HD
BRANCH  18  29
ATOM     22  C   UNL     1      48.542   7.302  13.892  0.00  0.00    +0.000 A 
ATOM     23  N   UNL     1      49.001   8.516  13.508  0.00  0.00    +0.000 NA
ATOM     24  C   UNL     1      48.272   9.260  12.662  0.00  0.00    +0.000 A 
ATOM     25  C   UNL     1      47.057   8.871  12.145  0.00  0.00    +0.000 A 
ATOM     26  C   UNL     1      46.587   7.614  12.544  0.00  0.00    +0.000 A 
ATOM     27  S   UNL     1      45.097   6.904  12.068  0.00  0.00    +0.000 S 
ATOM     28  C   UNL     1      45.376   5.524  13.010  0.00  0.00    +0.000 A 
ATOM     29  C   UNL     1      46.598   5.534  13.663  0.00  0.00    +0.000 A 
ATOM     30  C   UNL     1      47.315   6.785  13.411  0.00  0.00    +0.000 A 
BRANCH  22  32
ATOM     31  C   UNL     1      50.008   7.333  15.716  0.00  0.00    +0.000 C 
ATOM     32  O   UNL     1      49.325   6.548  14.742  0.00  0.00    +0.000 OA
ENDBRANCH  22  32
ENDBRANCH  18  29
ENDBRANCH   1  20
TORSDOF 6
ENDMDL
MODEL 8
REMARK VINA RESULT:    -6.097      1.501      1.990
REMARK INTER + INTRA:          -9.588
REMARK INTER:                  -8.300
REMARK INTRA:                  -1.287
REMARK UNBOUND:                -1.352
REMARK  Name = 
REMARK  7 active torsions:
REMARK  status: ('A' for Active; 'I' for Inactive)
REMARK    1  A    between atoms: C_1  and  O_2
REMARK    2  A    between atoms: O_2  and  C_3
REMARK    3  A    between atoms: C_10  and  C_11
REMARK    4  A    between atoms: N_13  and  C_14
REMARK    5  A    between atoms: C_14  and  C_15
REMARK    6  A    between atoms: N_19  and  C_20
REMARK    7  A    between atoms: C_20  and  C_21
REMARK                            x       y       z     vdW  Elec       q    Type
REMARK                         _______ _______ _______ _____ _____    ______ ____
ROOT
ATOM      1  C   UNL     1      48.549   5.554  18.045  0.00  0.00    +0.000 C 
ENDROOT
BRANCH   1   2
ATOM      2  C   UNL     1      48.071   5.374  16.636  0.00  0.00    +0.000 A 
ATOM      3  C   UNL     1      48.473   6.224  15.608  0.00  0.00    +0.000 A 
ATOM      4  C   UNL     1      47.910   6.082  14.339  0.00  0.00    +0.000 A 
ATOM      5  C   UNL     1      46.994   5.061  14.097  0.00  0.00    +0.000 A 
ATOM      6  N   UNL     1      46.346   5.046  12.841  0.00  0.00    +0.000 N 
ATOM      7  N   UNL     1      46.650   4.188  15.064  0.00  0.00    +0.000 NA
ATOM      8  C   UNL     1      47.178   4.366  16.299  0.00  0.00    +0.000 A 
ATOM      9  H   UNL     1      45.695   5.826  12.864  0.00  0.00    +0.000 HD
BRANCH   6  10
ATOM     10  C   UNL     1      45.670   3.782  12.532  0.00  0.00    +0.000 C 
BRANCH  10  11
ATOM     11  C   UNL     1      44.247   4.032  11.979  0.00  0.00    +0.000 C 
ATOM     12  C   UNL     1      43.706   2.875  11.120  0.00  0.00    +0.000 C 
ATOM     13  C   UNL     1      44.483   2.738   9.813  0.00  0.00    +0.000 C 
ATOM     14  C   UNL     1      44.559   4.068   9.064  0.00  0.00    +0.000 C 
ATOM     15  N   UNL     1      45.040   5.163   9.908  0.00  0.00    +0.000 NA
ATOM     16  C   UNL     1      44.235   5.312  11.122  0.00  0.00    +0.000 C 
ATOM     17  H   UNL     1      45.018   6.033   9.376  0.00  0.00    +0.000 HD
ENDBRANCH  10  11
ENDBRANCH   6  10
ENDBRANCH   1   2
BRANCH   1  20
ATOM     18  C   UNL     1      50.938   5.457  18.503  0.00  0.00    +0.000 C 
ATOM     19  O   UNL     1      51.066   6.653  18.254  0.00  0.00    +0.000 OA
ATOM     20  N   UNL     1      49.743   4.806  18.328  0.00  0.00    +0.000 N 
ATOM     21  H   UNL     1      49.647   3.862  18.684  0.00  0.00    +0.000 HD
BRANCH  18  29
ATOM     22  C   UNL     1      52.016   2.389  17.606  0.00  0.00    +0.000 A 
ATOM     23  N   UNL     1      52.619   1.196  17.391  0.00  0.00    +0.000 NA
ATOM     24  C   UNL     1      53.717   0.875  18.092  0.00  0.00    +0.000 A 
ATOM     25  C   UNL     1      54.290   1.690  19.042  0.00  0.00    +0.000 A 
ATOM     26  C   UNL     1      53.664   2.924  19.260  0.00  0.00    +0.000 A 
ATOM     27  S   UNL     1      54.158   4.110  20.399  0.00  0.00    +0.000 S 
ATOM     28  C   UNL     1      52.873   5.137  19.987  0.00  0.00    +0.000 A 
ATOM     29  C   UNL     1      52.076   4.648  18.966  0.00  0.00    +0.000 A 
ATOM     30  C   UNL     1      52.524   3.319  18.543  0.00  0.00    +0.000 A 
BRANCH  22  32
ATOM     31  C   UNL     1      49.944   1.649  16.808  0.00  0.00    +0.000 C 
ATOM     32  O   UNL     1      50.903   2.702  16.852  0.00  0.00    +0.000 OA
ENDBRANCH  22  32
ENDBRANCH  18  29
ENDBRANCH   1  20
TORSDOF 6
ENDMDL
MODEL 9
REMARK VINA RESULT:    -5.980      3.630      8.876
REMARK INTER + INTRA:          -9.430
REMARK INTER:                  -7.927
REMARK INTRA:                  -1.503
REMARK UNBOUND:                -1.352
REMARK  Name = 
REMARK  7 active torsions:
REMARK  status: ('A' for Active; 'I' for Inactive)
REMARK    1  A    between atoms: C_1  and  O_2
REMARK    2  A    between atoms: O_2  and  C_3
REMARK    3  A    between atoms: C_10  and  C_11
REMARK    4  A    between atoms: N_13  and  C_14
REMARK    5  A    between atoms: C_14  and  C_15
REMARK    6  A    between atoms: N_19  and  C_20
REMARK    7  A    between atoms: C_20  and  C_21
REMARK                            x       y       z     vdW  Elec       q    Type
REMARK                         _______ _______ _______ _____ _____    ______ ____
ROOT
ATOM      1  C   UNL     1      47.396   3.554  16.788  0.00  0.00    +0.000 C 
ENDROOT
BRANCH   1   2
ATOM      2  C   UNL     1      48.798   3.925  17.167  0.00  0.00    +0.000 A 
ATOM      3  C   UNL     1      49.809   2.972  17.272  0.00  0.00    +0.000 A 
ATOM      4  C   UNL     1      51.067   3.354  17.739  0.00  0.00    +0.000 A 
ATOM      5  C   UNL     1      51.318   4.690  18.043  0.00  0.00    +0.000 A 
ATOM      6  N   UNL     1      52.557   5.003  18.644  0.00  0.00    +0.000 N 
ATOM      7  N   UNL     1      50.370   5.633  17.877  0.00  0.00    +0.000 NA
ATOM      8  C   UNL     1      49.144   5.237  17.460  0.00  0.00    +0.000 A 
ATOM      9  H   UNL     1      52.494   4.646  19.594  0.00  0.00    +0.000 HD
BRANCH   6  10
ATOM     10  C   UNL     1      52.888   6.432  18.623  0.00  0.00    +0.000 C 
BRANCH  10  11
ATOM     11  C   UNL     1      54.098   6.710  17.700  0.00  0.00    +0.000 C 
ATOM     12  C   UNL     1      54.395   8.208  17.505  0.00  0.00    +0.000 C 
ATOM     13  C   UNL     1      53.287   8.898  16.712  0.00  0.00    +0.000 C 
ATOM     14  C   UNL     1      52.989   8.161  15.406  0.00  0.00    +0.000 C 
ATOM     15  N   UNL     1      52.747   6.731  15.610  0.00  0.00    +0.000 NA
ATOM     16  C   UNL     1      53.855   6.084  16.314  0.00  0.00    +0.000 C 
ATOM     17  H   UNL     1      52.609   6.281  14.705  0.00  0.00    +0.000 HD
ENDBRANCH  10  11
ENDBRANCH   6  10
ENDBRANCH   1   2
BRANCH   1  20
ATOM     18  C   UNL     1      46.778   4.131  14.505  0.00  0.00    +0.000 C 
ATOM     19  O   UNL     1      47.378   3.156  14.062  0.00  0.00    +0.000 OA
ATOM     20  N   UNL     1      46.817   4.462  15.836  0.00  0.00    +0.000 N 
ATOM     21  H   UNL     1      46.192   5.183  16.177  0.00  0.00    +0.000 HD
BRANCH  18  29
ATOM     22  C   UNL     1      47.261   7.347  13.604  0.00  0.00    +0.000 A 
ATOM     23  N   UNL     1      47.273   8.607  13.111  0.00  0.00    +0.000 NA
ATOM     24  C   UNL     1      46.306   8.995  12.265  0.00  0.00    +0.000 A 
ATOM     25  C   UNL     1      45.272   8.184  11.854  0.00  0.00    +0.000 A 
ATOM     26  C   UNL     1      45.265   6.880  12.366  0.00  0.00    +0.000 A 
ATOM     27  S   UNL     1      44.081   5.680  12.034  0.00  0.00    +0.000 S 
ATOM     28  C   UNL     1      44.841   4.555  13.048  0.00  0.00    +0.000 A 
ATOM     29  C   UNL     1      46.012   5.023  13.620  0.00  0.00    +0.000 A 
ATOM     30  C   UNL     1      46.260   6.415  13.239  0.00  0.00    +0.000 A 
BRANCH  22  32
ATOM     31  C   UNL     1      49.571   7.358  13.983  0.00  0.00    +0.000 C 
ATOM     32  O   UNL     1      48.283   6.969  14.452  0.00  0.00    +0.000 OA
ENDBRANCH  22  32
ENDBRANCH  18  29
ENDBRANCH   1  20
TORSDOF 6
ENDMDL
