MODEL 1
REMARK VINA RESULT:    -6.841      0.000      0.000
REMARK INTER + INTRA:          -9.062
REMARK INTER:                  -8.641
REMARK INTRA:                  -0.421
REMARK UNBOUND:                -0.421
REMARK  Name = 
REMARK  5 active torsions:
REMARK  status: ('A' for Active; 'I' for Inactive)
REMARK    1  A    between atoms: N_1  and  C_2
REMARK    2  A    between atoms: C_2  and  C_3
REMARK    3  A    between atoms: C_6  and  C_7
REMARK    4  A    between atoms: C_7  and  C_8
REMARK    5  A    between atoms: C_8  and  C_9
REMARK                            x       y       z     vdW  Elec       q    Type
REMARK                         _______ _______ _______ _____ _____    ______ ____
ROOT
ATOM      1  C   UNL     1      46.642   2.793   6.969  0.00  0.00    +0.000 A 
ATOM      2  C   UNL     1      46.433   1.667   7.754  0.00  0.00    +0.000 A 
ATOM      3  N   UNL     1      45.655   1.673   8.865  0.00  0.00    +0.000 NA
ATOM      4  C   UNL     1      45.073   2.859   9.176  0.00  0.00    +0.000 A 
ATOM      5  C   UNL     1      45.295   3.987   8.395  0.00  0.00    +0.000 A 
ATOM      6  N   UNL     1      46.063   3.985   7.280  0.00  0.00    +0.000 NA
ENDROOT
BRANCH   1   7
ATOM      7  C   UNL     1      47.432   2.723   5.686  0.00  0.00    +0.000 C 
BRANCH   7   8
ATOM      8  N   UNL     1      48.530   1.758   5.787  0.00  0.00    +0.000 NA
ATOM      9  H   UNL     1      48.827   1.500   4.847  0.00  0.00    +0.000 HD
ATOM     10  H   UNL     1      48.145   0.903   6.196  0.00  0.00    +0.000 HD
ENDBRANCH   7   8
ENDBRANCH   1   7
BRANCH   4  11
ATOM     11  C   UNL     1      44.215   2.927  10.414  0.00  0.00    +0.000 C 
BRANCH  11  12
ATOM     12  C   UNL     1      45.020   3.067  11.721  0.00  0.00    +0.000 C 
BRANCH  12  13
ATOM     13  C   UNL     1      44.604   4.327  12.504  0.00  0.00    +0.000 C 
ATOM     14  C   UNL     1      44.704   5.638  11.716  0.00  0.00    +0.000 C 
ATOM     15  C   UNL     1      46.128   6.169  11.579  0.00  0.00    +0.000 C 
ATOM     16  C   UNL     1      46.919   6.070  12.877  0.00  0.00    +0.000 C 
ATOM     17  C   UNL     1      46.697   4.751  13.601  0.00  0.00    +0.000 C 
ATOM     18  O   UNL     1      45.313   4.448  13.741  0.00  0.00    +0.000 OA
ENDBRANCH  12  13
ENDBRANCH  11  12
ENDBRANCH   4  11
TORSDOF 5
ENDMDL
MODEL 2
REMARK VINA RESULT:    -6.619      1.370      1.884
REMARK INTER + INTRA:          -8.782
REMARK INTER:                  -8.409
REMARK INTRA:                  -0.373
REMARK UNBOUND:                -0.421
REMARK  Name = 
REMARK  5 active torsions:
REMARK  status: ('A' for Active; 'I' for Inactive)
REMARK    1  A    between atoms: N_1  and  C_2
REMARK    2  A    between atoms: C_2  and  C_3
REMARK    3  A    between atoms: C_6  and  C_7
REMARK    4  A    between atoms: C_7  and  C_8
REMARK    5  A    between atoms: C_8  and  C_9
REMARK                            x       y       z     vdW  Elec       q    Type
REMARK                         _______ _______ _______ _____ _____    ______ ____
ROOT
ATOM      1  C   UNL     1      46.233   2.051   7.913  0.00  0.00    +0.000 A 
ATOM      2  C   UNL     1      46.195   3.392   7.556  0.00  0.00    +0.000 A 
ATOM      3  N   UNL     1      45.420   4.305   8.192  0.00  0.00    +0.000 NA
ATOM      4  C   UNL     1      44.671   3.834   9.221  0.00  0.00    +0.000 A 
ATOM      5  C   UNL     1      44.701   2.488   9.566  0.00  0.00    +0.000 A 
ATOM      6  N   UNL     1      45.480   1.573   8.941  0.00  0.00    +0.000 NA
ENDROOT
BRANCH   1   7
ATOM      7  C   UNL     1      47.182   1.085   7.247  0.00  0.00    +0.000 C 
BRANCH   7   8
ATOM      8  N   UNL     1      46.919  -0.295   7.663  0.00  0.00    +0.000 NA
ATOM      9  H   UNL     1      45.932  -0.384   7.900  0.00  0.00    +0.000 HD
ATOM     10  H   UNL     1      47.424  -0.448   8.539  0.00  0.00    +0.000 HD
ENDBRANCH   7   8
ENDBRANCH   1   7
BRANCH   4  11
ATOM     11  C   UNL     1      43.773   4.803   9.949  0.00  0.00    +0.000 C 
BRANCH  11  12
ATOM     12  C   UNL     1      43.746   4.598  11.476  0.00  0.00    +0.000 C 
BRANCH  12  13
ATOM     13  C   UNL     1      44.115   5.895  12.222  0.00  0.00    +0.000 C 
ATOM     14  C   UNL     1      45.048   6.837  11.453  0.00  0.00    +0.000 C 
ATOM     15  C   UNL     1      46.509   6.396  11.455  0.00  0.00    +0.000 C 
ATOM     16  C   UNL     1      46.974   5.911  12.822  0.00  0.00    +0.000 C 
ATOM     17  C   UNL     1      45.946   5.032  13.515  0.00  0.00    +0.000 C 
ATOM     18  O   UNL     1      44.653   5.630  13.522  0.00  0.00    +0.000 OA
ENDBRANCH  12  13
ENDBRANCH  11  12
ENDBRANCH   4  11
TORSDOF 5
ENDMDL
MODEL 3
REMARK VINA RESULT:    -5.621      3.477      6.028
REMARK INTER + INTRA:          -7.521
REMARK INTER:                  -7.156
REMARK INTRA:                  -0.364
REMARK UNBOUND:                -0.421
REMARK  Name = 
REMARK  5 active torsions:
REMARK  status: ('A' for Active; 'I' for Inactive)
REMARK    1  A    between atoms: N_1  and  C_2
REMARK    2  A    between atoms: C_2  and  C_3
REMARK    3  A    between atoms: C_6  and  C_7
REMARK    4  A    between atoms: C_7  and  C_8
REMARK    5  A    between atoms: C_8  and  C_9
REMARK                            x       y       z     vdW  Elec       q    Type
REMARK                         _______ _______ _______ _____ _____    ______ ____
ROOT
ATOM      1  C   UNL     1      48.153   6.624  13.364  0.00  0.00    +0.000 A 
ATOM      2  C   UNL     1      47.380   6.974  12.266  0.00  0.00    +0.000 A 
ATOM      3  N   UNL     1      46.281   6.277  11.883  0.00  0.00    +0.000 NA
ATOM      4  C   UNL     1      45.964   5.201  12.646  0.00  0.00    +0.000 A 
ATOM      5  C   UNL     1      46.749   4.847  13.737  0.00  0.00    +0.000 A 
ATOM      6  N   UNL     1      47.841   5.543  14.131  0.00  0.00    +0.000 NA
ENDROOT
BRANCH   1   7
ATOM      7  C   UNL     1      49.309   7.480  13.818  0.00  0.00    +0.000 C 
BRANCH   7   8
ATOM      8  N   UNL     1      50.079   6.821  14.877  0.00  0.00    +0.000 NA
ATOM      9  H   UNL     1      50.278   7.499  15.610  0.00  0.00    +0.000 HD
ATOM     10  H   UNL     1      50.988   6.574  14.480  0.00  0.00    +0.000 HD
ENDBRANCH   7   8
ENDBRANCH   1   7
BRANCH   4  11
ATOM     11  C   UNL     1      44.764   4.378  12.252  0.00  0.00    +0.000 C 
BRANCH  11  12
ATOM     12  C   UNL     1      45.110   3.145  11.394  0.00  0.00    +0.000 C 
BRANCH  12  13
ATOM     13  C   UNL     1      44.244   3.086  10.121  0.00  0.00    +0.000 C 
ATOM     14  C   UNL     1      44.571   1.927   9.173  0.00  0.00    +0.000 C 
ATOM     15  C   UNL     1      45.825   2.150   8.334  0.00  0.00    +0.000 C 
ATOM     16  C   UNL     1      45.910   3.562   7.769  0.00  0.00    +0.000 C 
ATOM     17  C   UNL     1      45.509   4.625   8.780  0.00  0.00    +0.000 C 
ATOM     18  O   UNL     1      44.264   4.324   9.402  0.00  0.00    +0.000 OA
ENDBRANCH  12  13
ENDBRANCH  11  12
ENDBRANCH   4  11
TORSDOF 5
ENDMDL
MODEL 4
REMARK VINA RESULT:    -5.530      2.867      5.886
REMARK INTER + INTRA:          -7.406
REMARK INTER:                  -7.226
REMARK INTRA:                  -0.179
REMARK UNBOUND:                -0.421
REMARK  Name = 
REMARK  5 active torsions:
REMARK  status: ('A' for Active; 'I' for Inactive)
REMARK    1  A    between atoms: N_1  and  C_2
REMARK    2  A    between atoms: C_2  and  C_3
REMARK    3  A    between atoms: C_6  and  C_7
REMARK    4  A    between atoms: C_7  and  C_8
REMARK    5  A    between atoms: C_8  and  C_9
REMARK                            x       y       z     vdW  Elec       q    Type
REMARK                         _______ _______ _______ _____ _____    ______ ____
ROOT
ATOM      1  C   UNL     1      46.194   4.629  12.953  0.00  0.00    +0.000 A 
ATOM      2  C   UNL     1      46.061   5.679  12.055  0.00  0.00    +0.000 A 
ATOM      3  N   UNL     1      45.337   5.586  10.911  0.00  0.00    +0.000 NA
ATOM      4  C   UNL     1      44.732   4.393  10.686  0.00  0.00    +0.000 A 
ATOM      5  C   UNL     1      44.879   3.340  11.582  0.00  0.00    +0.000 A 
ATOM      6  N   UNL     1      45.593   3.428  12.729  0.00  0.00    +0.000 NA
ENDROOT
BRANCH   1   7
ATOM      7  C   UNL     1      46.924   4.801  14.262  0.00  0.00    +0.000 C 
BRANCH   7   8
ATOM      8  N   UNL     1      47.301   3.507  14.837  0.00  0.00    +0.000 NA
ATOM      9  H   UNL     1      46.466   2.928  14.918  0.00  0.00    +0.000 HD
ATOM     10  H   UNL     1      47.606   3.680  15.797  0.00  0.00    +0.000 HD
ENDBRANCH   7   8
ENDBRANCH   1   7
BRANCH   4  11
ATOM     11  C   UNL     1      43.932   4.228   9.418  0.00  0.00    +0.000 C 
BRANCH  11  12
ATOM     12  C   UNL     1      44.503   3.168   8.456  0.00  0.00    +0.000 C 
BRANCH  12  13
ATOM     13  C   UNL     1      46.044   3.149   8.493  0.00  0.00    +0.000 C 
ATOM     14  C   UNL     1      46.724   3.754   7.260  0.00  0.00    +0.000 C 
ATOM     15  C   UNL     1      46.722   2.837   6.041  0.00  0.00    +0.000 C 
ATOM     16  C   UNL     1      47.061   1.394   6.391  0.00  0.00    +0.000 C 
ATOM     17  C   UNL     1      46.375   0.920   7.662  0.00  0.00    +0.000 C 
ATOM     18  O   UNL     1      46.557   1.836   8.738  0.00  0.00    +0.000 OA
ENDBRANCH  12  13
ENDBRANCH  11  12
ENDBRANCH   4  11
TORSDOF 5
ENDMDL
MODEL 5
REMARK VINA RESULT:    -5.195      2.953      5.938
REMARK INTER + INTRA:          -6.983
REMARK INTER:                  -6.647
REMARK INTRA:                  -0.336
REMARK UNBOUND:                -0.421
REMARK  Name = 
REMARK  5 active torsions:
REMARK  status: ('A' for Active; 'I' for Inactive)
REMARK    1  A    between atoms: N_1  and  C_2
REMARK    2  A    between atoms: C_2  and  C_3
REMARK    3  A    between atoms: C_6  and  C_7
REMARK    4  A    between atoms: C_7  and  C_8
REMARK    5  A    between atoms: C_8  and  C_9
REMARK                            x       y       z     vdW  Elec       q    Type
REMARK                         _______ _______ _______ _____ _____    ______ ____
ROOT
ATOM      1  C   UNL     1      45.031   5.635  12.068  0.00  0.00    +0.000 A 
ATOM      2  C   UNL     1      44.245   5.695  10.925  0.00  0.00    +0.000 A 
ATOM      3  N   UNL     1      43.943   4.604  10.178  0.00  0.00    +0.000 NA
ATOM      4  C   UNL     1      44.453   3.425  10.615  0.00  0.00    +0.000 A 
ATOM      5  C   UNL     1      45.251   3.372  11.752  0.00  0.00    +0.000 A 
ATOM      6  N   UNL     1      45.549   4.455  12.507  0.00  0.00    +0.000 NA
ENDROOT
BRANCH   1   7
ATOM      7  C   UNL     1      45.263   6.852  12.928  0.00  0.00    +0.000 C 
BRANCH   7   8
ATOM      8  N   UNL     1      44.822   8.076  12.253  0.00  0.00    +0.000 NA
ATOM      9  H   UNL     1      43.857   7.955  11.952  0.00  0.00    +0.000 HD
ATOM     10  H   UNL     1      45.368   8.160  11.392  0.00  0.00    +0.000 HD
ENDBRANCH   7   8
ENDBRANCH   1   7
BRANCH   4  11
ATOM     11  C   UNL     1      44.166   2.183   9.809  0.00  0.00    +0.000 C 
BRANCH  11  12
ATOM     12  C   UNL     1      44.728   2.229   8.374  0.00  0.00    +0.000 C 
BRANCH  12  13
ATOM     13  C   UNL     1      46.220   2.614   8.369  0.00  0.00    +0.000 C 
ATOM     14  C   UNL     1      46.571   3.822   7.493  0.00  0.00    +0.000 C 
ATOM     15  C   UNL     1      46.625   3.508   6.001  0.00  0.00    +0.000 C 
ATOM     16  C   UNL     1      47.339   2.196   5.702  0.00  0.00    +0.000 C 
ATOM     17  C   UNL     1      46.956   1.086   6.668  0.00  0.00    +0.000 C 
ATOM     18  O   UNL     1      47.057   1.505   8.026  0.00  0.00    +0.000 OA
ENDBRANCH  12  13
ENDBRANCH  11  12
ENDBRANCH   4  11
TORSDOF 5
ENDMDL
MODEL 6
REMARK VINA RESULT:    -5.148      3.597      6.432
REMARK INTER + INTRA:          -6.923
REMARK INTER:                  -6.623
REMARK INTRA:                  -0.300
REMARK UNBOUND:                -0.421
REMARK  Name = 
REMARK  5 active torsions:
REMARK  status: ('A' for Active; 'I' for Inactive)
REMARK    1  A    between atoms: N_1  and  C_2
REMARK    2  A    between atoms: C_2  and  C_3
REMARK    3  A    between atoms: C_6  and  C_7
REMARK    4  A    between atoms: C_7  and  C_8
REMARK    5  A    between atoms: C_8  and  C_9
REMARK                            x       y       z     vdW  Elec       q    Type
REMARK                         _______ _______ _______ _____ _____    ______ ____
ROOT
ATOM      1  C   UNL     1      47.422   5.887  14.183  0.00  0.00    +0.000 A 
ATOM      2  C   UNL     1      46.741   4.732  13.821  0.00  0.00    +0.000 A 
ATOM      3  N   UNL     1      46.012   4.630  12.681  0.00  0.00    +0.000 NA
ATOM      4  C   UNL     1      45.985   5.733  11.893  0.00  0.00    +0.000 A 
ATOM      5  C   UNL     1      46.657   6.891  12.265  0.00  0.00    +0.000 A 
ATOM      6  N   UNL     1      47.394   6.998  13.396  0.00  0.00    +0.000 NA
ENDROOT
BRANCH   1   7
ATOM      7  C   UNL     1      48.303   5.931  15.406  0.00  0.00    +0.000 C 
BRANCH   7   8
ATOM      8  N   UNL     1      47.699   5.204  16.526  0.00  0.00    +0.000 NA
ATOM      9  H   UNL     1      48.409   4.612  16.954  0.00  0.00    +0.000 HD
ATOM     10  H   UNL     1      47.010   4.560  16.131  0.00  0.00    +0.000 HD
ENDBRANCH   7   8
ENDBRANCH   1   7
BRANCH   4  11
ATOM     11  C   UNL     1      45.171   5.681  10.624  0.00  0.00    +0.000 C 
BRANCH  11  12
ATOM     12  C   UNL     1      45.944   5.127   9.411  0.00  0.00    +0.000 C 
BRANCH  12  13
ATOM     13  C   UNL     1      45.025   4.304   8.488  0.00  0.00    +0.000 C 
ATOM     14  C   UNL     1      44.567   2.961   9.067  0.00  0.00    +0.000 C 
ATOM     15  C   UNL     1      45.632   1.870   9.012  0.00  0.00    +0.000 C 
ATOM     16  C   UNL     1      46.378   1.843   7.684  0.00  0.00    +0.000 C 
ATOM     17  C   UNL     1      46.730   3.234   7.180  0.00  0.00    +0.000 C 
ATOM     18  O   UNL     1      45.604   4.106   7.195  0.00  0.00    +0.000 OA
ENDBRANCH  12  13
ENDBRANCH  11  12
ENDBRANCH   4  11
TORSDOF 5
ENDMDL
MODEL 7
REMARK VINA RESULT:    -5.130      4.448      7.302
REMARK INTER + INTRA:          -6.900
REMARK INTER:                  -6.665
REMARK INTRA:                  -0.236
REMARK UNBOUND:                -0.421
REMARK  Name = 
REMARK  5 active torsions:
REMARK  status: ('A' for Active; 'I' for Inactive)
REMARK    1  A    between atoms: N_1  and  C_2
REMARK    2  A    between atoms: C_2  and  C_3
REMARK    3  A    between atoms: C_6  and  C_7
REMARK    4  A    between atoms: C_7  and  C_8
REMARK    5  A    between atoms: C_8  and  C_9
REMARK                            x       y       z     vdW  Elec       q    Type
REMARK                         _______ _______ _______ _____ _____    ______ ____
ROOT
ATOM      1  C   UNL     1      48.395   4.491  16.952  0.00  0.00    +0.000 A 
ATOM      2  C   UNL     1      47.432   3.615  16.470  0.00  0.00    +0.000 A 
ATOM      3  N   UNL     1      46.789   3.798  15.289  0.00  0.00    +0.000 NA
ATOM      4  C   UNL     1      47.148   4.900  14.583  0.00  0.00    +0.000 A 
ATOM      5  C   UNL     1      48.103   5.781  15.076  0.00  0.00    +0.000 A 
ATOM      6  N   UNL     1      48.754   5.600  16.249  0.00  0.00    +0.000 NA
ENDROOT
BRANCH   1   7
ATOM      7  C   UNL     1      49.158   4.202  18.220  0.00  0.00    +0.000 C 
BRANCH   7   8
ATOM      8  N   UNL     1      48.399   3.321  19.112  0.00  0.00    +0.000 NA
ATOM      9  H   UNL     1      48.491   2.362  18.783  0.00  0.00    +0.000 HD
ATOM     10  H   UNL     1      47.409   3.555  18.997  0.00  0.00    +0.000 HD
ENDBRANCH   7   8
ENDBRANCH   1   7
BRANCH   4  11
ATOM     11  C   UNL     1      46.449   5.164  13.273  0.00  0.00    +0.000 C 
BRANCH  11  12
ATOM     12  C   UNL     1      45.713   3.935  12.703  0.00  0.00    +0.000 C 
BRANCH  12  13
ATOM     13  C   UNL     1      44.405   4.343  11.997  0.00  0.00    +0.000 C 
ATOM     14  C   UNL     1      43.652   3.192  11.322  0.00  0.00    +0.000 C 
ATOM     15  C   UNL     1      44.257   2.753   9.992  0.00  0.00    +0.000 C 
ATOM     16  C   UNL     1      44.666   3.931   9.117  0.00  0.00    +0.000 C 
ATOM     17  C   UNL     1      45.353   5.037   9.903  0.00  0.00    +0.000 C 
ATOM     18  O   UNL     1      44.611   5.406  11.061  0.00  0.00    +0.000 OA
ENDBRANCH  12  13
ENDBRANCH  11  12
ENDBRANCH   4  11
TORSDOF 5
ENDMDL
MODEL 8
REMARK VINA RESULT:    -4.831      4.946      7.857
REMARK INTER + INTRA:          -6.523
REMARK INTER:                  -6.283
REMARK INTRA:                  -0.240
REMARK UNBOUND:                -0.421
REMARK  Name = 
REMARK  5 active torsions:
REMARK  status: ('A' for Active; 'I' for Inactive)
REMARK    1  A    between atoms: N_1  and  C_2
REMARK    2  A    between atoms: C_2  and  C_3
REMARK    3  A    between atoms: C_6  and  C_7
REMARK    4  A    between atoms: C_7  and  C_8
REMARK    5  A    between atoms: C_8  and  C_9
REMARK                            x       y       z     vdW  Elec       q    Type
REMARK                         _______ _______ _______ _____ _____    ______ ____
ROOT
ATOM      1  C   UNL     1      48.278   5.636  17.591  0.00  0.00    +0.000 A 
ATOM      2  C   UNL     1      48.643   6.138  16.349  0.00  0.00    +0.000 A 
ATOM      3  N   UNL     1      48.256   5.571  15.179  0.00  0.00    +0.000 NA
ATOM      4  C   UNL     1      47.471   4.469  15.284  0.00  0.00    +0.000 A 
ATOM      5  C   UNL     1      47.119   3.962  16.530  0.00  0.00    +0.000 A 
ATOM      6  N   UNL     1      47.495   4.527  17.701  0.00  0.00    +0.000 NA
ENDROOT
BRANCH   1   7
ATOM      7  C   UNL     1      48.645   6.350  18.868  0.00  0.00    +0.000 C 
BRANCH   7   8
ATOM      8  N   UNL     1      47.591   7.280  19.281  0.00  0.00    +0.000 NA
ATOM      9  H   UNL     1      47.024   6.836  20.002  0.00  0.00    +0.000 HD
ATOM     10  H   UNL     1      46.966   7.404  18.481  0.00  0.00    +0.000 HD
ENDBRANCH   7   8
ENDBRANCH   1   7
BRANCH   4  11
ATOM     11  C   UNL     1      47.030   3.786  14.014  0.00  0.00    +0.000 C 
BRANCH  11  12
ATOM     12  C   UNL     1      46.006   4.597  13.195  0.00  0.00    +0.000 C 
BRANCH  12  13
ATOM     13  C   UNL     1      44.966   3.677  12.529  0.00  0.00    +0.000 C 
ATOM     14  C   UNL     1      44.702   3.970  11.048  0.00  0.00    +0.000 C 
ATOM     15  C   UNL     1      43.812   5.186  10.807  0.00  0.00    +0.000 C 
ATOM     16  C   UNL     1      42.620   5.236  11.754  0.00  0.00    +0.000 C 
ATOM     17  C   UNL     1      42.989   4.872  13.184  0.00  0.00    +0.000 C 
ATOM     18  O   UNL     1      43.730   3.657  13.249  0.00  0.00    +0.000 OA
ENDBRANCH  12  13
ENDBRANCH  11  12
ENDBRANCH   4  11
TORSDOF 5
ENDMDL
MODEL 9
REMARK VINA RESULT:    -4.778      3.483      5.450
REMARK INTER + INTRA:          -6.457
REMARK INTER:                  -6.152
REMARK INTRA:                  -0.305
REMARK UNBOUND:                -0.421
REMARK  Name = 
REMARK  5 active torsions:
REMARK  status: ('A' for Active; 'I' for Inactive)
REMARK    1  A    between atoms: N_1  and  C_2
REMARK    2  A    between atoms: C_2  and  C_3
REMARK    3  A    between atoms: C_6  and  C_7
REMARK    4  A    between atoms: C_7  and  C_8
REMARK    5  A    between atoms: C_8  and  C_9
REMARK                            x       y       z     vdW  Elec       q    Type
REMARK                         _______ _______ _______ _____ _____    ______ ____
ROOT
ATOM      1  C   UNL     1      44.851   4.566  11.117  0.00  0.00    +0.000 A 
ATOM      2  C   UNL     1      45.221   5.828  11.561  0.00  0.00    +0.000 A 
ATOM      3  N   UNL     1      45.950   6.033  12.687  0.00  0.00    +0.000 NA
ATOM      4  C   UNL     1      46.313   4.918  13.370  0.00  0.00    +0.000 A 
ATOM      5  C   UNL     1      45.930   3.656  12.929  0.00  0.00    +0.000 A 
ATOM      6  N   UNL     1      45.210   3.445  11.802  0.00  0.00    +0.000 NA
ENDROOT
BRANCH   1   7
ATOM      7  C   UNL     1      44.127   4.372   9.809  0.00  0.00    +0.000 C 
BRANCH   7   8
ATOM      8  N   UNL     1      44.980   4.719   8.669  0.00  0.00    +0.000 NA
ATOM      9  H   UNL     1      44.620   4.255   7.837  0.00  0.00    +0.000 HD
ATOM     10  H   UNL     1      45.897   4.300   8.840  0.00  0.00    +0.000 HD
ENDBRANCH   7   8
ENDBRANCH   1   7
BRANCH   4  11
ATOM     11  C   UNL     1      47.107   5.088  14.641  0.00  0.00    +0.000 C 
BRANCH  11  12
ATOM     12  C   UNL     1      47.351   3.771  15.403  0.00  0.00    +0.000 C 
BRANCH  12  13
ATOM     13  C   UNL     1      47.462   4.013  16.921  0.00  0.00    +0.000 C 
ATOM     14  C   UNL     1      48.241   5.273  17.316  0.00  0.00    +0.000 C 
ATOM     15  C   UNL     1      49.755   5.122  17.209  0.00  0.00    +0.000 C 
ATOM     16  C   UNL     1      50.253   3.790  17.755  0.00  0.00    +0.000 C 
ATOM     17  C   UNL     1      49.372   2.621  17.346  0.00  0.00    +0.000 C 
ATOM     18  O   UNL     1      47.995   2.876  17.606  0.00  0.00    +0.000 OA
ENDBRANCH  12  13
ENDBRANCH  11  12
ENDBRANCH   4  11
TORSDOF 5
ENDMDL
