MODEL 1
REMARK VINA RESULT:    -8.075      0.000      0.000
REMARK INTER + INTRA:         -11.796
REMARK INTER:                 -10.908
REMARK INTRA:                  -0.888
REMARK UNBOUND:                -0.888
REMARK  Name = 
REMARK  8 active torsions:
REMARK  status: ('A' for Active; 'I' for Inactive)
REMARK    1  A    between atoms: C_1  and  O_2
REMARK    2  A    between atoms: O_2  and  C_3
REMARK    3  A    between atoms: C_5  and  N_6
REMARK    4  A    between atoms: N_6  and  C_7
REMARK    5  A    between atoms: C_7  and  C_8
REMARK    6  A    between atoms: C_12  and  C_13
REMARK    7  A    between atoms: C_17  and  C_18
REMARK    8  A    between atoms: C_22  and  C_23
REMARK                            x       y       z     vdW  Elec       q    Type
REMARK                         _______ _______ _______ _____ _____    ______ ____
ROOT
ATOM      1  N   UNL     1      44.078   7.096  12.329  0.00  0.00    +0.000 N 
ATOM      2  H   UNL     1      43.782   7.997  12.688  0.00  0.00    +0.000 HD
ENDROOT
BRANCH   1   5
ATOM      3  C   UNL     1      47.763   7.064  12.128  0.00  0.00    +0.000 A 
ATOM      4  C   UNL     1      46.443   7.444  11.912  0.00  0.00    +0.000 A 
ATOM      5  C   UNL     1      45.405   6.811  12.595  0.00  0.00    +0.000 A 
ATOM      6  N   UNL     1      45.647   5.837  13.492  0.00  0.00    +0.000 NA
ATOM      7  C   UNL     1      46.953   5.476  13.688  0.00  0.00    +0.000 A 
ATOM      8  C   UNL     1      48.028   6.054  13.034  0.00  0.00    +0.000 A 
BRANCH   7   9
ATOM      9  C   UNL     1      47.220   4.367  14.666  0.00  0.00    +0.000 C 
ATOM     10  N   UNL     1      47.325   4.746  15.975  0.00  0.00    +0.000 N 
ATOM     11  O   UNL     1      47.334   3.194  14.328  0.00  0.00    +0.000 OA
ATOM     12  H   UNL     1      47.224   5.722  16.229  0.00  0.00    +0.000 HD
ATOM     13  H   UNL     1      47.502   4.046  16.681  0.00  0.00    +0.000 HD
ENDBRANCH   7   9
BRANCH   3  15
ATOM     14  C   UNL     1      49.784   8.304  12.323  0.00  0.00    +0.000 C 
ATOM     15  O   UNL     1      48.854   7.603  11.502  0.00  0.00    +0.000 OA
ENDBRANCH   3  15
ENDBRANCH   1   5
BRANCH   1  16
ATOM     16  C   UNL     1      43.413   6.577  11.146  0.00  0.00    +0.000 C 
BRANCH  16  17
ATOM     17  C   UNL     1      43.586   5.083  10.991  0.00  0.00    +0.000 A 
ATOM     18  C   UNL     1      42.963   4.213  11.880  0.00  0.00    +0.000 A 
ATOM     19  C   UNL     1      43.204   2.853  11.756  0.00  0.00    +0.000 A 
ATOM     20  C   UNL     1      44.035   2.399  10.737  0.00  0.00    +0.000 A 
ATOM     21  C   UNL     1      44.601   3.318   9.851  0.00  0.00    +0.000 A 
ATOM     22  N   UNL     1      44.389   4.651   9.984  0.00  0.00    +0.000 NA
BRANCH  21  23
ATOM     23  C   UNL     1      45.453   2.909   8.717  0.00  0.00    +0.000 A 
ATOM     24  C   UNL     1      45.926   3.844   7.787  0.00  0.00    +0.000 A 
ATOM     25  C   UNL     1      46.727   3.412   6.742  0.00  0.00    +0.000 A 
ATOM     26  N   UNL     1      47.088   2.126   6.552  0.00  0.00    +0.000 NA
ATOM     27  C   UNL     1      46.619   1.219   7.434  0.00  0.00    +0.000 A 
ATOM     28  C   UNL     1      46.992  -0.218   7.220  0.00  0.00    +0.000 C 
ATOM     29  C   UNL     1      45.809   1.569   8.511  0.00  0.00    +0.000 A 
ENDBRANCH  21  23
ENDBRANCH  16  17
ENDBRANCH   1  16
TORSDOF 6
ENDMDL
MODEL 2
REMARK VINA RESULT:    -7.344      4.372      8.413
REMARK INTER + INTRA:         -10.808
REMARK INTER:                 -10.058
REMARK INTRA:                  -0.750
REMARK UNBOUND:                -0.888
REMARK  Name = 
REMARK  8 active torsions:
REMARK  status: ('A' for Active; 'I' for Inactive)
REMARK    1  A    between atoms: C_1  and  O_2
REMARK    2  A    between atoms: O_2  and  C_3
REMARK    3  A    between atoms: C_5  and  N_6
REMARK    4  A    between atoms: N_6  and  C_7
REMARK    5  A    between atoms: C_7  and  C_8
REMARK    6  A    between atoms: C_12  and  C_13
REMARK    7  A    between atoms: C_17  and  C_18
REMARK    8  A    between atoms: C_22  and  C_23
REMARK                            x       y       z     vdW  Elec       q    Type
REMARK                         _______ _______ _______ _____ _____    ______ ____
ROOT
ATOM      1  N   UNL     1      47.168   3.573  14.823  0.00  0.00    +0.000 N 
ATOM      2  H   UNL     1      47.992   3.017  14.623  0.00  0.00    +0.000 HD
ENDROOT
BRANCH   1   5
ATOM      3  C   UNL     1      46.134   6.027  12.267  0.00  0.00    +0.000 A 
ATOM      4  C   UNL     1      46.800   5.468  13.352  0.00  0.00    +0.000 A 
ATOM      5  C   UNL     1      46.599   4.131  13.693  0.00  0.00    +0.000 A 
ATOM      6  N   UNL     1      45.776   3.341  12.976  0.00  0.00    +0.000 NA
ATOM      7  C   UNL     1      45.127   3.912  11.914  0.00  0.00    +0.000 A 
ATOM      8  C   UNL     1      45.273   5.234  11.531  0.00  0.00    +0.000 A 
BRANCH   7   9
ATOM      9  C   UNL     1      44.186   3.038  11.135  0.00  0.00    +0.000 C 
ATOM     10  N   UNL     1      44.734   2.386  10.065  0.00  0.00    +0.000 N 
ATOM     11  O   UNL     1      43.003   2.905  11.428  0.00  0.00    +0.000 OA
ATOM     12  H   UNL     1      45.715   2.511   9.845  0.00  0.00    +0.000 HD
ATOM     13  H   UNL     1      44.153   1.782   9.503  0.00  0.00    +0.000 HD
ENDBRANCH   7   9
BRANCH   3  15
ATOM     14  C   UNL     1      45.620   8.313  12.677  0.00  0.00    +0.000 C 
ATOM     15  O   UNL     1      46.243   7.328  11.857  0.00  0.00    +0.000 OA
ENDBRANCH   3  15
ENDBRANCH   1   5
BRANCH   1  16
ATOM     16  C   UNL     1      47.077   4.225  16.118  0.00  0.00    +0.000 C 
BRANCH  16  17
ATOM     17  C   UNL     1      48.420   4.704  16.622  0.00  0.00    +0.000 A 
ATOM     18  C   UNL     1      48.687   6.067  16.705  0.00  0.00    +0.000 A 
ATOM     19  C   UNL     1      49.954   6.472  17.099  0.00  0.00    +0.000 A 
ATOM     20  C   UNL     1      50.906   5.510  17.421  0.00  0.00    +0.000 A 
ATOM     21  C   UNL     1      50.567   4.157  17.354  0.00  0.00    +0.000 A 
ATOM     22  N   UNL     1      49.337   3.756  16.946  0.00  0.00    +0.000 NA
BRANCH  21  23
ATOM     23  C   UNL     1      51.506   3.081  17.727  0.00  0.00    +0.000 A 
ATOM     24  C   UNL     1      51.275   1.750  17.356  0.00  0.00    +0.000 A 
ATOM     25  C   UNL     1      52.188   0.777  17.725  0.00  0.00    +0.000 A 
ATOM     26  N   UNL     1      53.310   1.026  18.434  0.00  0.00    +0.000 NA
ATOM     27  C   UNL     1      53.528   2.304  18.810  0.00  0.00    +0.000 A 
ATOM     28  C   UNL     1      54.757   2.591  19.620  0.00  0.00    +0.000 C 
ATOM     29  C   UNL     1      52.660   3.341  18.481  0.00  0.00    +0.000 A 
ENDBRANCH  21  23
ENDBRANCH  16  17
ENDBRANCH   1  16
TORSDOF 6
ENDMDL
MODEL 3
REMARK VINA RESULT:    -7.343      3.081      5.594
REMARK INTER + INTRA:         -10.807
REMARK INTER:                 -10.086
REMARK INTRA:                  -0.721
REMARK UNBOUND:                -0.888
REMARK  Name = 
REMARK  8 active torsions:
REMARK  status: ('A' for Active; 'I' for Inactive)
REMARK    1  A    between atoms: C_1  and  O_2
REMARK    2  A    between atoms: O_2  and  C_3
REMARK    3  A    between atoms: C_5  and  N_6
REMARK    4  A    between atoms: N_6  and  C_7
REMARK    5  A    between atoms: C_7  and  C_8
REMARK    6  A    between atoms: C_12  and  C_13
REMARK    7  A    between atoms: C_17  and  C_18
REMARK    8  A    between atoms: C_22  and  C_23
REMARK                            x       y       z     vdW  Elec       q    Type
REMARK                         _______ _______ _______ _____ _____    ______ ____
ROOT
ATOM      1  N   UNL     1      48.493   6.837  15.923  0.00  0.00    +0.000 N 
ATOM      2  H   UNL     1      48.777   7.743  16.281  0.00  0.00    +0.000 HD
ENDROOT
BRANCH   1   5
ATOM      3  C   UNL     1      48.453   5.042  19.148  0.00  0.00    +0.000 A 
ATOM      4  C   UNL     1      48.266   6.049  18.207  0.00  0.00    +0.000 A 
ATOM      5  C   UNL     1      48.572   5.828  16.865  0.00  0.00    +0.000 A 
ATOM      6  N   UNL     1      49.033   4.636  16.438  0.00  0.00    +0.000 NA
ATOM      7  C   UNL     1      49.212   3.659  17.381  0.00  0.00    +0.000 A 
ATOM      8  C   UNL     1      48.942   3.819  18.729  0.00  0.00    +0.000 A 
BRANCH   7   9
ATOM      9  C   UNL     1      49.757   2.342  16.909  0.00  0.00    +0.000 C 
ATOM     10  N   UNL     1      50.757   1.807  17.673  0.00  0.00    +0.000 N 
ATOM     11  O   UNL     1      49.341   1.769  15.908  0.00  0.00    +0.000 OA
ATOM     12  H   UNL     1      51.081   2.300  18.498  0.00  0.00    +0.000 HD
ATOM     13  H   UNL     1      51.163   0.922  17.409  0.00  0.00    +0.000 HD
ENDBRANCH   7   9
BRANCH   3  15
ATOM     14  C   UNL     1      47.494   6.318  20.912  0.00  0.00    +0.000 C 
ATOM     15  O   UNL     1      48.204   5.157  20.488  0.00  0.00    +0.000 OA
ENDBRANCH   3  15
ENDBRANCH   1   5
BRANCH   1  16
ATOM     16  C   UNL     1      48.682   6.570  14.508  0.00  0.00    +0.000 C 
BRANCH  16  17
ATOM     17  C   UNL     1      47.478   6.956  13.678  0.00  0.00    +0.000 A 
ATOM     18  C   UNL     1      47.073   8.285  13.613  0.00  0.00    +0.000 A 
ATOM     19  C   UNL     1      45.921   8.594  12.904  0.00  0.00    +0.000 A 
ATOM     20  C   UNL     1      45.224   7.575  12.263  0.00  0.00    +0.000 A 
ATOM     21  C   UNL     1      45.700   6.265  12.333  0.00  0.00    +0.000 A 
ATOM     22  N   UNL     1      46.813   5.954  13.045  0.00  0.00    +0.000 NA
BRANCH  21  23
ATOM     23  C   UNL     1      45.043   5.140  11.639  0.00  0.00    +0.000 A 
ATOM     24  C   UNL     1      44.201   4.253  12.323  0.00  0.00    +0.000 A 
ATOM     25  C   UNL     1      43.604   3.216  11.626  0.00  0.00    +0.000 A 
ATOM     26  N   UNL     1      43.781   2.994  10.307  0.00  0.00    +0.000 NA
ATOM     27  C   UNL     1      44.606   3.834   9.648  0.00  0.00    +0.000 A 
ATOM     28  C   UNL     1      44.833   3.584   8.186  0.00  0.00    +0.000 C 
ATOM     29  C   UNL     1      45.246   4.900  10.273  0.00  0.00    +0.000 A 
ENDBRANCH  21  23
ENDBRANCH  16  17
ENDBRANCH   1  16
TORSDOF 6
ENDMDL
MODEL 4
REMARK VINA RESULT:    -7.336      1.920      2.295
REMARK INTER + INTRA:         -10.798
REMARK INTER:                 -10.025
REMARK INTRA:                  -0.773
REMARK UNBOUND:                -0.888
REMARK  Name = 
REMARK  8 active torsions:
REMARK  status: ('A' for Active; 'I' for Inactive)
REMARK    1  A    between atoms: C_1  and  O_2
REMARK    2  A    between atoms: O_2  and  C_3
REMARK    3  A    between atoms: C_5  and  N_6
REMARK    4  A    between atoms: N_6  and  C_7
REMARK    5  A    between atoms: C_7  and  C_8
REMARK    6  A    between atoms: C_12  and  C_13
REMARK    7  A    between atoms: C_17  and  C_18
REMARK    8  A    between atoms: C_22  and  C_23
REMARK                            x       y       z     vdW  Elec       q    Type
REMARK                         _______ _______ _______ _____ _____    ______ ____
ROOT
ATOM      1  N   UNL     1      46.914   6.455  12.688  0.00  0.00    +0.000 N 
ATOM      2  H   UNL     1      47.407   5.997  11.929  0.00  0.00    +0.000 HD
ENDROOT
BRANCH   1   5
ATOM      3  C   UNL     1      48.934   6.944  15.739  0.00  0.00    +0.000 A 
ATOM      4  C   UNL     1      48.277   7.220  14.544  0.00  0.00    +0.000 A 
ATOM      5  C   UNL     1      47.498   6.245  13.924  0.00  0.00    +0.000 A 
ATOM      6  N   UNL     1      47.341   5.022  14.467  0.00  0.00    +0.000 NA
ATOM      7  C   UNL     1      47.999   4.769  15.642  0.00  0.00    +0.000 A 
ATOM      8  C   UNL     1      48.797   5.688  16.301  0.00  0.00    +0.000 A 
BRANCH   7   9
ATOM      9  C   UNL     1      47.849   3.395  16.229  0.00  0.00    +0.000 C 
ATOM     10  N   UNL     1      46.826   3.244  17.124  0.00  0.00    +0.000 N 
ATOM     11  O   UNL     1      48.585   2.460  15.934  0.00  0.00    +0.000 OA
ATOM     12  H   UNL     1      46.230   4.032  17.349  0.00  0.00    +0.000 HD
ATOM     13  H   UNL     1      46.672   2.343  17.552  0.00  0.00    +0.000 HD
ENDBRANCH   7   9
BRANCH   3  15
ATOM     14  C   UNL     1      51.013   7.333  16.825  0.00  0.00    +0.000 C 
ATOM     15  O   UNL     1      49.736   7.818  16.421  0.00  0.00    +0.000 OA
ENDBRANCH   3  15
ENDBRANCH   1   5
BRANCH   1  16
ATOM     16  C   UNL     1      45.483   6.661  12.550  0.00  0.00    +0.000 C 
BRANCH  16  17
ATOM     17  C   UNL     1      44.787   5.486  11.901  0.00  0.00    +0.000 A 
ATOM     18  C   UNL     1      43.597   4.999  12.434  0.00  0.00    +0.000 A 
ATOM     19  C   UNL     1      43.025   3.874  11.859  0.00  0.00    +0.000 A 
ATOM     20  C   UNL     1      43.640   3.284  10.760  0.00  0.00    +0.000 A 
ATOM     21  C   UNL     1      44.812   3.840  10.247  0.00  0.00    +0.000 A 
ATOM     22  N   UNL     1      45.389   4.926  10.819  0.00  0.00    +0.000 NA
BRANCH  21  23
ATOM     23  C   UNL     1      45.495   3.301   9.054  0.00  0.00    +0.000 A 
ATOM     24  C   UNL     1      45.896   4.136   8.003  0.00  0.00    +0.000 A 
ATOM     25  C   UNL     1      46.538   3.583   6.908  0.00  0.00    +0.000 A 
ATOM     26  N   UNL     1      46.808   2.267   6.778  0.00  0.00    +0.000 NA
ATOM     27  C   UNL     1      46.407   1.456   7.779  0.00  0.00    +0.000 A 
ATOM     28  C   UNL     1      46.678  -0.012   7.636  0.00  0.00    +0.000 C 
ATOM     29  C   UNL     1      45.756   1.931   8.914  0.00  0.00    +0.000 A 
ENDBRANCH  21  23
ENDBRANCH  16  17
ENDBRANCH   1  16
TORSDOF 6
ENDMDL
MODEL 5
REMARK VINA RESULT:    -7.158      2.813      5.159
REMARK INTER + INTRA:         -10.556
REMARK INTER:                  -9.704
REMARK INTRA:                  -0.853
REMARK UNBOUND:                -0.888
REMARK  Name = 
REMARK  8 active torsions:
REMARK  status: ('A' for Active; 'I' for Inactive)
REMARK    1  A    between atoms: C_1  and  O_2
REMARK    2  A    between atoms: O_2  and  C_3
REMARK    3  A    between atoms: C_5  and  N_6
REMARK    4  A    between atoms: N_6  and  C_7
REMARK    5  A    between atoms: C_7  and  C_8
REMARK    6  A    between atoms: C_12  and  C_13
REMARK    7  A    between atoms: C_17  and  C_18
REMARK    8  A    between atoms: C_22  and  C_23
REMARK                            x       y       z     vdW  Elec       q    Type
REMARK                         _______ _______ _______ _____ _____    ______ ____
ROOT
ATOM      1  N   UNL     1      49.424   7.441  14.819  0.00  0.00    +0.000 N 
ATOM      2  H   UNL     1      50.314   7.889  15.007  0.00  0.00    +0.000 HD
ENDROOT
BRANCH   1   5
ATOM      3  C   UNL     1      48.331   6.684  18.262  0.00  0.00    +0.000 A 
ATOM      4  C   UNL     1      48.762   7.404  17.153  0.00  0.00    +0.000 A 
ATOM      5  C   UNL     1      48.903   6.778  15.915  0.00  0.00    +0.000 A 
ATOM      6  N   UNL     1      48.609   5.474  15.752  0.00  0.00    +0.000 NA
ATOM      7  C   UNL     1      48.189   4.783  16.857  0.00  0.00    +0.000 A 
ATOM      8  C   UNL     1      48.041   5.340  18.115  0.00  0.00    +0.000 A 
BRANCH   7   9
ATOM      9  C   UNL     1      47.892   3.321  16.679  0.00  0.00    +0.000 C 
ATOM     10  N   UNL     1      46.947   2.804  17.522  0.00  0.00    +0.000 N 
ATOM     11  O   UNL     1      48.449   2.625  15.838  0.00  0.00    +0.000 OA
ATOM     12  H   UNL     1      46.499   3.401  18.207  0.00  0.00    +0.000 HD
ATOM     13  H   UNL     1      46.702   1.827  17.450  0.00  0.00    +0.000 HD
ENDBRANCH   7   9
BRANCH   3  15
ATOM     14  C   UNL     1      47.572   6.336  20.489  0.00  0.00    +0.000 C 
ATOM     15  O   UNL     1      48.175   7.192  19.523  0.00  0.00    +0.000 OA
ENDBRANCH   3  15
ENDBRANCH   1   5
BRANCH   1  16
ATOM     16  C   UNL     1      49.156   6.991  13.464  0.00  0.00    +0.000 C 
BRANCH  16  17
ATOM     17  C   UNL     1      47.732   7.262  13.033  0.00  0.00    +0.000 A 
ATOM     18  C   UNL     1      47.165   8.515  13.248  0.00  0.00    +0.000 A 
ATOM     19  C   UNL     1      45.834   8.707  12.910  0.00  0.00    +0.000 A 
ATOM     20  C   UNL     1      45.116   7.657  12.347  0.00  0.00    +0.000 A 
ATOM     21  C   UNL     1      45.750   6.434  12.121  0.00  0.00    +0.000 A 
ATOM     22  N   UNL     1      47.045   6.233  12.472  0.00  0.00    +0.000 NA
BRANCH  21  23
ATOM     23  C   UNL     1      45.070   5.290  11.483  0.00  0.00    +0.000 A 
ATOM     24  C   UNL     1      44.233   4.439  12.216  0.00  0.00    +0.000 A 
ATOM     25  C   UNL     1      43.612   3.382  11.571  0.00  0.00    +0.000 A 
ATOM     26  N   UNL     1      43.763   3.107  10.258  0.00  0.00    +0.000 NA
ATOM     27  C   UNL     1      44.583   3.912   9.552  0.00  0.00    +0.000 A 
ATOM     28  C   UNL     1      44.780   3.604   8.098  0.00  0.00    +0.000 C 
ATOM     29  C   UNL     1      45.245   4.996  10.124  0.00  0.00    +0.000 A 
ENDBRANCH  21  23
ENDBRANCH  16  17
ENDBRANCH   1  16
TORSDOF 6
ENDMDL
MODEL 6
REMARK VINA RESULT:    -7.055      2.615      7.100
REMARK INTER + INTRA:         -10.418
REMARK INTER:                  -9.529
REMARK INTRA:                  -0.888
REMARK UNBOUND:                -0.888
REMARK  Name = 
REMARK  8 active torsions:
REMARK  status: ('A' for Active; 'I' for Inactive)
REMARK    1  A    between atoms: C_1  and  O_2
REMARK    2  A    between atoms: O_2  and  C_3
REMARK    3  A    between atoms: C_5  and  N_6
REMARK    4  A    between atoms: N_6  and  C_7
REMARK    5  A    between atoms: C_7  and  C_8
REMARK    6  A    between atoms: C_12  and  C_13
REMARK    7  A    between atoms: C_17  and  C_18
REMARK    8  A    between atoms: C_22  and  C_23
REMARK                            x       y       z     vdW  Elec       q    Type
REMARK                         _______ _______ _______ _____ _____    ______ ____
ROOT
ATOM      1  N   UNL     1      45.604   6.680  10.419  0.00  0.00    +0.000 N 
ATOM      2  H   UNL     1      45.347   7.305   9.662  0.00  0.00    +0.000 HD
ENDROOT
BRANCH   1   5
ATOM      3  C   UNL     1      45.308   3.460   8.638  0.00  0.00    +0.000 A 
ATOM      4  C   UNL     1      45.681   4.769   8.926  0.00  0.00    +0.000 A 
ATOM      5  C   UNL     1      45.336   5.351  10.144  0.00  0.00    +0.000 A 
ATOM      6  N   UNL     1      44.654   4.664  11.081  0.00  0.00    +0.000 NA
ATOM      7  C   UNL     1      44.295   3.378  10.778  0.00  0.00    +0.000 A 
ATOM      8  C   UNL     1      44.594   2.747   9.583  0.00  0.00    +0.000 A 
BRANCH   7   9
ATOM      9  C   UNL     1      43.507   2.625  11.811  0.00  0.00    +0.000 C 
ATOM     10  N   UNL     1      43.610   3.095  13.091  0.00  0.00    +0.000 N 
ATOM     11  O   UNL     1      42.811   1.653  11.541  0.00  0.00    +0.000 OA
ATOM     12  H   UNL     1      44.191   3.902  13.288  0.00  0.00    +0.000 HD
ATOM     13  H   UNL     1      43.103   2.632  13.831  0.00  0.00    +0.000 HD
ENDBRANCH   7   9
BRANCH   3  15
ATOM     14  C   UNL     1      46.598   3.351   6.642  0.00  0.00    +0.000 C 
ATOM     15  O   UNL     1      45.578   2.799   7.471  0.00  0.00    +0.000 OA
ENDBRANCH   3  15
ENDBRANCH   1   5
BRANCH   1  16
ATOM     16  C   UNL     1      45.568   7.195  11.776  0.00  0.00    +0.000 C 
BRANCH  16  17
ATOM     17  C   UNL     1      46.939   7.249  12.413  0.00  0.00    +0.000 A 
ATOM     18  C   UNL     1      48.006   7.816  11.722  0.00  0.00    +0.000 A 
ATOM     19  C   UNL     1      49.265   7.781  12.303  0.00  0.00    +0.000 A 
ATOM     20  C   UNL     1      49.418   7.208  13.562  0.00  0.00    +0.000 A 
ATOM     21  C   UNL     1      48.303   6.690  14.221  0.00  0.00    +0.000 A 
ATOM     22  N   UNL     1      47.074   6.699  13.647  0.00  0.00    +0.000 NA
BRANCH  21  23
ATOM     23  C   UNL     1      48.377   6.111  15.577  0.00  0.00    +0.000 A 
ATOM     24  C   UNL     1      49.051   6.768  16.615  0.00  0.00    +0.000 A 
ATOM     25  C   UNL     1      49.088   6.187  17.872  0.00  0.00    +0.000 A 
ATOM     26  N   UNL     1      48.510   5.005  18.173  0.00  0.00    +0.000 NA
ATOM     27  C   UNL     1      47.876   4.359  17.172  0.00  0.00    +0.000 A 
ATOM     28  C   UNL     1      47.250   3.032  17.486  0.00  0.00    +0.000 C 
ATOM     29  C   UNL     1      47.793   4.873  15.881  0.00  0.00    +0.000 A 
ENDBRANCH  21  23
ENDBRANCH  16  17
ENDBRANCH   1  16
TORSDOF 6
ENDMDL
MODEL 7
REMARK VINA RESULT:    -6.752      2.511      7.532
REMARK INTER + INTRA:         -10.009
REMARK INTER:                  -9.208
REMARK INTRA:                  -0.801
REMARK UNBOUND:                -0.888
REMARK  Name = 
REMARK  8 active torsions:
REMARK  status: ('A' for Active; 'I' for Inactive)
REMARK    1  A    between atoms: C_1  and  O_2
REMARK    2  A    between atoms: O_2  and  C_3
REMARK    3  A    between atoms: C_5  and  N_6
REMARK    4  A    between atoms: N_6  and  C_7
REMARK    5  A    between atoms: C_7  and  C_8
REMARK    6  A    between atoms: C_12  and  C_13
REMARK    7  A    between atoms: C_17  and  C_18
REMARK    8  A    between atoms: C_22  and  C_23
REMARK                            x       y       z     vdW  Elec       q    Type
REMARK                         _______ _______ _______ _____ _____    ______ ____
ROOT
ATOM      1  N   UNL     1      45.764   6.631  10.294  0.00  0.00    +0.000 N 
ATOM      2  H   UNL     1      45.659   7.334   9.570  0.00  0.00    +0.000 HD
ENDROOT
BRANCH   1   5
ATOM      3  C   UNL     1      44.222   3.278  10.262  0.00  0.00    +0.000 A 
ATOM      4  C   UNL     1      44.510   4.583  10.644  0.00  0.00    +0.000 A 
ATOM      5  C   UNL     1      45.379   5.367   9.886  0.00  0.00    +0.000 A 
ATOM      6  N   UNL     1      45.944   4.896   8.758  0.00  0.00    +0.000 NA
ATOM      7  C   UNL     1      45.649   3.607   8.400  0.00  0.00    +0.000 A 
ATOM      8  C   UNL     1      44.807   2.773   9.115  0.00  0.00    +0.000 A 
BRANCH   7   9
ATOM      9  C   UNL     1      46.305   3.073   7.159  0.00  0.00    +0.000 C 
ATOM     10  N   UNL     1      46.811   1.806   7.257  0.00  0.00    +0.000 N 
ATOM     11  O   UNL     1      46.387   3.716   6.118  0.00  0.00    +0.000 OA
ATOM     12  H   UNL     1      46.728   1.294   8.128  0.00  0.00    +0.000 HD
ATOM     13  H   UNL     1      47.262   1.390   6.455  0.00  0.00    +0.000 HD
ENDBRANCH   7   9
BRANCH   3  15
ATOM     14  C   UNL     1      43.422   2.499  12.362  0.00  0.00    +0.000 C 
ATOM     15  O   UNL     1      43.401   2.418  10.939  0.00  0.00    +0.000 OA
ENDBRANCH   3  15
ENDBRANCH   1   5
BRANCH   1  16
ATOM     16  C   UNL     1      45.644   7.051  11.679  0.00  0.00    +0.000 C 
BRANCH  16  17
ATOM     17  C   UNL     1      46.985   7.162  12.370  0.00  0.00    +0.000 A 
ATOM     18  C   UNL     1      48.045   7.801  11.734  0.00  0.00    +0.000 A 
ATOM     19  C   UNL     1      49.281   7.820  12.363  0.00  0.00    +0.000 A 
ATOM     20  C   UNL     1      49.417   7.225  13.613  0.00  0.00    +0.000 A 
ATOM     21  C   UNL     1      48.308   6.632  14.217  0.00  0.00    +0.000 A 
ATOM     22  N   UNL     1      47.103   6.590  13.596  0.00  0.00    +0.000 NA
BRANCH  21  23
ATOM     23  C   UNL     1      48.362   6.026  15.562  0.00  0.00    +0.000 A 
ATOM     24  C   UNL     1      49.016   6.663  16.624  0.00  0.00    +0.000 A 
ATOM     25  C   UNL     1      49.034   6.056  17.869  0.00  0.00    +0.000 A 
ATOM     26  N   UNL     1      48.456   4.866  18.135  0.00  0.00    +0.000 NA
ATOM     27  C   UNL     1      47.841   4.239  17.111  0.00  0.00    +0.000 A 
ATOM     28  C   UNL     1      47.216   2.904  17.387  0.00  0.00    +0.000 C 
ATOM     29  C   UNL     1      47.777   4.780  15.830  0.00  0.00    +0.000 A 
ENDBRANCH  21  23
ENDBRANCH  16  17
ENDBRANCH   1  16
TORSDOF 6
ENDMDL
MODEL 8
REMARK VINA RESULT:    -6.566      4.162      8.365
REMARK INTER + INTRA:          -9.758
REMARK INTER:                  -9.164
REMARK INTRA:                  -0.594
REMARK UNBOUND:                -0.888
REMARK  Name = 
REMARK  8 active torsions:
REMARK  status: ('A' for Active; 'I' for Inactive)
REMARK    1  A    between atoms: C_1  and  O_2
REMARK    2  A    between atoms: O_2  and  C_3
REMARK    3  A    between atoms: C_5  and  N_6
REMARK    4  A    between atoms: N_6  and  C_7
REMARK    5  A    between atoms: C_7  and  C_8
REMARK    6  A    between atoms: C_12  and  C_13
REMARK    7  A    between atoms: C_17  and  C_18
REMARK    8  A    between atoms: C_22  and  C_23
REMARK                            x       y       z     vdW  Elec       q    Type
REMARK                         _______ _______ _______ _____ _____    ______ ____
ROOT
ATOM      1  N   UNL     1      46.025   4.403  14.715  0.00  0.00    +0.000 N 
ATOM      2  H   UNL     1      45.295   4.322  15.414  0.00  0.00    +0.000 HD
ENDROOT
BRANCH   1   5
ATOM      3  C   UNL     1      44.924   4.170  11.199  0.00  0.00    +0.000 A 
ATOM      4  C   UNL     1      45.307   3.787  12.480  0.00  0.00    +0.000 A 
ATOM      5  C   UNL     1      45.548   4.746  13.463  0.00  0.00    +0.000 A 
ATOM      6  N   UNL     1      45.398   6.061  13.211  0.00  0.00    +0.000 NA
ATOM      7  C   UNL     1      45.024   6.417  11.943  0.00  0.00    +0.000 A 
ATOM      8  C   UNL     1      44.783   5.517  10.920  0.00  0.00    +0.000 A 
BRANCH   7   9
ATOM      9  C   UNL     1      44.889   7.885  11.655  0.00  0.00    +0.000 C 
ATOM     10  N   UNL     1      43.744   8.257  11.007  0.00  0.00    +0.000 N 
ATOM     11  O   UNL     1      45.738   8.709  11.977  0.00  0.00    +0.000 OA
ATOM     12  H   UNL     1      43.055   7.557  10.754  0.00  0.00    +0.000 HD
ATOM     13  H   UNL     1      43.593   9.231  10.786  0.00  0.00    +0.000 HD
ENDBRANCH   7   9
BRANCH   3  15
ATOM     14  C   UNL     1      44.529   3.905   8.869  0.00  0.00    +0.000 C 
ATOM     15  O   UNL     1      44.681   3.317  10.158  0.00  0.00    +0.000 OA
ENDBRANCH   3  15
ENDBRANCH   1   5
BRANCH   1  16
ATOM     16  C   UNL     1      47.220   3.592  14.874  0.00  0.00    +0.000 C 
BRANCH  16  17
ATOM     17  C   UNL     1      47.848   3.746  16.241  0.00  0.00    +0.000 A 
ATOM     18  C   UNL     1      47.168   4.424  17.248  0.00  0.00    +0.000 A 
ATOM     19  C   UNL     1      47.803   4.613  18.467  0.00  0.00    +0.000 A 
ATOM     20  C   UNL     1      49.083   4.101  18.653  0.00  0.00    +0.000 A 
ATOM     21  C   UNL     1      49.700   3.397  17.618  0.00  0.00    +0.000 A 
ATOM     22  N   UNL     1      49.093   3.230  16.416  0.00  0.00    +0.000 NA
BRANCH  21  23
ATOM     23  C   UNL     1      51.035   2.782  17.756  0.00  0.00    +0.000 A 
ATOM     24  C   UNL     1      51.272   1.457  17.368  0.00  0.00    +0.000 A 
ATOM     25  C   UNL     1      52.543   0.927  17.512  0.00  0.00    +0.000 A 
ATOM     26  N   UNL     1      53.592   1.612  18.015  0.00  0.00    +0.000 NA
ATOM     27  C   UNL     1      53.365   2.883  18.408  0.00  0.00    +0.000 A 
ATOM     28  C   UNL     1      54.515   3.648  18.991  0.00  0.00    +0.000 C 
ATOM     29  C   UNL     1      52.117   3.490  18.297  0.00  0.00    +0.000 A 
ENDBRANCH  21  23
ENDBRANCH  16  17
ENDBRANCH   1  16
TORSDOF 6
ENDMDL
