MODEL 1
REMARK VINA RESULT:    -7.122      0.000      0.000
REMARK INTER + INTRA:         -10.036
REMARK INTER:                  -9.204
REMARK INTRA:                  -0.832
REMARK UNBOUND:                -0.832
REMARK  Name = 
REMARK  6 active torsions:
REMARK  status: ('A' for Active; 'I' for Inactive)
REMARK    1  A    between atoms: C_1  and  C_2
REMARK    2  A    between atoms: C_2  and  C_3
REMARK    3  A    between atoms: C_2  and  C_14
REMARK    4  A    between atoms: C_3  and  N_4
REMARK    5  A    between atoms: C_9  and  C_10
REMARK    6  A    between atoms: C_18  and  C_19
REMARK                            x       y       z     vdW  Elec       q    Type
REMARK                         _______ _______ _______ _____ _____    ______ ____
ROOT
ATOM      1  C   UNL     1      47.421   5.715  13.174  0.00  0.00    +0.000 C 
ENDROOT
BRANCH   1   2
ATOM      2  N   UNL     1      46.046   5.748  13.662  0.00  0.00    +0.000 N 
ATOM      3  C   UNL     1      45.113   5.430  12.651  0.00  0.00    +0.000 A 
ATOM      4  C   UNL     1      43.740   5.452  12.933  0.00  0.00    +0.000 A 
ATOM      5  N   UNL     1      42.774   5.151  12.025  0.00  0.00    +0.000 NA
ATOM      6  C   UNL     1      43.229   4.808  10.796  0.00  0.00    +0.000 A 
ATOM      7  C   UNL     1      44.581   4.771  10.506  0.00  0.00    +0.000 A 
ATOM      8  N   UNL     1      45.544   5.074  11.421  0.00  0.00    +0.000 NA
ATOM      9  H   UNL     1      45.799   6.657  14.045  0.00  0.00    +0.000 HD
BRANCH   7  10
ATOM     10  C   UNL     1      45.051   4.407   9.143  0.00  0.00    +0.000 C 
ATOM     11  N   UNL     1      44.419   3.339   8.564  0.00  0.00    +0.000 N 
ATOM     12  O   UNL     1      45.948   5.015   8.575  0.00  0.00    +0.000 OA
ATOM     13  H   UNL     1      43.689   2.848   9.070  0.00  0.00    +0.000 HD
ATOM     14  H   UNL     1      44.701   3.028   7.645  0.00  0.00    +0.000 HD
ENDBRANCH   7  10
ENDBRANCH   1   2
BRANCH   1  16
ATOM     15  C   UNL     1      49.362   7.430  13.180  0.00  0.00    +0.000 C 
ATOM     16  C   UNL     1      48.272   6.703  13.913  0.00  0.00    +0.000 C 
BRANCH  16  17
ATOM     17  C   UNL     1      48.575   6.331  15.301  0.00  0.00    +0.000 A 
ATOM     18  C   UNL     1      49.068   7.238  16.228  0.00  0.00    +0.000 A 
ATOM     19  C   UNL     1      49.269   6.806  17.537  0.00  0.00    +0.000 A 
ATOM     20  C   UNL     1      48.967   5.491  17.881  0.00  0.00    +0.000 A 
ATOM     21  C   UNL     1      48.467   4.633  16.902  0.00  0.00    +0.000 A 
ATOM     22  N   UNL     1      48.272   5.055  15.622  0.00  0.00    +0.000 NA
BRANCH  21  23
ATOM     23  C   UNL     1      48.113   3.194  17.238  0.00  0.00    +0.000 C 
ATOM     24  F   UNL     1      48.645   2.766  18.422  0.00  0.00    +0.000 F 
ATOM     25  F   UNL     1      46.769   2.989  17.353  0.00  0.00    +0.000 F 
ATOM     26  F   UNL     1      48.551   2.304  16.301  0.00  0.00    +0.000 F 
ENDBRANCH  21  23
ENDBRANCH  16  17
ENDBRANCH   1  16
TORSDOF 5
ENDMDL
MODEL 2
REMARK VINA RESULT:    -6.955      3.906      7.116
REMARK INTER + INTRA:          -9.819
REMARK INTER:                  -9.147
REMARK INTRA:                  -0.673
REMARK UNBOUND:                -0.832
REMARK  Name = 
REMARK  6 active torsions:
REMARK  status: ('A' for Active; 'I' for Inactive)
REMARK    1  A    between atoms: C_1  and  C_2
REMARK    2  A    between atoms: C_2  and  C_3
REMARK    3  A    between atoms: C_2  and  C_14
REMARK    4  A    between atoms: C_3  and  N_4
REMARK    5  A    between atoms: C_9  and  C_10
REMARK    6  A    between atoms: C_18  and  C_19
REMARK                            x       y       z     vdW  Elec       q    Type
REMARK                         _______ _______ _______ _____ _____    ______ ____
ROOT
ATOM      1  C   UNL     1      47.610   6.135  12.811  0.00  0.00    +0.000 C 
ENDROOT
BRANCH   1   2
ATOM      2  N   UNL     1      48.137   7.058  13.812  0.00  0.00    +0.000 N 
ATOM      3  C   UNL     1      48.314   6.439  15.068  0.00  0.00    +0.000 A 
ATOM      4  C   UNL     1      48.776   7.187  16.160  0.00  0.00    +0.000 A 
ATOM      5  N   UNL     1      48.983   6.671  17.400  0.00  0.00    +0.000 NA
ATOM      6  C   UNL     1      48.719   5.348  17.523  0.00  0.00    +0.000 A 
ATOM      7  C   UNL     1      48.274   4.594  16.452  0.00  0.00    +0.000 A 
ATOM      8  N   UNL     1      48.068   5.118  15.211  0.00  0.00    +0.000 NA
ATOM      9  H   UNL     1      47.533   7.866  13.940  0.00  0.00    +0.000 HD
BRANCH   7  10
ATOM     10  C   UNL     1      47.977   3.147  16.620  0.00  0.00    +0.000 C 
ATOM     11  N   UNL     1      47.057   2.839  17.586  0.00  0.00    +0.000 N 
ATOM     12  O   UNL     1      48.523   2.283  15.946  0.00  0.00    +0.000 OA
ATOM     13  H   UNL     1      46.635   3.579  18.137  0.00  0.00    +0.000 HD
ATOM     14  H   UNL     1      46.822   1.872  17.764  0.00  0.00    +0.000 HD
ENDBRANCH   7  10
ENDBRANCH   1   2
BRANCH   1  16
ATOM     15  C   UNL     1      45.731   7.917  12.783  0.00  0.00    +0.000 C 
ATOM     16  C   UNL     1      46.297   6.621  12.278  0.00  0.00    +0.000 C 
BRANCH  16  17
ATOM     17  C   UNL     1      45.318   5.562  12.004  0.00  0.00    +0.000 A 
ATOM     18  C   UNL     1      44.314   5.221  12.899  0.00  0.00    +0.000 A 
ATOM     19  C   UNL     1      43.395   4.243  12.526  0.00  0.00    +0.000 A 
ATOM     20  C   UNL     1      43.501   3.642  11.273  0.00  0.00    +0.000 A 
ATOM     21  C   UNL     1      44.529   4.038  10.419  0.00  0.00    +0.000 A 
ATOM     22  N   UNL     1      45.428   4.992  10.785  0.00  0.00    +0.000 NA
BRANCH  21  23
ATOM     23  C   UNL     1      44.674   3.416   9.039  0.00  0.00    +0.000 C 
ATOM     24  F   UNL     1      45.973   3.213   8.668  0.00  0.00    +0.000 F 
ATOM     25  F   UNL     1      44.075   2.193   8.941  0.00  0.00    +0.000 F 
ATOM     26  F   UNL     1      44.129   4.181   8.049  0.00  0.00    +0.000 F 
ENDBRANCH  21  23
ENDBRANCH  16  17
ENDBRANCH   1  16
TORSDOF 5
ENDMDL
MODEL 3
REMARK VINA RESULT:    -6.718      3.203      6.658
REMARK INTER + INTRA:          -9.513
REMARK INTER:                  -8.787
REMARK INTRA:                  -0.726
REMARK UNBOUND:                -0.832
REMARK  Name = 
REMARK  6 active torsions:
REMARK  status: ('A' for Active; 'I' for Inactive)
REMARK    1  A    between atoms: C_1  and  C_2
REMARK    2  A    between atoms: C_2  and  C_3
REMARK    3  A    between atoms: C_2  and  C_14
REMARK    4  A    between atoms: C_3  and  N_4
REMARK    5  A    between atoms: C_9  and  C_10
REMARK    6  A    between atoms: C_18  and  C_19
REMARK                            x       y       z     vdW  Elec       q    Type
REMARK                         _______ _______ _______ _____ _____    ______ ____
ROOT
ATOM      1  C   UNL     1      48.403   6.342  14.666  0.00  0.00    +0.000 C 
ENDROOT
BRANCH   1   2
ATOM      2  N   UNL     1      48.138   6.709  16.054  0.00  0.00    +0.000 N 
ATOM      3  C   UNL     1      48.433   5.659  16.950  0.00  0.00    +0.000 A 
ATOM      4  C   UNL     1      48.202   5.823  18.323  0.00  0.00    +0.000 A 
ATOM      5  N   UNL     1      48.464   4.870  19.256  0.00  0.00    +0.000 NA
ATOM      6  C   UNL     1      48.990   3.720  18.769  0.00  0.00    +0.000 A 
ATOM      7  C   UNL     1      49.234   3.547  17.418  0.00  0.00    +0.000 A 
ATOM      8  N   UNL     1      48.968   4.507  16.488  0.00  0.00    +0.000 NA
ATOM      9  H   UNL     1      47.170   6.984  16.198  0.00  0.00    +0.000 HD
BRANCH   7  10
ATOM     10  C   UNL     1      49.796   2.268  16.911  0.00  0.00    +0.000 C 
ATOM     11  N   UNL     1      50.807   1.727  17.658  0.00  0.00    +0.000 N 
ATOM     12  O   UNL     1      49.389   1.733  15.888  0.00  0.00    +0.000 OA
ATOM     13  H   UNL     1      51.131   2.205  18.492  0.00  0.00    +0.000 HD
ATOM     14  H   UNL     1      51.246   0.867  17.360  0.00  0.00    +0.000 HD
ENDBRANCH   7  10
ENDBRANCH   1   2
BRANCH   1  16
ATOM     15  C   UNL     1      47.849   8.815  14.132  0.00  0.00    +0.000 C 
ATOM     16  C   UNL     1      47.844   7.369  13.729  0.00  0.00    +0.000 C 
BRANCH  16  17
ATOM     17  C   UNL     1      46.671   6.924  12.964  0.00  0.00    +0.000 A 
ATOM     18  C   UNL     1      45.879   7.798  12.234  0.00  0.00    +0.000 A 
ATOM     19  C   UNL     1      44.822   7.275  11.492  0.00  0.00    +0.000 A 
ATOM     20  C   UNL     1      44.595   5.900  11.495  0.00  0.00    +0.000 A 
ATOM     21  C   UNL     1      45.435   5.077  12.244  0.00  0.00    +0.000 A 
ATOM     22  N   UNL     1      46.466   5.590  12.971  0.00  0.00    +0.000 NA
BRANCH  21  23
ATOM     23  C   UNL     1      45.228   3.572  12.265  0.00  0.00    +0.000 C 
ATOM     24  F   UNL     1      44.039   3.195  12.824  0.00  0.00    +0.000 F 
ATOM     25  F   UNL     1      45.232   3.016  11.019  0.00  0.00    +0.000 F 
ATOM     26  F   UNL     1      46.188   2.911  12.975  0.00  0.00    +0.000 F 
ENDBRANCH  21  23
ENDBRANCH  16  17
ENDBRANCH   1  16
TORSDOF 5
ENDMDL
MODEL 4
REMARK VINA RESULT:    -6.461      4.097      7.352
REMARK INTER + INTRA:          -9.181
REMARK INTER:                  -8.337
REMARK INTRA:                  -0.844
REMARK UNBOUND:                -0.832
REMARK  Name = 
REMARK  6 active torsions:
REMARK  status: ('A' for Active; 'I' for Inactive)
REMARK    1  A    between atoms: C_1  and  C_2
REMARK    2  A    between atoms: C_2  and  C_3
REMARK    3  A    between atoms: C_2  and  C_14
REMARK    4  A    between atoms: C_3  and  N_4
REMARK    5  A    between atoms: C_9  and  C_10
REMARK    6  A    between atoms: C_18  and  C_19
REMARK                            x       y       z     vdW  Elec       q    Type
REMARK                         _______ _______ _______ _____ _____    ______ ____
ROOT
ATOM      1  C   UNL     1      47.346   6.562  12.724  0.00  0.00    +0.000 C 
ENDROOT
BRANCH   1   2
ATOM      2  N   UNL     1      47.021   5.184  13.078  0.00  0.00    +0.000 N 
ATOM      3  C   UNL     1      47.442   4.855  14.385  0.00  0.00    +0.000 A 
ATOM      4  C   UNL     1      47.246   3.558  14.879  0.00  0.00    +0.000 A 
ATOM      5  N   UNL     1      47.611   3.158  16.125  0.00  0.00    +0.000 NA
ATOM      6  C   UNL     1      48.183   4.117  16.891  0.00  0.00    +0.000 A 
ATOM      7  C   UNL     1      48.373   5.405  16.422  0.00  0.00    +0.000 A 
ATOM      8  N   UNL     1      48.005   5.799  15.171  0.00  0.00    +0.000 NA
ATOM      9  H   UNL     1      47.438   4.516  12.434  0.00  0.00    +0.000 HD
BRANCH   7  10
ATOM     10  C   UNL     1      49.019   6.433  17.280  0.00  0.00    +0.000 C 
ATOM     11  N   UNL     1      48.165   7.252  17.968  0.00  0.00    +0.000 N 
ATOM     12  O   UNL     1      50.235   6.547  17.363  0.00  0.00    +0.000 OA
ATOM     13  H   UNL     1      47.163   7.140  17.864  0.00  0.00    +0.000 HD
ATOM     14  H   UNL     1      48.539   7.984  18.556  0.00  0.00    +0.000 HD
ENDBRANCH   7  10
ENDBRANCH   1   2
BRANCH   1  16
ATOM     15  C   UNL     1      45.625   8.483  12.476  0.00  0.00    +0.000 C 
ATOM     16  C   UNL     1      46.217   7.198  11.971  0.00  0.00    +0.000 C 
BRANCH  16  17
ATOM     17  C   UNL     1      45.266   6.249  11.378  0.00  0.00    +0.000 A 
ATOM     18  C   UNL     1      43.956   6.129  11.818  0.00  0.00    +0.000 A 
ATOM     19  C   UNL     1      43.111   5.242  11.153  0.00  0.00    +0.000 A 
ATOM     20  C   UNL     1      43.595   4.511  10.070  0.00  0.00    +0.000 A 
ATOM     21  C   UNL     1      44.921   4.686   9.676  0.00  0.00    +0.000 A 
ATOM     22  N   UNL     1      45.747   5.551  10.327  0.00  0.00    +0.000 NA
BRANCH  21  23
ATOM     23  C   UNL     1      45.486   3.917   8.493  0.00  0.00    +0.000 C 
ATOM     24  F   UNL     1      45.909   2.658   8.815  0.00  0.00    +0.000 F 
ATOM     25  F   UNL     1      44.578   3.746   7.487  0.00  0.00    +0.000 F 
ATOM     26  F   UNL     1      46.565   4.528   7.925  0.00  0.00    +0.000 F 
ENDBRANCH  21  23
ENDBRANCH  16  17
ENDBRANCH   1  16
TORSDOF 5
ENDMDL
MODEL 5
REMARK VINA RESULT:    -6.214      3.036      3.986
REMARK INTER + INTRA:          -8.862
REMARK INTER:                  -8.060
REMARK INTRA:                  -0.802
REMARK UNBOUND:                -0.832
REMARK  Name = 
REMARK  6 active torsions:
REMARK  status: ('A' for Active; 'I' for Inactive)
REMARK    1  A    between atoms: C_1  and  C_2
REMARK    2  A    between atoms: C_2  and  C_3
REMARK    3  A    between atoms: C_2  and  C_14
REMARK    4  A    between atoms: C_3  and  N_4
REMARK    5  A    between atoms: C_9  and  C_10
REMARK    6  A    between atoms: C_18  and  C_19
REMARK                            x       y       z     vdW  Elec       q    Type
REMARK                         _______ _______ _______ _____ _____    ______ ____
ROOT
ATOM      1  C   UNL     1      47.114   4.089  15.806  0.00  0.00    +0.000 C 
ENDROOT
BRANCH   1   2
ATOM      2  N   UNL     1      47.351   5.266  14.975  0.00  0.00    +0.000 N 
ATOM      3  C   UNL     1      46.646   5.208  13.754  0.00  0.00    +0.000 A 
ATOM      4  C   UNL     1      46.786   6.239  12.814  0.00  0.00    +0.000 A 
ATOM      5  N   UNL     1      46.139   6.269  11.619  0.00  0.00    +0.000 NA
ATOM      6  C   UNL     1      45.315   5.219  11.386  0.00  0.00    +0.000 A 
ATOM      7  C   UNL     1      45.157   4.200  12.309  0.00  0.00    +0.000 A 
ATOM      8  N   UNL     1      45.810   4.176  13.505  0.00  0.00    +0.000 NA
ATOM      9  H   UNL     1      48.338   5.391  14.764  0.00  0.00    +0.000 HD
BRANCH   7  10
ATOM     10  C   UNL     1      44.259   3.052  12.018  0.00  0.00    +0.000 C 
ATOM     11  N   UNL     1      44.342   2.540  10.751  0.00  0.00    +0.000 N 
ATOM     12  O   UNL     1      43.489   2.595  12.853  0.00  0.00    +0.000 OA
ATOM     13  H   UNL     1      44.980   2.954  10.080  0.00  0.00    +0.000 HD
ATOM     14  H   UNL     1      43.746   1.770  10.482  0.00  0.00    +0.000 HD
ENDBRANCH   7  10
ENDBRANCH   1   2
BRANCH   1  16
ATOM     15  C   UNL     1      48.842   2.403  16.745  0.00  0.00    +0.000 C 
ATOM     16  C   UNL     1      48.302   3.802  16.673  0.00  0.00    +0.000 C 
BRANCH  16  17
ATOM     17  C   UNL     1      48.343   4.566  17.927  0.00  0.00    +0.000 A 
ATOM     18  C   UNL     1      48.605   3.975  19.155  0.00  0.00    +0.000 A 
ATOM     19  C   UNL     1      48.681   4.791  20.281  0.00  0.00    +0.000 A 
ATOM     20  C   UNL     1      48.502   6.166  20.148  0.00  0.00    +0.000 A 
ATOM     21  C   UNL     1      48.250   6.696  18.883  0.00  0.00    +0.000 A 
ATOM     22  N   UNL     1      48.173   5.897  17.782  0.00  0.00    +0.000 NA
BRANCH  21  23
ATOM     23  C   UNL     1      48.060   8.192  18.692  0.00  0.00    +0.000 C 
ATOM     24  F   UNL     1      49.026   8.944  19.299  0.00  0.00    +0.000 F 
ATOM     25  F   UNL     1      48.082   8.567  17.380  0.00  0.00    +0.000 F 
ATOM     26  F   UNL     1      46.876   8.648  19.194  0.00  0.00    +0.000 F 
ENDBRANCH  21  23
ENDBRANCH  16  17
ENDBRANCH   1  16
TORSDOF 5
ENDMDL
MODEL 6
REMARK VINA RESULT:    -6.168      2.186      2.957
REMARK INTER + INTRA:          -8.803
REMARK INTER:                  -7.815
REMARK INTRA:                  -0.988
REMARK UNBOUND:                -0.832
REMARK  Name = 
REMARK  6 active torsions:
REMARK  status: ('A' for Active; 'I' for Inactive)
REMARK    1  A    between atoms: C_1  and  C_2
REMARK    2  A    between atoms: C_2  and  C_3
REMARK    3  A    between atoms: C_2  and  C_14
REMARK    4  A    between atoms: C_3  and  N_4
REMARK    5  A    between atoms: C_9  and  C_10
REMARK    6  A    between atoms: C_18  and  C_19
REMARK                            x       y       z     vdW  Elec       q    Type
REMARK                         _______ _______ _______ _____ _____    ______ ____
ROOT
ATOM      1  C   UNL     1      49.260   7.281  14.632  0.00  0.00    +0.000 C 
ENDROOT
BRANCH   1   2
ATOM      2  N   UNL     1      48.148   8.022  14.044  0.00  0.00    +0.000 N 
ATOM      3  C   UNL     1      47.147   7.167  13.536  0.00  0.00    +0.000 A 
ATOM      4  C   UNL     1      46.020   7.706  12.899  0.00  0.00    +0.000 A 
ATOM      5  N   UNL     1      45.006   6.959  12.390  0.00  0.00    +0.000 NA
ATOM      6  C   UNL     1      45.144   5.621  12.547  0.00  0.00    +0.000 A 
ATOM      7  C   UNL     1      46.244   5.073  13.183  0.00  0.00    +0.000 A 
ATOM      8  N   UNL     1      47.258   5.829  13.691  0.00  0.00    +0.000 NA
ATOM      9  H   UNL     1      48.453   8.633  13.291  0.00  0.00    +0.000 HD
BRANCH   7  10
ATOM     10  C   UNL     1      46.377   3.599  13.326  0.00  0.00    +0.000 C 
ATOM     11  N   UNL     1      45.481   2.852  12.611  0.00  0.00    +0.000 N 
ATOM     12  O   UNL     1      47.225   3.085  14.042  0.00  0.00    +0.000 OA
ATOM     13  H   UNL     1      44.780   3.312  12.039  0.00  0.00    +0.000 HD
ATOM     14  H   UNL     1      45.505   1.844  12.676  0.00  0.00    +0.000 HD
ENDBRANCH   7  10
ENDBRANCH   1   2
BRANCH   1  16
ATOM     15  C   UNL     1      50.959   8.240  16.337  0.00  0.00    +0.000 C 
ATOM     16  C   UNL     1      49.566   7.785  16.010  0.00  0.00    +0.000 C 
BRANCH  16  17
ATOM     17  C   UNL     1      48.854   7.087  17.088  0.00  0.00    +0.000 A 
ATOM     18  C   UNL     1      48.259   7.756  18.148  0.00  0.00    +0.000 A 
ATOM     19  C   UNL     1      47.555   7.011  19.092  0.00  0.00    +0.000 A 
ATOM     20  C   UNL     1      47.460   5.629  18.946  0.00  0.00    +0.000 A 
ATOM     21  C   UNL     1      48.076   5.021  17.853  0.00  0.00    +0.000 A 
ATOM     22  N   UNL     1      48.766   5.749  16.932  0.00  0.00    +0.000 NA
BRANCH  21  23
ATOM     23  C   UNL     1      47.987   3.517  17.650  0.00  0.00    +0.000 C 
ATOM     24  F   UNL     1      46.745   3.092  17.270  0.00  0.00    +0.000 F 
ATOM     25  F   UNL     1      48.836   3.060  16.684  0.00  0.00    +0.000 F 
ATOM     26  F   UNL     1      48.284   2.808  18.778  0.00  0.00    +0.000 F 
ENDBRANCH  21  23
ENDBRANCH  16  17
ENDBRANCH   1  16
TORSDOF 5
ENDMDL
MODEL 7
REMARK VINA RESULT:    -6.152      2.897      3.781
REMARK INTER + INTRA:          -8.783
REMARK INTER:                  -7.922
REMARK INTRA:                  -0.860
REMARK UNBOUND:                -0.832
REMARK  Name = 
REMARK  6 active torsions:
REMARK  status: ('A' for Active; 'I' for Inactive)
REMARK    1  A    between atoms: C_1  and  C_2
REMARK    2  A    between atoms: C_2  and  C_3
REMARK    3  A    between atoms: C_2  and  C_14
REMARK    4  A    between atoms: C_3  and  N_4
REMARK    5  A    between atoms: C_9  and  C_10
REMARK    6  A    between atoms: C_18  and  C_19
REMARK                            x       y       z     vdW  Elec       q    Type
REMARK                         _______ _______ _______ _____ _____    ______ ____
ROOT
ATOM      1  C   UNL     1      46.950   4.048  15.448  0.00  0.00    +0.000 C 
ENDROOT
BRANCH   1   2
ATOM      2  N   UNL     1      47.269   5.231  14.654  0.00  0.00    +0.000 N 
ATOM      3  C   UNL     1      46.513   5.294  13.464  0.00  0.00    +0.000 A 
ATOM      4  C   UNL     1      46.717   6.345  12.558  0.00  0.00    +0.000 A 
ATOM      5  N   UNL     1      46.029   6.489  11.395  0.00  0.00    +0.000 NA
ATOM      6  C   UNL     1      45.097   5.535  11.158  0.00  0.00    +0.000 A 
ATOM      7  C   UNL     1      44.876   4.498  12.047  0.00  0.00    +0.000 A 
ATOM      8  N   UNL     1      45.570   4.360  13.211  0.00  0.00    +0.000 NA
ATOM      9  H   UNL     1      48.254   5.268  14.405  0.00  0.00    +0.000 HD
BRANCH   7  10
ATOM     10  C   UNL     1      43.857   3.456  11.752  0.00  0.00    +0.000 C 
ATOM     11  N   UNL     1      43.879   2.358  12.570  0.00  0.00    +0.000 N 
ATOM     12  O   UNL     1      43.054   3.565  10.836  0.00  0.00    +0.000 OA
ATOM     13  H   UNL     1      44.569   2.292  13.310  0.00  0.00    +0.000 HD
ATOM     14  H   UNL     1      43.225   1.604  12.413  0.00  0.00    +0.000 HD
ENDBRANCH   7  10
ENDBRANCH   1   2
BRANCH   1  16
ATOM     15  C   UNL     1      47.627   2.878  17.658  0.00  0.00    +0.000 C 
ATOM     16  C   UNL     1      47.896   3.912  16.602  0.00  0.00    +0.000 C 
BRANCH  16  17
ATOM     17  C   UNL     1      48.463   5.179  17.081  0.00  0.00    +0.000 A 
ATOM     18  C   UNL     1      47.959   5.856  18.183  0.00  0.00    +0.000 A 
ATOM     19  C   UNL     1      48.601   7.021  18.598  0.00  0.00    +0.000 A 
ATOM     20  C   UNL     1      49.726   7.469  17.909  0.00  0.00    +0.000 A 
ATOM     21  C   UNL     1      50.184   6.736  16.815  0.00  0.00    +0.000 A 
ATOM     22  N   UNL     1      49.555   5.599  16.408  0.00  0.00    +0.000 NA
BRANCH  21  23
ATOM     23  C   UNL     1      51.415   7.184  16.042  0.00  0.00    +0.000 C 
ATOM     24  F   UNL     1      51.959   8.345  16.514  0.00  0.00    +0.000 F 
ATOM     25  F   UNL     1      52.427   6.270  16.079  0.00  0.00    +0.000 F 
ATOM     26  F   UNL     1      51.162   7.412  14.721  0.00  0.00    +0.000 F 
ENDBRANCH  21  23
ENDBRANCH  16  17
ENDBRANCH   1  16
TORSDOF 5
ENDMDL
MODEL 8
REMARK VINA RESULT:    -6.136      1.608      2.359
REMARK INTER + INTRA:          -8.761
REMARK INTER:                  -8.074
REMARK INTRA:                  -0.687
REMARK UNBOUND:                -0.832
REMARK  Name = 
REMARK  6 active torsions:
REMARK  status: ('A' for Active; 'I' for Inactive)
REMARK    1  A    between atoms: C_1  and  C_2
REMARK    2  A    between atoms: C_2  and  C_3
REMARK    3  A    between atoms: C_2  and  C_14
REMARK    4  A    between atoms: C_3  and  N_4
REMARK    5  A    between atoms: C_9  and  C_10
REMARK    6  A    between atoms: C_18  and  C_19
REMARK                            x       y       z     vdW  Elec       q    Type
REMARK                         _______ _______ _______ _____ _____    ______ ____
ROOT
ATOM      1  C   UNL     1      46.982   6.494  13.243  0.00  0.00    +0.000 C 
ENDROOT
BRANCH   1   2
ATOM      2  N   UNL     1      46.981   6.641  11.791  0.00  0.00    +0.000 N 
ATOM      3  C   UNL     1      46.065   5.767  11.167  0.00  0.00    +0.000 A 
ATOM      4  C   UNL     1      45.959   5.744   9.769  0.00  0.00    +0.000 A 
ATOM      5  N   UNL     1      45.099   4.943   9.087  0.00  0.00    +0.000 NA
ATOM      6  C   UNL     1      44.318   4.150   9.859  0.00  0.00    +0.000 A 
ATOM      7  C   UNL     1      44.403   4.169  11.240  0.00  0.00    +0.000 A 
ATOM      8  N   UNL     1      45.268   4.975  11.917  0.00  0.00    +0.000 NA
ATOM      9  H   UNL     1      47.901   6.474  11.390  0.00  0.00    +0.000 HD
BRANCH   7  10
ATOM     10  C   UNL     1      43.545   3.276  12.061  0.00  0.00    +0.000 C 
ATOM     11  N   UNL     1      43.373   3.654  13.365  0.00  0.00    +0.000 N 
ATOM     12  O   UNL     1      43.029   2.263  11.606  0.00  0.00    +0.000 OA
ATOM     13  H   UNL     1      43.828   4.491  13.713  0.00  0.00    +0.000 HD
ATOM     14  H   UNL     1      42.815   3.081  13.983  0.00  0.00    +0.000 HD
ENDBRANCH   7  10
ENDBRANCH   1   2
BRANCH   1  16
ATOM     15  C   UNL     1      48.960   8.145  12.978  0.00  0.00    +0.000 C 
ATOM     16  C   UNL     1      48.086   7.300  13.859  0.00  0.00    +0.000 C 
BRANCH  16  17
ATOM     17  C   UNL     1      48.760   6.650  14.990  0.00  0.00    +0.000 A 
ATOM     18  C   UNL     1      49.901   7.172  15.583  0.00  0.00    +0.000 A 
ATOM     19  C   UNL     1      50.435   6.515  16.689  0.00  0.00    +0.000 A 
ATOM     20  C   UNL     1      49.813   5.366  17.173  0.00  0.00    +0.000 A 
ATOM     21  C   UNL     1      48.665   4.899  16.534  0.00  0.00    +0.000 A 
ATOM     22  N   UNL     1      48.145   5.540  15.452  0.00  0.00    +0.000 NA
BRANCH  21  23
ATOM     23  C   UNL     1      47.950   3.655  17.037  0.00  0.00    +0.000 C 
ATOM     24  F   UNL     1      46.622   3.626  16.716  0.00  0.00    +0.000 F 
ATOM     25  F   UNL     1      48.469   2.501  16.527  0.00  0.00    +0.000 F 
ATOM     26  F   UNL     1      47.998   3.523  18.394  0.00  0.00    +0.000 F 
ENDBRANCH  21  23
ENDBRANCH  16  17
ENDBRANCH   1  16
TORSDOF 5
ENDMDL
MODEL 9
REMARK VINA RESULT:    -5.683      1.915      2.368
REMARK INTER + INTRA:          -8.176
REMARK INTER:                  -7.794
REMARK INTRA:                  -0.382
REMARK UNBOUND:                -0.832
REMARK  Name = 
REMARK  6 active torsions:
REMARK  status: ('A' for Active; 'I' for Inactive)
REMARK    1  A    between atoms: C_1  and  C_2
REMARK    2  A    between atoms: C_2  and  C_3
REMARK    3  A    between atoms: C_2  and  C_14
REMARK    4  A    between atoms: C_3  and  N_4
REMARK    5  A    between atoms: C_9  and  C_10
REMARK    6  A    between atoms: C_18  and  C_19
REMARK                            x       y       z     vdW  Elec       q    Type
REMARK                         _______ _______ _______ _____ _____    ______ ____
ROOT
ATOM      1  C   UNL     1      47.480   6.830  13.748  0.00  0.00    +0.000 C 
ENDROOT
BRANCH   1   2
ATOM      2  N   UNL     1      47.519   5.374  13.644  0.00  0.00    +0.000 N 
ATOM      3  C   UNL     1      46.326   4.844  13.107  0.00  0.00    +0.000 A 
ATOM      4  C   UNL     1      46.173   3.458  12.971  0.00  0.00    +0.000 A 
ATOM      5  N   UNL     1      45.065   2.863  12.456  0.00  0.00    +0.000 NA
ATOM      6  C   UNL     1      44.090   3.715  12.058  0.00  0.00    +0.000 A 
ATOM      7  C   UNL     1      44.230   5.087  12.174  0.00  0.00    +0.000 A 
ATOM      8  N   UNL     1      45.345   5.676  12.692  0.00  0.00    +0.000 NA
ATOM      9  H   UNL     1      47.682   4.932  14.546  0.00  0.00    +0.000 HD
BRANCH   7  10
ATOM     10  C   UNL     1      43.137   5.997  11.743  0.00  0.00    +0.000 C 
ATOM     11  N   UNL     1      43.535   7.204  11.236  0.00  0.00    +0.000 N 
ATOM     12  O   UNL     1      41.955   5.692  11.840  0.00  0.00    +0.000 OA
ATOM     13  H   UNL     1      44.523   7.430  11.185  0.00  0.00    +0.000 HD
ATOM     14  H   UNL     1      42.842   7.877  10.941  0.00  0.00    +0.000 HD
ENDBRANCH   7  10
ENDBRANCH   1   2
BRANCH   1  16
ATOM     15  C   UNL     1      49.779   7.893  13.210  0.00  0.00    +0.000 C 
ATOM     16  C   UNL     1      48.799   7.365  14.216  0.00  0.00    +0.000 C 
BRANCH  16  17
ATOM     17  C   UNL     1      49.381   6.645  15.356  0.00  0.00    +0.000 A 
ATOM     18  C   UNL     1      50.650   6.918  15.844  0.00  0.00    +0.000 A 
ATOM     19  C   UNL     1      51.094   6.223  16.967  0.00  0.00    +0.000 A 
ATOM     20  C   UNL     1      50.257   5.287  17.571  0.00  0.00    +0.000 A 
ATOM     21  C   UNL     1      48.989   5.067  17.034  0.00  0.00    +0.000 A 
ATOM     22  N   UNL     1      48.558   5.745  15.935  0.00  0.00    +0.000 NA
BRANCH  21  23
ATOM     23  C   UNL     1      48.041   4.063  17.669  0.00  0.00    +0.000 C 
ATOM     24  F   UNL     1      46.732   4.453  17.631  0.00  0.00    +0.000 F 
ATOM     25  F   UNL     1      48.071   2.843  17.057  0.00  0.00    +0.000 F 
ATOM     26  F   UNL     1      48.313   3.830  18.985  0.00  0.00    +0.000 F 
ENDBRANCH  21  23
ENDBRANCH  16  17
ENDBRANCH   1  16
TORSDOF 5
ENDMDL
