MODEL 1
REMARK VINA RESULT:    -9.216      0.000      0.000
REMARK INTER + INTRA:         -12.536
REMARK INTER:                 -12.180
REMARK INTRA:                  -0.356
REMARK UNBOUND:                -0.356
REMARK  Name = 
REMARK  7 active torsions:
REMARK  status: ('A' for Active; 'I' for Inactive)
REMARK    1  A    between atoms: C_1  and  C_2
REMARK    2  A    between atoms: C_2  and  O_3
REMARK    3  A    between atoms: C_5  and  N_6
REMARK    4  A    between atoms: C_9  and  C_10
REMARK    5  A    between atoms: C_10  and  C_13
REMARK    6  A    between atoms: C_13  and  N_14
REMARK    7  A    between atoms: C_17  and  C_18
REMARK                            x       y       z     vdW  Elec       q    Type
REMARK                         _______ _______ _______ _____ _____    ______ ____
ROOT
ATOM      1  C   UNL     1      44.070   6.000  11.798  0.00  0.00    +0.000 C 
ATOM      2  F   UNL     1      43.040   5.832  12.692  0.00  0.00    +0.000 F 
ATOM      3  F   UNL     1      43.972   7.306  11.413  0.00  0.00    +0.000 F 
ENDROOT
BRANCH   1   7
ATOM      4  N   UNL     1      46.850   3.781  15.232  0.00  0.00    +0.000 N 
ATOM      5  C   UNL     1      46.797   4.675  14.143  0.00  0.00    +0.000 A 
ATOM      6  C   UNL     1      45.564   4.825  13.519  0.00  0.00    +0.000 A 
ATOM      7  C   UNL     1      45.404   5.738  12.473  0.00  0.00    +0.000 A 
ATOM      8  C   UNL     1      46.537   6.446  12.058  0.00  0.00    +0.000 A 
ATOM      9  C   UNL     1      47.734   6.229  12.723  0.00  0.00    +0.000 A 
ATOM     10  N   UNL     1      47.878   5.377  13.764  0.00  0.00    +0.000 NA
ATOM     11  H   UNL     1      46.678   2.840  14.884  0.00  0.00    +0.000 HD
BRANCH   4  15
ATOM     12  C   UNL     1      47.518   5.520  19.225  0.00  0.00    +0.000 C 
ATOM     13  C   UNL     1      48.197   4.674  18.159  0.00  0.00    +0.000 C 
ATOM     14  C   UNL     1      48.127   5.266  16.727  0.00  0.00    +0.000 C 
ATOM     15  C   UNL     1      47.885   3.827  16.214  0.00  0.00    +0.000 C 
ATOM     16  C   UNL     1      47.349   3.486  17.624  0.00  0.00    +0.000 C 
BRANCH  13  17
ATOM     17  O   UNL     1      49.519   4.311  18.612  0.00  0.00    +0.000 OA
ATOM     18  H   UNL     1      50.119   4.937  18.169  0.00  0.00    +0.000 HD
ENDBRANCH  13  17
ENDBRANCH   4  15
ENDBRANCH   1   7
BRANCH   1  19
ATOM     19  C   UNL     1      43.771   5.058  10.596  0.00  0.00    +0.000 C 
BRANCH  19  20
ATOM     20  N   UNL     1      44.700   5.157   9.456  0.00  0.00    +0.000 N 
ATOM     21  C   UNL     1      45.161   3.923   8.978  0.00  0.00    +0.000 A 
ATOM     22  C   UNL     1      46.008   3.915   7.880  0.00  0.00    +0.000 A 
ATOM     23  C   UNL     1      46.452   2.695   7.368  0.00  0.00    +0.000 A 
ATOM     24  C   UNL     1      46.036   1.511   7.968  0.00  0.00    +0.000 A 
ATOM     25  C   UNL     1      45.181   1.608   9.046  0.00  0.00    +0.000 A 
ATOM     26  N   UNL     1      44.731   2.777   9.542  0.00  0.00    +0.000 NA
ATOM     27  H   UNL     1      45.490   5.769   9.656  0.00  0.00    +0.000 HD
BRANCH  23  28
ATOM     28  C   UNL     1      47.353   2.731   6.182  0.00  0.00    +0.000 C 
ATOM     29  N   UNL     1      48.692   2.524   6.368  0.00  0.00    +0.000 N 
ATOM     30  O   UNL     1      46.917   2.947   5.057  0.00  0.00    +0.000 OA
ATOM     31  H   UNL     1      49.148   2.372   7.249  0.00  0.00    +0.000 HD
ATOM     32  H   UNL     1      49.269   2.568   5.540  0.00  0.00    +0.000 HD
ENDBRANCH  23  28
ENDBRANCH  19  20
ENDBRANCH   1  19
TORSDOF 6
ENDMDL
MODEL 2
REMARK VINA RESULT:    -8.994      2.787      4.119
REMARK INTER + INTRA:         -12.242
REMARK INTER:                 -11.297
REMARK INTRA:                  -0.945
REMARK UNBOUND:                -0.356
REMARK  Name = 
REMARK  7 active torsions:
REMARK  status: ('A' for Active; 'I' for Inactive)
REMARK    1  A    between atoms: C_1  and  C_2
REMARK    2  A    between atoms: C_2  and  O_3
REMARK    3  A    between atoms: C_5  and  N_6
REMARK    4  A    between atoms: C_9  and  C_10
REMARK    5  A    between atoms: C_10  and  C_13
REMARK    6  A    between atoms: C_13  and  N_14
REMARK    7  A    between atoms: C_17  and  C_18
REMARK                            x       y       z     vdW  Elec       q    Type
REMARK                         _______ _______ _______ _____ _____    ______ ____
ROOT
ATOM      1  C   UNL     1      43.619   3.790  12.542  0.00  0.00    +0.000 C 
ATOM      2  F   UNL     1      43.441   2.507  13.000  0.00  0.00    +0.000 F 
ATOM      3  F   UNL     1      42.619   4.503  13.139  0.00  0.00    +0.000 F 
ENDROOT
BRANCH   1   7
ATOM      4  N   UNL     1      46.784   7.498  13.369  0.00  0.00    +0.000 N 
ATOM      5  C   UNL     1      46.559   6.106  13.373  0.00  0.00    +0.000 A 
ATOM      6  C   UNL     1      45.276   5.682  13.046  0.00  0.00    +0.000 A 
ATOM      7  C   UNL     1      44.979   4.318  12.962  0.00  0.00    +0.000 A 
ATOM      8  C   UNL     1      46.005   3.417  13.266  0.00  0.00    +0.000 A 
ATOM      9  C   UNL     1      47.253   3.920  13.596  0.00  0.00    +0.000 A 
ATOM     10  N   UNL     1      47.551   5.239  13.635  0.00  0.00    +0.000 NA
ATOM     11  H   UNL     1      46.232   7.915  14.115  0.00  0.00    +0.000 HD
BRANCH   4  15
ATOM     12  C   UNL     1      48.818  10.679  11.098  0.00  0.00    +0.000 C 
ATOM     13  C   UNL     1      49.068   9.618  12.158  0.00  0.00    +0.000 C 
ATOM     14  C   UNL     1      48.540   8.206  11.792  0.00  0.00    +0.000 C 
ATOM     15  C   UNL     1      48.090   8.063  13.265  0.00  0.00    +0.000 C 
ATOM     16  C   UNL     1      48.051   9.608  13.333  0.00  0.00    +0.000 C 
BRANCH  13  17
ATOM     17  O   UNL     1      50.453   9.671  12.565  0.00  0.00    +0.000 OA
ATOM     18  H   UNL     1      50.825  10.439  12.098  0.00  0.00    +0.000 HD
ENDBRANCH  13  17
ENDBRANCH   4  15
ENDBRANCH   1   7
BRANCH   1  19
ATOM     19  C   UNL     1      43.405   3.744  11.001  0.00  0.00    +0.000 C 
BRANCH  19  20
ATOM     20  N   UNL     1      44.083   2.644  10.292  0.00  0.00    +0.000 N 
ATOM     21  C   UNL     1      44.968   3.063   9.290  0.00  0.00    +0.000 A 
ATOM     22  C   UNL     1      45.683   2.098   8.595  0.00  0.00    +0.000 A 
ATOM     23  C   UNL     1      46.594   2.496   7.616  0.00  0.00    +0.000 A 
ATOM     24  C   UNL     1      46.768   3.851   7.355  0.00  0.00    +0.000 A 
ATOM     25  C   UNL     1      46.029   4.744   8.103  0.00  0.00    +0.000 A 
ATOM     26  N   UNL     1      45.158   4.377   9.062  0.00  0.00    +0.000 NA
ATOM     27  H   UNL     1      43.423   1.967   9.912  0.00  0.00    +0.000 HD
BRANCH  23  28
ATOM     28  C   UNL     1      47.348   1.428   6.901  0.00  0.00    +0.000 C 
ATOM     29  N   UNL     1      48.330   1.795   6.021  0.00  0.00    +0.000 N 
ATOM     30  O   UNL     1      47.100   0.242   7.082  0.00  0.00    +0.000 OA
ATOM     31  H   UNL     1      48.584   2.735   5.782  0.00  0.00    +0.000 HD
ATOM     32  H   UNL     1      48.809   1.041   5.550  0.00  0.00    +0.000 HD
ENDBRANCH  23  28
ENDBRANCH  19  20
ENDBRANCH   1  19
TORSDOF 6
ENDMDL
MODEL 3
REMARK VINA RESULT:    -8.846      2.401      3.727
REMARK INTER + INTRA:         -12.046
REMARK INTER:                 -11.201
REMARK INTRA:                  -0.845
REMARK UNBOUND:                -0.356
REMARK  Name = 
REMARK  7 active torsions:
REMARK  status: ('A' for Active; 'I' for Inactive)
REMARK    1  A    between atoms: C_1  and  C_2
REMARK    2  A    between atoms: C_2  and  O_3
REMARK    3  A    between atoms: C_5  and  N_6
REMARK    4  A    between atoms: C_9  and  C_10
REMARK    5  A    between atoms: C_10  and  C_13
REMARK    6  A    between atoms: C_13  and  N_14
REMARK    7  A    between atoms: C_17  and  C_18
REMARK                            x       y       z     vdW  Elec       q    Type
REMARK                         _______ _______ _______ _____ _____    ______ ____
ROOT
ATOM      1  C   UNL     1      43.572   5.690  11.780  0.00  0.00    +0.000 C 
ATOM      2  F   UNL     1      42.602   5.344  12.689  0.00  0.00    +0.000 F 
ATOM      3  F   UNL     1      43.251   6.965  11.412  0.00  0.00    +0.000 F 
ENDROOT
BRANCH   1   7
ATOM      4  N   UNL     1      48.075   7.576  12.564  0.00  0.00    +0.000 N 
ATOM      5  C   UNL     1      47.159   6.538  12.834  0.00  0.00    +0.000 A 
ATOM      6  C   UNL     1      45.895   6.662  12.268  0.00  0.00    +0.000 A 
ATOM      7  C   UNL     1      44.944   5.649  12.429  0.00  0.00    +0.000 A 
ATOM      8  C   UNL     1      45.303   4.549  13.215  0.00  0.00    +0.000 A 
ATOM      9  C   UNL     1      46.579   4.508  13.755  0.00  0.00    +0.000 A 
ATOM     10  N   UNL     1      47.513   5.467  13.563  0.00  0.00    +0.000 NA
ATOM     11  H   UNL     1      47.735   8.428  13.003  0.00  0.00    +0.000 HD
BRANCH   4  15
ATOM     12  C   UNL     1      51.757   9.827  11.670  0.00  0.00    +0.000 C 
ATOM     13  C   UNL     1      51.271   8.516  12.268  0.00  0.00    +0.000 C 
ATOM     14  C   UNL     1      50.238   7.756  11.395  0.00  0.00    +0.000 C 
ATOM     15  C   UNL     1      49.486   7.409  12.702  0.00  0.00    +0.000 C 
ATOM     16  C   UNL     1      50.149   8.654  13.335  0.00  0.00    +0.000 C 
BRANCH  13  17
ATOM     17  O   UNL     1      52.410   7.737  12.693  0.00  0.00    +0.000 OA
ATOM     18  H   UNL     1      53.120   8.386  12.840  0.00  0.00    +0.000 HD
ENDBRANCH  13  17
ENDBRANCH   4  15
ENDBRANCH   1   7
BRANCH   1  19
ATOM     19  C   UNL     1      43.414   4.721  10.572  0.00  0.00    +0.000 C 
BRANCH  19  20
ATOM     20  N   UNL     1      44.360   4.921   9.460  0.00  0.00    +0.000 N 
ATOM     21  C   UNL     1      44.942   3.740   8.979  0.00  0.00    +0.000 A 
ATOM     22  C   UNL     1      45.816   3.825   7.905  0.00  0.00    +0.000 A 
ATOM     23  C   UNL     1      46.380   2.657   7.390  0.00  0.00    +0.000 A 
ATOM     24  C   UNL     1      46.055   1.431   7.962  0.00  0.00    +0.000 A 
ATOM     25  C   UNL     1      45.166   1.435   9.016  0.00  0.00    +0.000 A 
ATOM     26  N   UNL     1      44.600   2.552   9.515  0.00  0.00    +0.000 NA
ATOM     27  H   UNL     1      45.087   5.597   9.690  0.00  0.00    +0.000 HD
BRANCH  23  28
ATOM     28  C   UNL     1      47.306   2.792   6.230  0.00  0.00    +0.000 C 
ATOM     29  N   UNL     1      48.637   2.539   6.419  0.00  0.00    +0.000 N 
ATOM     30  O   UNL     1      46.897   3.128   5.125  0.00  0.00    +0.000 OA
ATOM     31  H   UNL     1      49.071   2.291   7.289  0.00  0.00    +0.000 HD
ATOM     32  H   UNL     1      49.231   2.653   5.611  0.00  0.00    +0.000 HD
ENDBRANCH  23  28
ENDBRANCH  19  20
ENDBRANCH   1  19
TORSDOF 6
ENDMDL
MODEL 4
REMARK VINA RESULT:    -7.768      3.659      4.887
REMARK INTER + INTRA:         -10.622
REMARK INTER:                  -9.995
REMARK INTRA:                  -0.627
REMARK UNBOUND:                -0.356
REMARK  Name = 
REMARK  7 active torsions:
REMARK  status: ('A' for Active; 'I' for Inactive)
REMARK    1  A    between atoms: C_1  and  C_2
REMARK    2  A    between atoms: C_2  and  O_3
REMARK    3  A    between atoms: C_5  and  N_6
REMARK    4  A    between atoms: C_9  and  C_10
REMARK    5  A    between atoms: C_10  and  C_13
REMARK    6  A    between atoms: C_13  and  N_14
REMARK    7  A    between atoms: C_17  and  C_18
REMARK                            x       y       z     vdW  Elec       q    Type
REMARK                         _______ _______ _______ _____ _____    ______ ____
ROOT
ATOM      1  C   UNL     1      45.102   5.844  12.181  0.00  0.00    +0.000 C 
ATOM      2  F   UNL     1      45.786   4.688  12.470  0.00  0.00    +0.000 F 
ATOM      3  F   UNL     1      44.189   5.957  13.190  0.00  0.00    +0.000 F 
ENDROOT
BRANCH   1   7
ATOM      4  N   UNL     1      49.566   7.852  11.486  0.00  0.00    +0.000 N 
ATOM      5  C   UNL     1      48.220   8.050  11.855  0.00  0.00    +0.000 A 
ATOM      6  C   UNL     1      47.383   6.944  11.772  0.00  0.00    +0.000 A 
ATOM      7  C   UNL     1      46.048   7.032  12.179  0.00  0.00    +0.000 A 
ATOM      8  C   UNL     1      45.590   8.279  12.617  0.00  0.00    +0.000 A 
ATOM      9  C   UNL     1      46.485   9.337  12.656  0.00  0.00    +0.000 A 
ATOM     10  N   UNL     1      47.787   9.240  12.304  0.00  0.00    +0.000 NA
ATOM     11  H   UNL     1      49.600   7.640  10.492  0.00  0.00    +0.000 HD
BRANCH   4  15
ATOM     12  C   UNL     1      53.121   9.786   9.741  0.00  0.00    +0.000 C 
ATOM     13  C   UNL     1      52.336   9.671  11.039  0.00  0.00    +0.000 C 
ATOM     14  C   UNL     1      52.004   8.216  11.462  0.00  0.00    +0.000 C 
ATOM     15  C   UNL     1      50.612   8.730  11.900  0.00  0.00    +0.000 C 
ATOM     16  C   UNL     1      50.805   9.898  10.905  0.00  0.00    +0.000 C 
BRANCH  13  17
ATOM     17  O   UNL     1      52.976  10.476  12.053  0.00  0.00    +0.000 OA
ATOM     18  H   UNL     1      52.809  11.397  11.787  0.00  0.00    +0.000 HD
ENDBRANCH  13  17
ENDBRANCH   4  15
ENDBRANCH   1   7
BRANCH   1  19
ATOM     19  C   UNL     1      44.381   5.605  10.823  0.00  0.00    +0.000 C 
BRANCH  19  20
ATOM     20  N   UNL     1      45.250   5.569   9.633  0.00  0.00    +0.000 N 
ATOM     21  C   UNL     1      45.482   4.283   9.127  0.00  0.00    +0.000 A 
ATOM     22  C   UNL     1      46.256   4.153   7.983  0.00  0.00    +0.000 A 
ATOM     23  C   UNL     1      46.472   2.884   7.444  0.00  0.00    +0.000 A 
ATOM     24  C   UNL     1      45.906   1.774   8.063  0.00  0.00    +0.000 A 
ATOM     25  C   UNL     1      45.137   1.993   9.187  0.00  0.00    +0.000 A 
ATOM     26  N   UNL     1      44.906   3.213   9.710  0.00  0.00    +0.000 NA
ATOM     27  H   UNL     1      46.137   6.045   9.790  0.00  0.00    +0.000 HD
BRANCH  23  28
ATOM     28  C   UNL     1      47.301   2.790   6.210  0.00  0.00    +0.000 C 
ATOM     29  N   UNL     1      48.634   2.512   6.334  0.00  0.00    +0.000 N 
ATOM     30  O   UNL     1      46.812   2.963   5.099  0.00  0.00    +0.000 OA
ATOM     31  H   UNL     1      49.131   2.386   7.196  0.00  0.00    +0.000 HD
ATOM     32  H   UNL     1      49.162   2.468   5.474  0.00  0.00    +0.000 HD
ENDBRANCH  23  28
ENDBRANCH  19  20
ENDBRANCH   1  19
TORSDOF 6
ENDMDL
MODEL 5
REMARK VINA RESULT:    -7.496      3.359      8.437
REMARK INTER + INTRA:         -10.261
REMARK INTER:                  -9.449
REMARK INTRA:                  -0.813
REMARK UNBOUND:                -0.356
REMARK  Name = 
REMARK  7 active torsions:
REMARK  status: ('A' for Active; 'I' for Inactive)
REMARK    1  A    between atoms: C_1  and  C_2
REMARK    2  A    between atoms: C_2  and  O_3
REMARK    3  A    between atoms: C_5  and  N_6
REMARK    4  A    between atoms: C_9  and  C_10
REMARK    5  A    between atoms: C_10  and  C_13
REMARK    6  A    between atoms: C_13  and  N_14
REMARK    7  A    between atoms: C_17  and  C_18
REMARK                            x       y       z     vdW  Elec       q    Type
REMARK                         _______ _______ _______ _____ _____    ______ ____
ROOT
ATOM      1  C   UNL     1      49.130   7.675  14.923  0.00  0.00    +0.000 C 
ATOM      2  F   UNL     1      50.128   6.968  14.297  0.00  0.00    +0.000 F 
ATOM      3  F   UNL     1      49.597   8.957  14.960  0.00  0.00    +0.000 F 
ENDROOT
BRANCH   1   7
ATOM      4  N   UNL     1      45.830   5.170  12.226  0.00  0.00    +0.000 N 
ATOM      5  C   UNL     1      46.208   6.405  12.792  0.00  0.00    +0.000 A 
ATOM      6  C   UNL     1      47.358   6.405  13.573  0.00  0.00    +0.000 A 
ATOM      7  C   UNL     1      47.843   7.596  14.122  0.00  0.00    +0.000 A 
ATOM      8  C   UNL     1      47.100   8.758  13.893  0.00  0.00    +0.000 A 
ATOM      9  C   UNL     1      45.957   8.672  13.115  0.00  0.00    +0.000 A 
ATOM     10  N   UNL     1      45.512   7.527  12.548  0.00  0.00    +0.000 NA
ATOM     11  H   UNL     1      45.569   4.537  12.978  0.00  0.00    +0.000 HD
BRANCH   4  15
ATOM     12  C   UNL     1      45.773   3.249   8.260  0.00  0.00    +0.000 C 
ATOM     13  C   UNL     1      44.939   4.134   9.173  0.00  0.00    +0.000 C 
ATOM     14  C   UNL     1      45.705   5.344   9.770  0.00  0.00    +0.000 C 
ATOM     15  C   UNL     1      44.958   5.078  11.099  0.00  0.00    +0.000 C 
ATOM     16  C   UNL     1      44.783   3.615  10.630  0.00  0.00    +0.000 C 
BRANCH  13  17
ATOM     17  O   UNL     1      43.695   4.457   8.515  0.00  0.00    +0.000 OA
ATOM     18  H   UNL     1      43.924   5.144   7.865  0.00  0.00    +0.000 HD
ENDBRANCH  13  17
ENDBRANCH   4  15
ENDBRANCH   1   7
BRANCH   1  19
ATOM     19  C   UNL     1      49.017   7.099  16.364  0.00  0.00    +0.000 C 
BRANCH  19  20
ATOM     20  N   UNL     1      50.156   6.283  16.821  0.00  0.00    +0.000 N 
ATOM     21  C   UNL     1      49.871   4.917  16.953  0.00  0.00    +0.000 A 
ATOM     22  C   UNL     1      50.894   4.063  17.338  0.00  0.00    +0.000 A 
ATOM     23  C   UNL     1      50.640   2.695  17.445  0.00  0.00    +0.000 A 
ATOM     24  C   UNL     1      49.366   2.214  17.161  0.00  0.00    +0.000 A 
ATOM     25  C   UNL     1      48.411   3.129  16.769  0.00  0.00    +0.000 A 
ATOM     26  N   UNL     1      48.645   4.450  16.647  0.00  0.00    +0.000 NA
ATOM     27  H   UNL     1      50.562   6.638  17.685  0.00  0.00    +0.000 HD
BRANCH  23  28
ATOM     28  C   UNL     1      51.769   1.813  17.852  0.00  0.00    +0.000 C 
ATOM     29  N   UNL     1      51.545   0.468  17.961  0.00  0.00    +0.000 N 
ATOM     30  O   UNL     1      52.880   2.270  18.094  0.00  0.00    +0.000 OA
ATOM     31  H   UNL     1      50.668   0.004  17.816  0.00  0.00    +0.000 HD
ATOM     32  H   UNL     1      52.333  -0.093  18.249  0.00  0.00    +0.000 HD
ENDBRANCH  23  28
ENDBRANCH  19  20
ENDBRANCH   1  19
TORSDOF 6
ENDMDL
MODEL 6
REMARK VINA RESULT:    -6.764      4.384      8.441
REMARK INTER + INTRA:          -9.295
REMARK INTER:                  -8.576
REMARK INTRA:                  -0.718
REMARK UNBOUND:                -0.356
REMARK  Name = 
REMARK  7 active torsions:
REMARK  status: ('A' for Active; 'I' for Inactive)
REMARK    1  A    between atoms: C_1  and  C_2
REMARK    2  A    between atoms: C_2  and  O_3
REMARK    3  A    between atoms: C_5  and  N_6
REMARK    4  A    between atoms: C_9  and  C_10
REMARK    5  A    between atoms: C_10  and  C_13
REMARK    6  A    between atoms: C_13  and  N_14
REMARK    7  A    between atoms: C_17  and  C_18
REMARK                            x       y       z     vdW  Elec       q    Type
REMARK                         _______ _______ _______ _____ _____    ______ ____
ROOT
ATOM      1  C   UNL     1      50.393   7.882  15.601  0.00  0.00    +0.000 C 
ATOM      2  F   UNL     1      51.714   7.651  15.300  0.00  0.00    +0.000 F 
ATOM      3  F   UNL     1      50.348   9.207  15.922  0.00  0.00    +0.000 F 
ENDROOT
BRANCH   1   7
ATOM      4  N   UNL     1      46.318   5.997  13.531  0.00  0.00    +0.000 N 
ATOM      5  C   UNL     1      47.539   6.677  13.343  0.00  0.00    +0.000 A 
ATOM      6  C   UNL     1      48.266   6.977  14.489  0.00  0.00    +0.000 A 
ATOM      7  C   UNL     1      49.518   7.592  14.394  0.00  0.00    +0.000 A 
ATOM      8  C   UNL     1      49.973   7.931  13.115  0.00  0.00    +0.000 A 
ATOM      9  C   UNL     1      49.181   7.610  12.024  0.00  0.00    +0.000 A 
ATOM     10  N   UNL     1      47.990   6.975  12.114  0.00  0.00    +0.000 NA
ATOM     11  H   UNL     1      45.679   6.613  14.026  0.00  0.00    +0.000 HD
BRANCH   4  15
ATOM     12  C   UNL     1      42.292   5.581  11.788  0.00  0.00    +0.000 C 
ATOM     13  C   UNL     1      43.718   5.073  11.642  0.00  0.00    +0.000 C 
ATOM     14  C   UNL     1      44.370   4.597  12.966  0.00  0.00    +0.000 C 
ATOM     15  C   UNL     1      45.680   5.263  12.485  0.00  0.00    +0.000 C 
ATOM     16  C   UNL     1      44.809   6.179  11.595  0.00  0.00    +0.000 C 
BRANCH  13  17
ATOM     17  O   UNL     1      43.775   4.127  10.552  0.00  0.00    +0.000 OA
ATOM     18  H   UNL     1      43.736   4.670   9.744  0.00  0.00    +0.000 HD
ENDBRANCH  13  17
ENDBRANCH   4  15
ENDBRANCH   1   7
BRANCH   1  19
ATOM     19  C   UNL     1      50.063   7.010  16.847  0.00  0.00    +0.000 C 
BRANCH  19  20
ATOM     20  N   UNL     1      51.081   6.011  17.219  0.00  0.00    +0.000 N 
ATOM     21  C   UNL     1      50.621   4.687  17.207  0.00  0.00    +0.000 A 
ATOM     22  C   UNL     1      51.520   3.673  17.504  0.00  0.00    +0.000 A 
ATOM     23  C   UNL     1      51.090   2.346  17.467  0.00  0.00    +0.000 A 
ATOM     24  C   UNL     1      49.770   2.065  17.131  0.00  0.00    +0.000 A 
ATOM     25  C   UNL     1      48.947   3.132  16.835  0.00  0.00    +0.000 A 
ATOM     26  N   UNL     1      49.350   4.417  16.851  0.00  0.00    +0.000 NA
ATOM     27  H   UNL     1      51.515   6.220  18.116  0.00  0.00    +0.000 HD
BRANCH  23  28
ATOM     28  C   UNL     1      52.090   1.288  17.783  0.00  0.00    +0.000 C 
ATOM     29  N   UNL     1      51.642   0.063  18.194  0.00  0.00    +0.000 N 
ATOM     30  O   UNL     1      53.294   1.499  17.687  0.00  0.00    +0.000 OA
ATOM     31  H   UNL     1      50.683  -0.196  18.334  0.00  0.00    +0.000 HD
ATOM     32  H   UNL     1      52.352  -0.622  18.409  0.00  0.00    +0.000 HD
ENDBRANCH  23  28
ENDBRANCH  19  20
ENDBRANCH   1  19
TORSDOF 6
ENDMDL
MODEL 7
REMARK VINA RESULT:    -6.729      5.025      9.309
REMARK INTER + INTRA:          -9.248
REMARK INTER:                  -8.737
REMARK INTRA:                  -0.511
REMARK UNBOUND:                -0.356
REMARK  Name = 
REMARK  7 active torsions:
REMARK  status: ('A' for Active; 'I' for Inactive)
REMARK    1  A    between atoms: C_1  and  C_2
REMARK    2  A    between atoms: C_2  and  O_3
REMARK    3  A    between atoms: C_5  and  N_6
REMARK    4  A    between atoms: C_9  and  C_10
REMARK    5  A    between atoms: C_10  and  C_13
REMARK    6  A    between atoms: C_13  and  N_14
REMARK    7  A    between atoms: C_17  and  C_18
REMARK                            x       y       z     vdW  Elec       q    Type
REMARK                         _______ _______ _______ _____ _____    ______ ____
ROOT
ATOM      1  C   UNL     1      48.797   3.798  18.143  0.00  0.00    +0.000 C 
ATOM      2  F   UNL     1      48.427   4.484  19.275  0.00  0.00    +0.000 F 
ATOM      3  F   UNL     1      48.113   2.620  18.225  0.00  0.00    +0.000 F 
ENDROOT
BRANCH   1   7
ATOM      4  N   UNL     1      46.067   4.342  14.057  0.00  0.00    +0.000 N 
ATOM      5  C   UNL     1      47.076   4.868  14.889  0.00  0.00    +0.000 A 
ATOM      6  C   UNL     1      47.360   4.157  16.049  0.00  0.00    +0.000 A 
ATOM      7  C   UNL     1      48.390   4.569  16.900  0.00  0.00    +0.000 A 
ATOM      8  C   UNL     1      49.075   5.741  16.560  0.00  0.00    +0.000 A 
ATOM      9  C   UNL     1      48.721   6.401  15.394  0.00  0.00    +0.000 A 
ATOM     10  N   UNL     1      47.754   5.977  14.548  0.00  0.00    +0.000 NA
ATOM     11  H   UNL     1      45.181   4.394  14.554  0.00  0.00    +0.000 HD
BRANCH   4  15
ATOM     12  C   UNL     1      42.879   5.291  11.165  0.00  0.00    +0.000 C 
ATOM     13  C   UNL     1      44.390   5.159  11.281  0.00  0.00    +0.000 C 
ATOM     14  C   UNL     1      44.870   3.849  11.959  0.00  0.00    +0.000 C 
ATOM     15  C   UNL     1      45.949   4.693  12.678  0.00  0.00    +0.000 C 
ATOM     16  C   UNL     1      45.027   5.918  12.478  0.00  0.00    +0.000 C 
BRANCH  13  17
ATOM     17  O   UNL     1      44.991   5.445  10.000  0.00  0.00    +0.000 OA
ATOM     18  H   UNL     1      45.484   6.273  10.131  0.00  0.00    +0.000 HD
ENDBRANCH  13  17
ENDBRANCH   4  15
ENDBRANCH   1   7
BRANCH   1  19
ATOM     19  C   UNL     1      50.328   3.545  18.259  0.00  0.00    +0.000 C 
BRANCH  19  20
ATOM     20  N   UNL     1      50.794   2.216  17.822  0.00  0.00    +0.000 N 
ATOM     21  C   UNL     1      52.187   2.089  17.749  0.00  0.00    +0.000 A 
ATOM     22  C   UNL     1      52.720   0.861  17.386  0.00  0.00    +0.000 A 
ATOM     23  C   UNL     1      54.106   0.704  17.340  0.00  0.00    +0.000 A 
ATOM     24  C   UNL     1      54.927   1.781  17.660  0.00  0.00    +0.000 A 
ATOM     25  C   UNL     1      54.315   2.962  18.025  0.00  0.00    +0.000 A 
ATOM     26  N   UNL     1      52.979   3.125  18.090  0.00  0.00    +0.000 NA
ATOM     27  H   UNL     1      50.373   1.933  16.939  0.00  0.00    +0.000 HD
BRANCH  23  28
ATOM     28  C   UNL     1      54.636  -0.634  16.954  0.00  0.00    +0.000 C 
ATOM     29  N   UNL     1      54.241  -1.179  15.763  0.00  0.00    +0.000 N 
ATOM     30  O   UNL     1      55.407  -1.248  17.683  0.00  0.00    +0.000 OA
ATOM     31  H   UNL     1      53.592  -0.771  15.116  0.00  0.00    +0.000 HD
ATOM     32  H   UNL     1      54.615  -2.091  15.545  0.00  0.00    +0.000 HD
ENDBRANCH  23  28
ENDBRANCH  19  20
ENDBRANCH   1  19
TORSDOF 6
ENDMDL
MODEL 8
REMARK VINA RESULT:    -6.578      2.967      4.257
REMARK INTER + INTRA:          -9.049
REMARK INTER:                  -8.214
REMARK INTRA:                  -0.835
REMARK UNBOUND:                -0.356
REMARK  Name = 
REMARK  7 active torsions:
REMARK  status: ('A' for Active; 'I' for Inactive)
REMARK    1  A    between atoms: C_1  and  C_2
REMARK    2  A    between atoms: C_2  and  O_3
REMARK    3  A    between atoms: C_5  and  N_6
REMARK    4  A    between atoms: C_9  and  C_10
REMARK    5  A    between atoms: C_10  and  C_13
REMARK    6  A    between atoms: C_13  and  N_14
REMARK    7  A    between atoms: C_17  and  C_18
REMARK                            x       y       z     vdW  Elec       q    Type
REMARK                         _______ _______ _______ _____ _____    ______ ____
ROOT
ATOM      1  C   UNL     1      48.037   8.839  13.122  0.00  0.00    +0.000 C 
ATOM      2  F   UNL     1      47.915  10.150  13.516  0.00  0.00    +0.000 F 
ATOM      3  F   UNL     1      48.483   8.914  11.834  0.00  0.00    +0.000 F 
ENDROOT
BRANCH   1   7
ATOM      4  N   UNL     1      49.175   5.704  16.772  0.00  0.00    +0.000 N 
ATOM      5  C   UNL     1      49.642   6.593  15.782  0.00  0.00    +0.000 A 
ATOM      6  C   UNL     1      48.680   7.174  14.964  0.00  0.00    +0.000 A 
ATOM      7  C   UNL     1      49.045   8.116  13.997  0.00  0.00    +0.000 A 
ATOM      8  C   UNL     1      50.407   8.403  13.862  0.00  0.00    +0.000 A 
ATOM      9  C   UNL     1      51.305   7.770  14.707  0.00  0.00    +0.000 A 
ATOM     10  N   UNL     1      50.947   6.891  15.671  0.00  0.00    +0.000 NA
ATOM     11  H   UNL     1      48.776   4.890  16.311  0.00  0.00    +0.000 HD
BRANCH   4  15
ATOM     12  C   UNL     1      48.493   4.659  20.999  0.00  0.00    +0.000 C 
ATOM     13  C   UNL     1      49.603   4.852  19.977  0.00  0.00    +0.000 C 
ATOM     14  C   UNL     1      49.511   6.172  19.168  0.00  0.00    +0.000 C 
ATOM     15  C   UNL     1      49.948   5.364  17.923  0.00  0.00    +0.000 C 
ATOM     16  C   UNL     1      49.395   4.105  18.630  0.00  0.00    +0.000 C 
BRANCH  13  17
ATOM     17  O   UNL     1      50.878   4.605  20.610  0.00  0.00    +0.000 OA
ATOM     18  H   UNL     1      51.059   5.404  21.134  0.00  0.00    +0.000 HD
ENDBRANCH  13  17
ENDBRANCH   4  15
ENDBRANCH   1   7
BRANCH   1  19
ATOM     19  C   UNL     1      46.606   8.228  13.166  0.00  0.00    +0.000 C 
BRANCH  19  20
ATOM     20  N   UNL     1      46.135   7.609  11.914  0.00  0.00    +0.000 N 
ATOM     21  C   UNL     1      45.825   6.247  12.026  0.00  0.00    +0.000 A 
ATOM     22  C   UNL     1      45.334   5.587  10.908  0.00  0.00    +0.000 A 
ATOM     23  C   UNL     1      44.989   4.239  11.007  0.00  0.00    +0.000 A 
ATOM     24  C   UNL     1      45.143   3.582  12.224  0.00  0.00    +0.000 A 
ATOM     25  C   UNL     1      45.623   4.316  13.288  0.00  0.00    +0.000 A 
ATOM     26  N   UNL     1      45.945   5.622  13.213  0.00  0.00    +0.000 NA
ATOM     27  H   UNL     1      46.785   7.755  11.144  0.00  0.00    +0.000 HD
BRANCH  23  28
ATOM     28  C   UNL     1      44.456   3.572   9.786  0.00  0.00    +0.000 C 
ATOM     29  N   UNL     1      44.146   4.343   8.699  0.00  0.00    +0.000 N 
ATOM     30  O   UNL     1      44.289   2.359   9.744  0.00  0.00    +0.000 OA
ATOM     31  H   UNL     1      44.217   5.342   8.647  0.00  0.00    +0.000 HD
ATOM     32  H   UNL     1      43.778   3.853   7.897  0.00  0.00    +0.000 HD
ENDBRANCH  23  28
ENDBRANCH  19  20
ENDBRANCH   1  19
TORSDOF 6
ENDMDL
MODEL 9
REMARK VINA RESULT:    -6.576      3.609      8.306
REMARK INTER + INTRA:          -9.046
REMARK INTER:                  -8.185
REMARK INTRA:                  -0.860
REMARK UNBOUND:                -0.356
REMARK  Name = 
REMARK  7 active torsions:
REMARK  status: ('A' for Active; 'I' for Inactive)
REMARK    1  A    between atoms: C_1  and  C_2
REMARK    2  A    between atoms: C_2  and  O_3
REMARK    3  A    between atoms: C_5  and  N_6
REMARK    4  A    between atoms: C_9  and  C_10
REMARK    5  A    between atoms: C_10  and  C_13
REMARK    6  A    between atoms: C_13  and  N_14
REMARK    7  A    between atoms: C_17  and  C_18
REMARK                            x       y       z     vdW  Elec       q    Type
REMARK                         _______ _______ _______ _____ _____    ______ ____
ROOT
ATOM      1  C   UNL     1      49.751   8.797  11.872  0.00  0.00    +0.000 C 
ATOM      2  F   UNL     1      50.405   7.865  11.102  0.00  0.00    +0.000 F 
ATOM      3  F   UNL     1      49.764   9.931  11.112  0.00  0.00    +0.000 F 
ENDROOT
BRANCH   1   7
ATOM      4  N   UNL     1      46.346   5.276  12.546  0.00  0.00    +0.000 N 
ATOM      5  C   UNL     1      46.629   6.656  12.475  0.00  0.00    +0.000 A 
ATOM      6  C   UNL     1      47.961   7.009  12.291  0.00  0.00    +0.000 A 
ATOM      7  C   UNL     1      48.326   8.351  12.146  0.00  0.00    +0.000 A 
ATOM      8  C   UNL     1      47.310   9.307  12.241  0.00  0.00    +0.000 A 
ATOM      9  C   UNL     1      46.008   8.874  12.439  0.00  0.00    +0.000 A 
ATOM     10  N   UNL     1      45.650   7.573  12.537  0.00  0.00    +0.000 NA
ATOM     11  H   UNL     1      46.777   4.902  13.388  0.00  0.00    +0.000 HD
BRANCH   4  15
ATOM     12  C   UNL     1      44.383   2.473   9.770  0.00  0.00    +0.000 C 
ATOM     13  C   UNL     1      44.097   3.377  10.958  0.00  0.00    +0.000 C 
ATOM     14  C   UNL     1      44.651   4.820  10.816  0.00  0.00    +0.000 C 
ATOM     15  C   UNL     1      45.041   4.748  12.311  0.00  0.00    +0.000 C 
ATOM     16  C   UNL     1      45.066   3.209  12.162  0.00  0.00    +0.000 C 
BRANCH  13  17
ATOM     17  O   UNL     1      42.696   3.286  11.299  0.00  0.00    +0.000 OA
ATOM     18  H   UNL     1      42.406   4.207  11.422  0.00  0.00    +0.000 HD
ENDBRANCH  13  17
ENDBRANCH   4  15
ENDBRANCH   1   7
BRANCH   1  19
ATOM     19  C   UNL     1      50.611   8.994  13.154  0.00  0.00    +0.000 C 
BRANCH  19  20
ATOM     20  N   UNL     1      50.854   7.782  13.956  0.00  0.00    +0.000 N 
ATOM     21  C   UNL     1      50.152   7.743  15.169  0.00  0.00    +0.000 A 
ATOM     22  C   UNL     1      50.286   6.620  15.973  0.00  0.00    +0.000 A 
ATOM     23  C   UNL     1      49.570   6.547  17.169  0.00  0.00    +0.000 A 
ATOM     24  C   UNL     1      48.735   7.599  17.530  0.00  0.00    +0.000 A 
ATOM     25  C   UNL     1      48.648   8.670  16.665  0.00  0.00    +0.000 A 
ATOM     26  N   UNL     1      49.320   8.749  15.501  0.00  0.00    +0.000 NA
ATOM     27  H   UNL     1      51.846   7.625  14.125  0.00  0.00    +0.000 HD
BRANCH  23  28
ATOM     28  C   UNL     1      49.735   5.320  17.997  0.00  0.00    +0.000 C 
ATOM     29  N   UNL     1      50.719   4.429  17.663  0.00  0.00    +0.000 N 
ATOM     30  O   UNL     1      49.008   5.097  18.958  0.00  0.00    +0.000 OA
ATOM     31  H   UNL     1      51.341   4.506  16.880  0.00  0.00    +0.000 HD
ATOM     32  H   UNL     1      50.790   3.606  18.244  0.00  0.00    +0.000 HD
ENDBRANCH  23  28
ENDBRANCH  19  20
ENDBRANCH   1  19
TORSDOF 6
ENDMDL
