MODEL 1
REMARK VINA RESULT:    -7.512      0.000      0.000
REMARK INTER + INTRA:         -10.054
REMARK INTER:                  -9.489
REMARK INTRA:                  -0.565
REMARK UNBOUND:                -0.565
REMARK  Name = 
REMARK  5 active torsions:
REMARK  status: ('A' for Active; 'I' for Inactive)
REMARK    1  A    between atoms: N_1  and  C_2
REMARK    2  A    between atoms: C_2  and  C_3
REMARK    3  A    between atoms: C_3  and  C_4
REMARK    4  A    between atoms: N_10  and  C_11
REMARK    5  A    between atoms: C_11  and  C_12
REMARK                            x       y       z     vdW  Elec       q    Type
REMARK                         _______ _______ _______ _____ _____    ______ ____
ROOT
ATOM      1  C   UNL     1      45.924   3.281   8.030  0.00  0.00    +0.000 A 
ATOM      2  C   UNL     1      45.297   2.058   8.277  0.00  0.00    +0.000 A 
ATOM      3  N   UNL     1      44.439   1.796   9.284  0.00  0.00    +0.000 NA
ATOM      4  C   UNL     1      44.193   2.847  10.092  0.00  0.00    +0.000 A 
ATOM      5  N   UNL     1      43.340   2.832  11.157  0.00  0.00    +0.000 NA
ATOM      6  C   UNL     1      43.385   4.059  11.644  0.00  0.00    +0.000 A 
ATOM      7  N   UNL     1      44.272   4.847  10.957  0.00  0.00    +0.000 N 
ATOM      8  C   UNL     1      44.773   4.100   9.924  0.00  0.00    +0.000 A 
ATOM      9  C   UNL     1      45.660   4.359   8.875  0.00  0.00    +0.000 A 
ENDROOT
BRANCH   1  10
ATOM     10  C   UNL     1      46.860   3.435   6.860  0.00  0.00    +0.000 C 
BRANCH  10  11
ATOM     11  C   UNL     1      47.939   2.349   6.847  0.00  0.00    +0.000 C 
BRANCH  11  12
ATOM     12  N   UNL     1      48.353   2.042   5.481  0.00  0.00    +0.000 NA
ATOM     13  H   UNL     1      47.962   1.140   5.206  0.00  0.00    +0.000 HD
ATOM     14  H   UNL     1      49.366   1.932   5.442  0.00  0.00    +0.000 HD
ENDBRANCH  11  12
ENDBRANCH  10  11
ENDBRANCH   1  10
BRANCH   7  15
ATOM     15  C   UNL     1      44.597   6.243  11.233  0.00  0.00    +0.000 C 
BRANCH  15  16
ATOM     16  C   UNL     1      45.930   6.392  11.915  0.00  0.00    +0.000 A 
ATOM     17  C   UNL     1      46.989   7.084  11.316  0.00  0.00    +0.000 A 
ATOM     18  C   UNL     1      48.162   7.307  12.032  0.00  0.00    +0.000 A 
ATOM     19  C   UNL     1      48.246   6.798  13.315  0.00  0.00    +0.000 A 
ATOM     20 CL   UNL     1      49.625   7.092  14.289  0.00  0.00    +0.000 Cl
ATOM     21  N   UNL     1      47.282   6.067  13.907  0.00  0.00    +0.000 NA
ATOM     22  C   UNL     1      46.147   5.880  13.195  0.00  0.00    +0.000 A 
ENDBRANCH  15  16
ENDBRANCH   7  15
TORSDOF 5
ENDMDL
MODEL 2
REMARK VINA RESULT:    -7.304      2.614      5.764
REMARK INTER + INTRA:          -9.792
REMARK INTER:                  -9.183
REMARK INTRA:                  -0.608
REMARK UNBOUND:                -0.565
REMARK  Name = 
REMARK  5 active torsions:
REMARK  status: ('A' for Active; 'I' for Inactive)
REMARK    1  A    between atoms: N_1  and  C_2
REMARK    2  A    between atoms: C_2  and  C_3
REMARK    3  A    between atoms: C_3  and  C_4
REMARK    4  A    between atoms: N_10  and  C_11
REMARK    5  A    between atoms: C_11  and  C_12
REMARK                            x       y       z     vdW  Elec       q    Type
REMARK                         _______ _______ _______ _____ _____    ______ ____
ROOT
ATOM      1  C   UNL     1      47.250   6.757  12.077  0.00  0.00    +0.000 A 
ATOM      2  C   UNL     1      47.292   6.376  13.420  0.00  0.00    +0.000 A 
ATOM      3  N   UNL     1      46.493   5.465  14.012  0.00  0.00    +0.000 NA
ATOM      4  C   UNL     1      45.593   4.895  13.184  0.00  0.00    +0.000 A 
ATOM      5  N   UNL     1      44.700   3.929  13.546  0.00  0.00    +0.000 NA
ATOM      6  C   UNL     1      44.040   3.645  12.438  0.00  0.00    +0.000 A 
ATOM      7  N   UNL     1      44.447   4.430  11.389  0.00  0.00    +0.000 N 
ATOM      8  C   UNL     1      45.478   5.213  11.835  0.00  0.00    +0.000 A 
ATOM      9  C   UNL     1      46.314   6.158  11.233  0.00  0.00    +0.000 A 
ENDROOT
BRANCH   1  10
ATOM     10  C   UNL     1      48.212   7.787  11.547  0.00  0.00    +0.000 C 
BRANCH  10  11
ATOM     11  C   UNL     1      49.321   8.103  12.553  0.00  0.00    +0.000 C 
BRANCH  11  12
ATOM     12  N   UNL     1      50.539   7.362  12.236  0.00  0.00    +0.000 NA
ATOM     13  H   UNL     1      50.714   6.674  12.969  0.00  0.00    +0.000 HD
ATOM     14  H   UNL     1      51.341   7.992  12.246  0.00  0.00    +0.000 HD
ENDBRANCH  11  12
ENDBRANCH  10  11
ENDBRANCH   1  10
BRANCH   7  15
ATOM     15  C   UNL     1      43.920   4.410  10.027  0.00  0.00    +0.000 C 
BRANCH  15  16
ATOM     16  C   UNL     1      44.816   3.657   9.082  0.00  0.00    +0.000 A 
ATOM     17  C   UNL     1      45.540   4.310   8.079  0.00  0.00    +0.000 A 
ATOM     18  C   UNL     1      46.453   3.595   7.308  0.00  0.00    +0.000 A 
ATOM     19  C   UNL     1      46.583   2.239   7.547  0.00  0.00    +0.000 A 
ATOM     20 CL   UNL     1      47.735   1.302   6.693  0.00  0.00    +0.000 Cl
ATOM     21  N   UNL     1      45.856   1.554   8.453  0.00  0.00    +0.000 NA
ATOM     22  C   UNL     1      44.990   2.278   9.199  0.00  0.00    +0.000 A 
ENDBRANCH  15  16
ENDBRANCH   7  15
TORSDOF 5
ENDMDL
MODEL 3
REMARK VINA RESULT:    -7.184      3.025      6.301
REMARK INTER + INTRA:          -9.639
REMARK INTER:                  -9.072
REMARK INTRA:                  -0.567
REMARK UNBOUND:                -0.565
REMARK  Name = 
REMARK  5 active torsions:
REMARK  status: ('A' for Active; 'I' for Inactive)
REMARK    1  A    between atoms: N_1  and  C_2
REMARK    2  A    between atoms: C_2  and  C_3
REMARK    3  A    between atoms: C_3  and  C_4
REMARK    4  A    between atoms: N_10  and  C_11
REMARK    5  A    between atoms: C_11  and  C_12
REMARK                            x       y       z     vdW  Elec       q    Type
REMARK                         _______ _______ _______ _____ _____    ______ ____
ROOT
ATOM      1  C   UNL     1      45.161   7.333  11.792  0.00  0.00    +0.000 A 
ATOM      2  C   UNL     1      45.879   7.197  12.981  0.00  0.00    +0.000 A 
ATOM      3  N   UNL     1      46.216   6.035  13.577  0.00  0.00    +0.000 NA
ATOM      4  C   UNL     1      45.801   4.933  12.918  0.00  0.00    +0.000 A 
ATOM      5  N   UNL     1      46.047   3.650  13.310  0.00  0.00    +0.000 NA
ATOM      6  C   UNL     1      45.489   2.899  12.377  0.00  0.00    +0.000 A 
ATOM      7  N   UNL     1      44.854   3.656  11.427  0.00  0.00    +0.000 N 
ATOM      8  C   UNL     1      45.079   4.972  11.730  0.00  0.00    +0.000 A 
ATOM      9  C   UNL     1      44.738   6.185  11.122  0.00  0.00    +0.000 A 
ENDROOT
BRANCH   1  10
ATOM     10  C   UNL     1      44.859   8.700  11.236  0.00  0.00    +0.000 C 
BRANCH  10  11
ATOM     11  C   UNL     1      45.486   9.811  12.082  0.00  0.00    +0.000 C 
BRANCH  11  12
ATOM     12  N   UNL     1      44.613  10.980  12.137  0.00  0.00    +0.000 NA
ATOM     13  H   UNL     1      43.856  10.866  11.463  0.00  0.00    +0.000 HD
ATOM     14  H   UNL     1      45.127  11.811  11.844  0.00  0.00    +0.000 HD
ENDBRANCH  11  12
ENDBRANCH  10  11
ENDBRANCH   1  10
BRANCH   7  15
ATOM     15  C   UNL     1      44.111   3.164  10.269  0.00  0.00    +0.000 C 
BRANCH  15  16
ATOM     16  C   UNL     1      45.001   2.937   9.078  0.00  0.00    +0.000 A 
ATOM     17  C   UNL     1      45.356   3.980   8.216  0.00  0.00    +0.000 A 
ATOM     18  C   UNL     1      46.281   3.754   7.200  0.00  0.00    +0.000 A 
ATOM     19  C   UNL     1      46.794   2.477   7.062  0.00  0.00    +0.000 A 
ATOM     20 CL   UNL     1      47.991   2.133   5.885  0.00  0.00    +0.000 Cl
ATOM     21  N   UNL     1      46.430   1.426   7.822  0.00  0.00    +0.000 NA
ATOM     22  C   UNL     1      45.543   1.679   8.811  0.00  0.00    +0.000 A 
ENDBRANCH  15  16
ENDBRANCH   7  15
TORSDOF 5
ENDMDL
MODEL 4
REMARK VINA RESULT:    -7.063      2.918      6.468
REMARK INTER + INTRA:          -9.487
REMARK INTER:                  -9.022
REMARK INTRA:                  -0.464
REMARK UNBOUND:                -0.565
REMARK  Name = 
REMARK  5 active torsions:
REMARK  status: ('A' for Active; 'I' for Inactive)
REMARK    1  A    between atoms: N_1  and  C_2
REMARK    2  A    between atoms: C_2  and  C_3
REMARK    3  A    between atoms: C_3  and  C_4
REMARK    4  A    between atoms: N_10  and  C_11
REMARK    5  A    between atoms: C_11  and  C_12
REMARK                            x       y       z     vdW  Elec       q    Type
REMARK                         _______ _______ _______ _____ _____    ______ ____
ROOT
ATOM      1  C   UNL     1      46.963   4.500  14.134  0.00  0.00    +0.000 A 
ATOM      2  C   UNL     1      47.420   5.810  14.282  0.00  0.00    +0.000 A 
ATOM      3  N   UNL     1      47.053   6.868  13.529  0.00  0.00    +0.000 NA
ATOM      4  C   UNL     1      46.156   6.578  12.564  0.00  0.00    +0.000 A 
ATOM      5  N   UNL     1      45.617   7.486  11.700  0.00  0.00    +0.000 NA
ATOM      6  C   UNL     1      44.781   6.787  10.953  0.00  0.00    +0.000 A 
ATOM      7  N   UNL     1      44.801   5.456  11.277  0.00  0.00    +0.000 N 
ATOM      8  C   UNL     1      45.647   5.303  12.343  0.00  0.00    +0.000 A 
ATOM      9  C   UNL     1      46.035   4.215  13.132  0.00  0.00    +0.000 A 
ENDROOT
BRANCH   1  10
ATOM     10  C   UNL     1      47.455   3.413  15.054  0.00  0.00    +0.000 C 
BRANCH  10  11
ATOM     11  C   UNL     1      47.588   3.905  16.497  0.00  0.00    +0.000 C 
BRANCH  11  12
ATOM     12  N   UNL     1      46.636   3.223  17.370  0.00  0.00    +0.000 NA
ATOM     13  H   UNL     1      47.027   3.162  18.310  0.00  0.00    +0.000 HD
ATOM     14  H   UNL     1      46.506   2.262  17.057  0.00  0.00    +0.000 HD
ENDBRANCH  11  12
ENDBRANCH  10  11
ENDBRANCH   1  10
BRANCH   7  15
ATOM     15  C   UNL     1      44.030   4.390  10.644  0.00  0.00    +0.000 C 
BRANCH  15  16
ATOM     16  C   UNL     1      44.814   3.678   9.575  0.00  0.00    +0.000 A 
ATOM     17  C   UNL     1      45.454   4.377   8.546  0.00  0.00    +0.000 A 
ATOM     18  C   UNL     1      46.272   3.693   7.650  0.00  0.00    +0.000 A 
ATOM     19  C   UNL     1      46.394   2.324   7.799  0.00  0.00    +0.000 A 
ATOM     20 CL   UNL     1      47.439   1.419   6.785  0.00  0.00    +0.000 Cl
ATOM     21  N   UNL     1      45.743   1.599   8.730  0.00  0.00    +0.000 NA
ATOM     22  C   UNL     1      44.969   2.292   9.596  0.00  0.00    +0.000 A 
ENDBRANCH  15  16
ENDBRANCH   7  15
TORSDOF 5
ENDMDL
MODEL 5
REMARK VINA RESULT:    -5.908      3.765      6.278
REMARK INTER + INTRA:          -8.027
REMARK INTER:                  -7.652
REMARK INTRA:                  -0.375
REMARK UNBOUND:                -0.565
REMARK  Name = 
REMARK  5 active torsions:
REMARK  status: ('A' for Active; 'I' for Inactive)
REMARK    1  A    between atoms: N_1  and  C_2
REMARK    2  A    between atoms: C_2  and  C_3
REMARK    3  A    between atoms: C_3  and  C_4
REMARK    4  A    between atoms: N_10  and  C_11
REMARK    5  A    between atoms: C_11  and  C_12
REMARK                            x       y       z     vdW  Elec       q    Type
REMARK                         _______ _______ _______ _____ _____    ______ ____
ROOT
ATOM      1  C   UNL     1      45.650   5.019  12.194  0.00  0.00    +0.000 A 
ATOM      2  C   UNL     1      46.259   6.104  11.560  0.00  0.00    +0.000 A 
ATOM      3  N   UNL     1      47.228   6.885  12.081  0.00  0.00    +0.000 NA
ATOM      4  C   UNL     1      47.612   6.538  13.326  0.00  0.00    +0.000 A 
ATOM      5  N   UNL     1      48.592   7.159  14.044  0.00  0.00    +0.000 NA
ATOM      6  C   UNL     1      48.654   6.491  15.182  0.00  0.00    +0.000 A 
ATOM      7  N   UNL     1      47.715   5.493  15.237  0.00  0.00    +0.000 N 
ATOM      8  C   UNL     1      47.061   5.475  14.034  0.00  0.00    +0.000 A 
ATOM      9  C   UNL     1      46.058   4.672  13.482  0.00  0.00    +0.000 A 
ENDROOT
BRANCH   1  10
ATOM     10  C   UNL     1      44.580   4.228  11.489  0.00  0.00    +0.000 C 
BRANCH  10  11
ATOM     11  C   UNL     1      44.065   3.072  12.351  0.00  0.00    +0.000 C 
BRANCH  11  12
ATOM     12  N   UNL     1      43.039   2.312  11.644  0.00  0.00    +0.000 NA
ATOM     13  H   UNL     1      42.153   2.399  12.142  0.00  0.00    +0.000 HD
ATOM     14  H   UNL     1      43.272   1.319  11.657  0.00  0.00    +0.000 HD
ENDBRANCH  11  12
ENDBRANCH  10  11
ENDBRANCH   1  10
BRANCH   7  15
ATOM     15  C   UNL     1      47.478   4.576  16.348  0.00  0.00    +0.000 C 
BRANCH  15  16
ATOM     16  C   UNL     1      48.677   3.715  16.641  0.00  0.00    +0.000 A 
ATOM     17  C   UNL     1      49.684   4.132  17.518  0.00  0.00    +0.000 A 
ATOM     18  C   UNL     1      50.711   3.255  17.858  0.00  0.00    +0.000 A 
ATOM     19  C   UNL     1      50.711   1.999  17.279  0.00  0.00    +0.000 A 
ATOM     20 CL   UNL     1      51.897   0.836  17.700  0.00  0.00    +0.000 Cl
ATOM     21  N   UNL     1      49.803   1.579  16.376  0.00  0.00    +0.000 NA
ATOM     22  C   UNL     1      48.807   2.445  16.078  0.00  0.00    +0.000 A 
ENDBRANCH  15  16
ENDBRANCH   7  15
TORSDOF 5
ENDMDL
MODEL 6
REMARK VINA RESULT:    -5.654      2.442      4.210
REMARK INTER + INTRA:          -7.707
REMARK INTER:                  -7.167
REMARK INTRA:                  -0.540
REMARK UNBOUND:                -0.565
REMARK  Name = 
REMARK  5 active torsions:
REMARK  status: ('A' for Active; 'I' for Inactive)
REMARK    1  A    between atoms: N_1  and  C_2
REMARK    2  A    between atoms: C_2  and  C_3
REMARK    3  A    between atoms: C_3  and  C_4
REMARK    4  A    between atoms: N_10  and  C_11
REMARK    5  A    between atoms: C_11  and  C_12
REMARK                            x       y       z     vdW  Elec       q    Type
REMARK                         _______ _______ _______ _____ _____    ______ ____
ROOT
ATOM      1  C   UNL     1      44.333   4.039  10.961  0.00  0.00    +0.000 A 
ATOM      2  C   UNL     1      43.339   5.005  10.801  0.00  0.00    +0.000 A 
ATOM      3  N   UNL     1      43.407   6.289  11.210  0.00  0.00    +0.000 NA
ATOM      4  C   UNL     1      44.565   6.617  11.819  0.00  0.00    +0.000 A 
ATOM      5  N   UNL     1      44.875   7.859  12.291  0.00  0.00    +0.000 NA
ATOM      6  C   UNL     1      46.096   7.740  12.780  0.00  0.00    +0.000 A 
ATOM      7  N   UNL     1      46.560   6.454  12.681  0.00  0.00    +0.000 N 
ATOM      8  C   UNL     1      45.608   5.721  12.024  0.00  0.00    +0.000 A 
ATOM      9  C   UNL     1      45.526   4.393  11.593  0.00  0.00    +0.000 A 
ENDROOT
BRANCH   1  10
ATOM     10  C   UNL     1      44.125   2.639  10.447  0.00  0.00    +0.000 C 
BRANCH  10  11
ATOM     11  C   UNL     1      44.586   2.490   8.995  0.00  0.00    +0.000 C 
BRANCH  11  12
ATOM     12  N   UNL     1      45.572   1.421   8.868  0.00  0.00    +0.000 NA
ATOM     13  H   UNL     1      45.518   0.814   9.686  0.00  0.00    +0.000 HD
ATOM     14  H   UNL     1      46.513   1.814   8.871  0.00  0.00    +0.000 HD
ENDBRANCH  11  12
ENDBRANCH  10  11
ENDBRANCH   1  10
BRANCH   7  15
ATOM     15  C   UNL     1      47.852   5.953  13.141  0.00  0.00    +0.000 C 
BRANCH  15  16
ATOM     16  C   UNL     1      47.834   5.591  14.601  0.00  0.00    +0.000 A 
ATOM     17  C   UNL     1      47.106   4.495  15.077  0.00  0.00    +0.000 A 
ATOM     18  C   UNL     1      47.216   4.119  16.413  0.00  0.00    +0.000 A 
ATOM     19  C   UNL     1      48.028   4.878  17.236  0.00  0.00    +0.000 A 
ATOM     20 CL   UNL     1      48.275   4.439  18.874  0.00  0.00    +0.000 Cl
ATOM     21  N   UNL     1      48.692   5.982  16.840  0.00  0.00    +0.000 NA
ATOM     22  C   UNL     1      48.580   6.313  15.533  0.00  0.00    +0.000 A 
ENDBRANCH  15  16
ENDBRANCH   7  15
TORSDOF 5
ENDMDL
MODEL 7
REMARK VINA RESULT:    -5.651      2.931      6.076
REMARK INTER + INTRA:          -7.704
REMARK INTER:                  -7.377
REMARK INTRA:                  -0.327
REMARK UNBOUND:                -0.565
REMARK  Name = 
REMARK  5 active torsions:
REMARK  status: ('A' for Active; 'I' for Inactive)
REMARK    1  A    between atoms: N_1  and  C_2
REMARK    2  A    between atoms: C_2  and  C_3
REMARK    3  A    between atoms: C_3  and  C_4
REMARK    4  A    between atoms: N_10  and  C_11
REMARK    5  A    between atoms: C_11  and  C_12
REMARK                            x       y       z     vdW  Elec       q    Type
REMARK                         _______ _______ _______ _____ _____    ______ ____
ROOT
ATOM      1  C   UNL     1      46.768   8.148  12.176  0.00  0.00    +0.000 A 
ATOM      2  C   UNL     1      45.797   9.142  12.047  0.00  0.00    +0.000 A 
ATOM      3  N   UNL     1      44.504   8.951  11.712  0.00  0.00    +0.000 NA
ATOM      4  C   UNL     1      44.171   7.661  11.500  0.00  0.00    +0.000 A 
ATOM      5  N   UNL     1      42.921   7.220  11.179  0.00  0.00    +0.000 NA
ATOM      6  C   UNL     1      43.038   5.907  11.089  0.00  0.00    +0.000 A 
ATOM      7  N   UNL     1      44.330   5.497  11.293  0.00  0.00    +0.000 N 
ATOM      8  C   UNL     1      45.071   6.606  11.604  0.00  0.00    +0.000 A 
ATOM      9  C   UNL     1      46.408   6.818  11.954  0.00  0.00    +0.000 A 
ENDROOT
BRANCH   1  10
ATOM     10  C   UNL     1      48.178   8.505  12.564  0.00  0.00    +0.000 C 
BRANCH  10  11
ATOM     11  C   UNL     1      48.967   7.282  13.036  0.00  0.00    +0.000 C 
BRANCH  11  12
ATOM     12  N   UNL     1      50.119   7.038  12.173  0.00  0.00    +0.000 NA
ATOM     13  H   UNL     1      50.937   6.841  12.750  0.00  0.00    +0.000 HD
ATOM     14  H   UNL     1      50.344   7.883  11.647  0.00  0.00    +0.000 HD
ENDBRANCH  11  12
ENDBRANCH  10  11
ENDBRANCH   1  10
BRANCH   7  15
ATOM     15  C   UNL     1      44.831   4.126  11.241  0.00  0.00    +0.000 C 
BRANCH  15  16
ATOM     16  C   UNL     1      45.373   3.770   9.884  0.00  0.00    +0.000 A 
ATOM     17  C   UNL     1      45.430   2.443   9.441  0.00  0.00    +0.000 A 
ATOM     18  C   UNL     1      45.820   2.167   8.133  0.00  0.00    +0.000 A 
ATOM     19  C   UNL     1      46.173   3.231   7.323  0.00  0.00    +0.000 A 
ATOM     20 CL   UNL     1      46.593   2.984   5.680  0.00  0.00    +0.000 Cl
ATOM     21  N   UNL     1      46.201   4.517   7.726  0.00  0.00    +0.000 NA
ATOM     22  C   UNL     1      45.801   4.757   8.996  0.00  0.00    +0.000 A 
ENDBRANCH  15  16
ENDBRANCH   7  15
TORSDOF 5
ENDMDL
MODEL 8
REMARK VINA RESULT:    -5.435      3.622      5.955
REMARK INTER + INTRA:          -7.430
REMARK INTER:                  -7.164
REMARK INTRA:                  -0.266
REMARK UNBOUND:                -0.565
REMARK  Name = 
REMARK  5 active torsions:
REMARK  status: ('A' for Active; 'I' for Inactive)
REMARK    1  A    between atoms: N_1  and  C_2
REMARK    2  A    between atoms: C_2  and  C_3
REMARK    3  A    between atoms: C_3  and  C_4
REMARK    4  A    between atoms: N_10  and  C_11
REMARK    5  A    between atoms: C_11  and  C_12
REMARK                            x       y       z     vdW  Elec       q    Type
REMARK                         _______ _______ _______ _____ _____    ______ ____
ROOT
ATOM      1  C   UNL     1      45.264   4.858  11.659  0.00  0.00    +0.000 A 
ATOM      2  C   UNL     1      45.766   6.066  11.171  0.00  0.00    +0.000 A 
ATOM      3  N   UNL     1      46.678   6.850  11.780  0.00  0.00    +0.000 NA
ATOM      4  C   UNL     1      47.118   6.375  12.963  0.00  0.00    +0.000 A 
ATOM      5  N   UNL     1      48.059   6.977  13.746  0.00  0.00    +0.000 NA
ATOM      6  C   UNL     1      48.202   6.171  14.783  0.00  0.00    +0.000 A 
ATOM      7  N   UNL     1      47.352   5.098  14.714  0.00  0.00    +0.000 N 
ATOM      8  C   UNL     1      46.673   5.184  13.528  0.00  0.00    +0.000 A 
ATOM      9  C   UNL     1      45.729   4.379  12.884  0.00  0.00    +0.000 A 
ENDROOT
BRANCH   1  10
ATOM     10  C   UNL     1      44.248   4.079  10.867  0.00  0.00    +0.000 C 
BRANCH  10  11
ATOM     11  C   UNL     1      43.124   3.539  11.755  0.00  0.00    +0.000 C 
BRANCH  11  12
ATOM     12  N   UNL     1      43.072   2.081  11.702  0.00  0.00    +0.000 NA
ATOM     13  H   UNL     1      42.538   1.793  10.882  0.00  0.00    +0.000 HD
ATOM     14  H   UNL     1      42.561   1.723  12.509  0.00  0.00    +0.000 HD
ENDBRANCH  11  12
ENDBRANCH  10  11
ENDBRANCH   1  10
BRANCH   7  15
ATOM     15  C   UNL     1      47.217   4.024  15.695  0.00  0.00    +0.000 C 
BRANCH  15  16
ATOM     16  C   UNL     1      47.873   4.365  17.005  0.00  0.00    +0.000 A 
ATOM     17  C   UNL     1      47.225   5.143  17.970  0.00  0.00    +0.000 A 
ATOM     18  C   UNL     1      47.815   5.331  19.218  0.00  0.00    +0.000 A 
ATOM     19  C   UNL     1      49.053   4.758  19.443  0.00  0.00    +0.000 A 
ATOM     20 CL   UNL     1      49.813   4.880  20.974  0.00  0.00    +0.000 Cl
ATOM     21  N   UNL     1      49.747   4.061  18.521  0.00  0.00    +0.000 NA
ATOM     22  C   UNL     1      49.142   3.881  17.324  0.00  0.00    +0.000 A 
ENDBRANCH  15  16
ENDBRANCH   7  15
TORSDOF 5
ENDMDL
MODEL 9
REMARK VINA RESULT:    -5.428      3.629      5.381
REMARK INTER + INTRA:          -7.422
REMARK INTER:                  -6.855
REMARK INTRA:                  -0.566
REMARK UNBOUND:                -0.565
REMARK  Name = 
REMARK  5 active torsions:
REMARK  status: ('A' for Active; 'I' for Inactive)
REMARK    1  A    between atoms: N_1  and  C_2
REMARK    2  A    between atoms: C_2  and  C_3
REMARK    3  A    between atoms: C_3  and  C_4
REMARK    4  A    between atoms: N_10  and  C_11
REMARK    5  A    between atoms: C_11  and  C_12
REMARK                            x       y       z     vdW  Elec       q    Type
REMARK                         _______ _______ _______ _____ _____    ______ ____
ROOT
ATOM      1  C   UNL     1      45.527   5.134  11.841  0.00  0.00    +0.000 A 
ATOM      2  C   UNL     1      45.526   4.042  12.712  0.00  0.00    +0.000 A 
ATOM      3  N   UNL     1      46.263   3.922  13.835  0.00  0.00    +0.000 NA
ATOM      4  C   UNL     1      47.052   4.985  14.097  0.00  0.00    +0.000 A 
ATOM      5  N   UNL     1      47.864   5.105  15.187  0.00  0.00    +0.000 NA
ATOM      6  C   UNL     1      48.427   6.293  15.060  0.00  0.00    +0.000 A 
ATOM      7  N   UNL     1      48.040   6.918  13.903  0.00  0.00    +0.000 N 
ATOM      8  C   UNL     1      47.120   6.113  13.286  0.00  0.00    +0.000 A 
ATOM      9  C   UNL     1      46.348   6.225  12.126  0.00  0.00    +0.000 A 
ENDROOT
BRANCH   1  10
ATOM     10  C   UNL     1      44.644   5.137  10.621  0.00  0.00    +0.000 C 
BRANCH  10  11
ATOM     11  C   UNL     1      43.159   5.172  10.992  0.00  0.00    +0.000 C 
BRANCH  11  12
ATOM     12  N   UNL     1      42.675   6.547  11.076  0.00  0.00    +0.000 NA
ATOM     13  H   UNL     1      41.691   6.542  11.343  0.00  0.00    +0.000 HD
ATOM     14  H   UNL     1      42.714   6.986  10.156  0.00  0.00    +0.000 HD
ENDBRANCH  11  12
ENDBRANCH  10  11
ENDBRANCH   1  10
BRANCH   7  15
ATOM     15  C   UNL     1      48.482   8.225  13.425  0.00  0.00    +0.000 C 
BRANCH  15  16
ATOM     16  C   UNL     1      49.843   8.167  12.786  0.00  0.00    +0.000 A 
ATOM     17  C   UNL     1      50.018   7.733  11.468  0.00  0.00    +0.000 A 
ATOM     18  C   UNL     1      51.275   7.813  10.874  0.00  0.00    +0.000 A 
ATOM     19  C   UNL     1      52.323   8.294  11.636  0.00  0.00    +0.000 A 
ATOM     20 CL   UNL     1      53.884   8.494  10.958  0.00  0.00    +0.000 Cl
ATOM     21  N   UNL     1      52.218   8.657  12.930  0.00  0.00    +0.000 NA
ATOM     22  C   UNL     1      50.982   8.585  13.475  0.00  0.00    +0.000 A 
ENDBRANCH  15  16
ENDBRANCH   7  15
TORSDOF 5
ENDMDL
