MODEL 1
REMARK VINA RESULT:    -7.729      0.000      0.000
REMARK INTER + INTRA:         -10.412
REMARK INTER:                 -10.214
REMARK INTRA:                  -0.197
REMARK UNBOUND:                -0.197
REMARK  Name = 
REMARK  6 active torsions:
REMARK  status: ('A' for Active; 'I' for Inactive)
REMARK    1  A    between atoms: N_1  and  C_2
REMARK    2  A    between atoms: C_2  and  C_3
REMARK    3  A    between atoms: C_3  and  N_4
REMARK    4  A    between atoms: C_8  and  C_9
REMARK    5  A    between atoms: C_9  and  N_10
REMARK    6  A    between atoms: C_15  and  C_16
REMARK                            x       y       z     vdW  Elec       q    Type
REMARK                         _______ _______ _______ _____ _____    ______ ____
ROOT
ATOM      1  N   UNL     1      43.912   4.322  10.511  0.00  0.00    +0.000 N 
ATOM      2  C   UNL     1      43.503   3.132  11.047  0.00  0.00    +0.000 A 
ATOM      3  N   UNL     1      44.039   2.110  10.417  0.00  0.00    +0.000 NA
ATOM      4  C   UNL     1      44.861   2.657   9.462  0.00  0.00    +0.000 A 
ATOM      5  C   UNL     1      45.616   2.028   8.474  0.00  0.00    +0.000 A 
ATOM      6  C   UNL     1      46.328   2.877   7.642  0.00  0.00    +0.000 A 
ATOM      7  N   UNL     1      46.391   4.237   7.769  0.00  0.00    +0.000 NA
ATOM      8  C   UNL     1      45.673   4.831   8.749  0.00  0.00    +0.000 A 
ATOM      9  C   UNL     1      44.865   4.045   9.559  0.00  0.00    +0.000 A 
ENDROOT
BRANCH   6  10
ATOM     10  C   UNL     1      47.057   2.296   6.463  0.00  0.00    +0.000 C 
ATOM     11  N   UNL     1      47.136   3.103   5.359  0.00  0.00    +0.000 N 
ATOM     12  O   UNL     1      47.532   1.168   6.465  0.00  0.00    +0.000 OA
ATOM     13  H   UNL     1      46.681   4.008   5.364  0.00  0.00    +0.000 HD
ATOM     14  H   UNL     1      47.560   2.744   4.515  0.00  0.00    +0.000 HD
ENDBRANCH   6  10
BRANCH   1  15
ATOM     15  C   UNL     1      43.365   5.626  10.857  0.00  0.00    +0.000 C 
BRANCH  15  20
ATOM     16  N   UNL     1      46.269   6.286  13.320  0.00  0.00    +0.000 NA
ATOM     17  C   UNL     1      46.738   7.543  12.721  0.00  0.00    +0.000 C 
ATOM     18  C   UNL     1      45.561   8.452  12.410  0.00  0.00    +0.000 C 
ATOM     19  C   UNL     1      44.600   7.778  11.448  0.00  0.00    +0.000 C 
ATOM     20  C   UNL     1      44.164   6.390  11.943  0.00  0.00    +0.000 C 
ATOM     21  C   UNL     1      45.394   5.557  12.381  0.00  0.00    +0.000 C 
BRANCH  16  22
ATOM     22  C   UNL     1      47.410   5.443  13.745  0.00  0.00    +0.000 C 
BRANCH  22  23
ATOM     23  C   UNL     1      47.075   4.504  14.929  0.00  0.00    +0.000 C 
BRANCH  23  24
ATOM     24  N   UNL     1      47.502   3.124  14.693  0.00  0.00    +0.000 NA
ATOM     25  H   UNL     1      46.849   2.695  14.036  0.00  0.00    +0.000 HD
ATOM     26  H   UNL     1      47.414   2.592  15.557  0.00  0.00    +0.000 HD
ENDBRANCH  23  24
ENDBRANCH  22  23
ENDBRANCH  16  22
ENDBRANCH  15  20
ENDBRANCH   1  15
TORSDOF 6
ENDMDL
MODEL 2
REMARK VINA RESULT:    -7.664      2.702      6.728
REMARK INTER + INTRA:         -10.326
REMARK INTER:                 -10.103
REMARK INTRA:                  -0.223
REMARK UNBOUND:                -0.197
REMARK  Name = 
REMARK  6 active torsions:
REMARK  status: ('A' for Active; 'I' for Inactive)
REMARK    1  A    between atoms: N_1  and  C_2
REMARK    2  A    between atoms: C_2  and  C_3
REMARK    3  A    between atoms: C_3  and  N_4
REMARK    4  A    between atoms: C_8  and  C_9
REMARK    5  A    between atoms: C_9  and  N_10
REMARK    6  A    between atoms: C_15  and  C_16
REMARK                            x       y       z     vdW  Elec       q    Type
REMARK                         _______ _______ _______ _____ _____    ______ ____
ROOT
ATOM      1  N   UNL     1      45.128   5.639  11.081  0.00  0.00    +0.000 N 
ATOM      2  C   UNL     1      45.836   6.757  10.734  0.00  0.00    +0.000 A 
ATOM      3  N   UNL     1      46.766   7.033  11.620  0.00  0.00    +0.000 NA
ATOM      4  C   UNL     1      46.689   6.033  12.559  0.00  0.00    +0.000 A 
ATOM      5  C   UNL     1      47.398   5.873  13.748  0.00  0.00    +0.000 A 
ATOM      6  C   UNL     1      47.062   4.754  14.492  0.00  0.00    +0.000 A 
ATOM      7  N   UNL     1      46.164   3.794  14.114  0.00  0.00    +0.000 NA
ATOM      8  C   UNL     1      45.503   3.949  12.945  0.00  0.00    +0.000 A 
ATOM      9  C   UNL     1      45.725   5.097  12.196  0.00  0.00    +0.000 A 
ENDROOT
BRANCH   6  10
ATOM     10  C   UNL     1      47.674   4.576  15.854  0.00  0.00    +0.000 C 
ATOM     11  N   UNL     1      47.006   3.727  16.697  0.00  0.00    +0.000 N 
ATOM     12  O   UNL     1      48.687   5.164  16.210  0.00  0.00    +0.000 OA
ATOM     13  H   UNL     1      46.137   3.302  16.398  0.00  0.00    +0.000 HD
ATOM     14  H   UNL     1      47.335   3.616  17.646  0.00  0.00    +0.000 HD
ENDBRANCH   6  10
BRANCH   1  15
ATOM     15  C   UNL     1      43.921   5.173  10.415  0.00  0.00    +0.000 C 
BRANCH  15  20
ATOM     16  N   UNL     1      45.830   3.186   7.704  0.00  0.00    +0.000 NA
ATOM     17  C   UNL     1      45.932   1.919   8.441  0.00  0.00    +0.000 C 
ATOM     18  C   UNL     1      44.599   1.571   9.080  0.00  0.00    +0.000 C 
ATOM     19  C   UNL     1      44.159   2.661  10.039  0.00  0.00    +0.000 C 
ATOM     20  C   UNL     1      44.155   4.048   9.376  0.00  0.00    +0.000 C 
ATOM     21  C   UNL     1      45.484   4.293   8.618  0.00  0.00    +0.000 C 
BRANCH  16  22
ATOM     22  C   UNL     1      47.083   3.476   6.971  0.00  0.00    +0.000 C 
BRANCH  22  23
ATOM     23  C   UNL     1      48.024   2.252   6.851  0.00  0.00    +0.000 C 
BRANCH  23  24
ATOM     24  N   UNL     1      48.379   1.949   5.464  0.00  0.00    +0.000 NA
ATOM     25  H   UNL     1      47.739   2.456   4.851  0.00  0.00    +0.000 HD
ATOM     26  H   UNL     1      48.208   0.960   5.282  0.00  0.00    +0.000 HD
ENDBRANCH  23  24
ENDBRANCH  22  23
ENDBRANCH  16  22
ENDBRANCH  15  20
ENDBRANCH   1  15
TORSDOF 6
ENDMDL
MODEL 3
REMARK VINA RESULT:    -7.333      2.709      6.285
REMARK INTER + INTRA:          -9.888
REMARK INTER:                  -9.839
REMARK INTRA:                  -0.049
REMARK UNBOUND:                -0.197
REMARK  Name = 
REMARK  6 active torsions:
REMARK  status: ('A' for Active; 'I' for Inactive)
REMARK    1  A    between atoms: N_1  and  C_2
REMARK    2  A    between atoms: C_2  and  C_3
REMARK    3  A    between atoms: C_3  and  N_4
REMARK    4  A    between atoms: C_8  and  C_9
REMARK    5  A    between atoms: C_9  and  N_10
REMARK    6  A    between atoms: C_15  and  C_16
REMARK                            x       y       z     vdW  Elec       q    Type
REMARK                         _______ _______ _______ _____ _____    ______ ____
ROOT
ATOM      1  N   UNL     1      44.560   4.975  11.643  0.00  0.00    +0.000 N 
ATOM      2  C   UNL     1      44.350   4.037  12.617  0.00  0.00    +0.000 A 
ATOM      3  N   UNL     1      45.303   4.059  13.522  0.00  0.00    +0.000 NA
ATOM      4  C   UNL     1      46.144   5.079  13.145  0.00  0.00    +0.000 A 
ATOM      5  C   UNL     1      47.348   5.491  13.711  0.00  0.00    +0.000 A 
ATOM      6  C   UNL     1      47.972   6.549  13.070  0.00  0.00    +0.000 A 
ATOM      7  N   UNL     1      47.465   7.234  12.002  0.00  0.00    +0.000 NA
ATOM      8  C   UNL     1      46.283   6.839  11.479  0.00  0.00    +0.000 A 
ATOM      9  C   UNL     1      45.651   5.726  12.017  0.00  0.00    +0.000 A 
ENDROOT
BRANCH   6  10
ATOM     10  C   UNL     1      49.342   6.969  13.526  0.00  0.00    +0.000 C 
ATOM     11  N   UNL     1      50.190   7.395  12.538  0.00  0.00    +0.000 N 
ATOM     12  O   UNL     1      49.699   6.916  14.696  0.00  0.00    +0.000 OA
ATOM     13  H   UNL     1      49.890   7.370  11.571  0.00  0.00    +0.000 HD
ATOM     14  H   UNL     1      51.144   7.631  12.775  0.00  0.00    +0.000 HD
ENDBRANCH   6  10
BRANCH   1  15
ATOM     15  C   UNL     1      43.795   5.086  10.411  0.00  0.00    +0.000 C 
BRANCH  15  20
ATOM     16  N   UNL     1      45.837   3.231   7.704  0.00  0.00    +0.000 NA
ATOM     17  C   UNL     1      45.998   1.964   8.429  0.00  0.00    +0.000 C 
ATOM     18  C   UNL     1      44.679   1.539   9.049  0.00  0.00    +0.000 C 
ATOM     19  C   UNL     1      44.171   2.595  10.014  0.00  0.00    +0.000 C 
ATOM     20  C   UNL     1      44.100   3.986   9.364  0.00  0.00    +0.000 C 
ATOM     21  C   UNL     1      45.422   4.309   8.624  0.00  0.00    +0.000 C 
BRANCH  16  22
ATOM     22  C   UNL     1      47.081   3.595   6.988  0.00  0.00    +0.000 C 
BRANCH  22  23
ATOM     23  C   UNL     1      47.315   2.771   5.699  0.00  0.00    +0.000 C 
BRANCH  23  24
ATOM     24  N   UNL     1      48.434   1.836   5.823  0.00  0.00    +0.000 NA
ATOM     25  H   UNL     1      48.200   0.986   5.309  0.00  0.00    +0.000 HD
ATOM     26  H   UNL     1      48.527   1.551   6.798  0.00  0.00    +0.000 HD
ENDBRANCH  23  24
ENDBRANCH  22  23
ENDBRANCH  16  22
ENDBRANCH  15  20
ENDBRANCH   1  15
TORSDOF 6
ENDMDL
MODEL 4
REMARK VINA RESULT:    -6.490      3.648      5.864
REMARK INTER + INTRA:          -8.774
REMARK INTER:                  -8.359
REMARK INTRA:                  -0.415
REMARK UNBOUND:                -0.197
REMARK  Name = 
REMARK  6 active torsions:
REMARK  status: ('A' for Active; 'I' for Inactive)
REMARK    1  A    between atoms: N_1  and  C_2
REMARK    2  A    between atoms: C_2  and  C_3
REMARK    3  A    between atoms: C_3  and  N_4
REMARK    4  A    between atoms: C_8  and  C_9
REMARK    5  A    between atoms: C_9  and  N_10
REMARK    6  A    between atoms: C_15  and  C_16
REMARK                            x       y       z     vdW  Elec       q    Type
REMARK                         _______ _______ _______ _____ _____    ______ ____
ROOT
ATOM      1  N   UNL     1      47.499   7.018  13.633  0.00  0.00    +0.000 N 
ATOM      2  C   UNL     1      46.813   8.175  13.386  0.00  0.00    +0.000 A 
ATOM      3  N   UNL     1      45.613   7.932  12.908  0.00  0.00    +0.000 NA
ATOM      4  C   UNL     1      45.498   6.563  12.883  0.00  0.00    +0.000 A 
ATOM      5  C   UNL     1      44.459   5.768  12.405  0.00  0.00    +0.000 A 
ATOM      6  C   UNL     1      44.665   4.401  12.504  0.00  0.00    +0.000 A 
ATOM      7  N   UNL     1      45.750   3.806  13.085  0.00  0.00    +0.000 NA
ATOM      8  C   UNL     1      46.739   4.592  13.568  0.00  0.00    +0.000 A 
ATOM      9  C   UNL     1      46.637   5.968  13.416  0.00  0.00    +0.000 A 
ENDROOT
BRANCH   6  10
ATOM     10  C   UNL     1      43.661   3.468  11.887  0.00  0.00    +0.000 C 
ATOM     11  N   UNL     1      43.659   2.190  12.380  0.00  0.00    +0.000 N 
ATOM     12  O   UNL     1      42.906   3.806  10.985  0.00  0.00    +0.000 OA
ATOM     13  H   UNL     1      44.336   1.920  13.084  0.00  0.00    +0.000 HD
ATOM     14  H   UNL     1      43.049   1.500  11.962  0.00  0.00    +0.000 HD
ENDBRANCH   6  10
BRANCH   1  15
ATOM     15  C   UNL     1      48.908   6.941  13.990  0.00  0.00    +0.000 C 
BRANCH  15  20
ATOM     16  N   UNL     1      48.955   5.764  17.671  0.00  0.00    +0.000 NA
ATOM     17  C   UNL     1      50.413   5.772  17.849  0.00  0.00    +0.000 C 
ATOM     18  C   UNL     1      51.009   7.046  17.276  0.00  0.00    +0.000 C 
ATOM     19  C   UNL     1      50.696   7.169  15.796  0.00  0.00    +0.000 C 
ATOM     20  C   UNL     1      49.191   7.036  15.511  0.00  0.00    +0.000 C 
ATOM     21  C   UNL     1      48.606   5.799  16.237  0.00  0.00    +0.000 C 
BRANCH  16  22
ATOM     22  C   UNL     1      48.346   4.591  18.337  0.00  0.00    +0.000 C 
BRANCH  22  23
ATOM     23  C   UNL     1      47.898   3.485  17.350  0.00  0.00    +0.000 C 
BRANCH  23  24
ATOM     24  N   UNL     1      46.566   2.962  17.656  0.00  0.00    +0.000 NA
ATOM     25  H   UNL     1      46.446   2.965  18.670  0.00  0.00    +0.000 HD
ATOM     26  H   UNL     1      46.517   1.983  17.375  0.00  0.00    +0.000 HD
ENDBRANCH  23  24
ENDBRANCH  22  23
ENDBRANCH  16  22
ENDBRANCH  15  20
ENDBRANCH   1  15
TORSDOF 6
ENDMDL
MODEL 5
REMARK VINA RESULT:    -6.175      3.932      8.196
REMARK INTER + INTRA:          -8.358
REMARK INTER:                  -7.944
REMARK INTRA:                  -0.415
REMARK UNBOUND:                -0.197
REMARK  Name = 
REMARK  6 active torsions:
REMARK  status: ('A' for Active; 'I' for Inactive)
REMARK    1  A    between atoms: N_1  and  C_2
REMARK    2  A    between atoms: C_2  and  C_3
REMARK    3  A    between atoms: C_3  and  N_4
REMARK    4  A    between atoms: C_8  and  C_9
REMARK    5  A    between atoms: C_9  and  N_10
REMARK    6  A    between atoms: C_15  and  C_16
REMARK                            x       y       z     vdW  Elec       q    Type
REMARK                         _______ _______ _______ _____ _____    ______ ____
ROOT
ATOM      1  N   UNL     1      47.100   4.764  14.644  0.00  0.00    +0.000 N 
ATOM      2  C   UNL     1      47.733   5.891  14.195  0.00  0.00    +0.000 A 
ATOM      3  N   UNL     1      48.570   6.363  15.092  0.00  0.00    +0.000 NA
ATOM      4  C   UNL     1      48.512   5.485  16.147  0.00  0.00    +0.000 A 
ATOM      5  C   UNL     1      49.145   5.544  17.387  0.00  0.00    +0.000 A 
ATOM      6  C   UNL     1      48.855   4.500  18.251  0.00  0.00    +0.000 A 
ATOM      7  N   UNL     1      48.073   3.420  17.949  0.00  0.00    +0.000 NA
ATOM      8  C   UNL     1      47.485   3.364  16.732  0.00  0.00    +0.000 A 
ATOM      9  C   UNL     1      47.661   4.425  15.854  0.00  0.00    +0.000 A 
ENDROOT
BRANCH   6  10
ATOM     10  C   UNL     1      49.381   4.553  19.658  0.00  0.00    +0.000 C 
ATOM     11  N   UNL     1      48.570   4.003  20.615  0.00  0.00    +0.000 N 
ATOM     12  O   UNL     1      50.451   5.073  19.949  0.00  0.00    +0.000 OA
ATOM     13  H   UNL     1      47.663   3.635  20.355  0.00  0.00    +0.000 HD
ATOM     14  H   UNL     1      48.841   4.065  21.586  0.00  0.00    +0.000 HD
ENDBRANCH   6  10
BRANCH   1  15
ATOM     15  C   UNL     1      45.989   4.106  13.973  0.00  0.00    +0.000 C 
BRANCH  15  20
ATOM     16  N   UNL     1      44.654   4.310  10.352  0.00  0.00    +0.000 NA
ATOM     17  C   UNL     1      43.425   5.059  10.649  0.00  0.00    +0.000 C 
ATOM     18  C   UNL     1      43.724   6.211  11.593  0.00  0.00    +0.000 C 
ATOM     19  C   UNL     1      44.315   5.701  12.895  0.00  0.00    +0.000 C 
ATOM     20  C   UNL     1      45.533   4.793  12.661  0.00  0.00    +0.000 C 
ATOM     21  C   UNL     1      45.218   3.725  11.585  0.00  0.00    +0.000 C 
BRANCH  16  22
ATOM     22  C   UNL     1      44.404   3.264   9.335  0.00  0.00    +0.000 C 
BRANCH  22  23
ATOM     23  C   UNL     1      45.566   3.092   8.327  0.00  0.00    +0.000 C 
BRANCH  23  24
ATOM     24  N   UNL     1      46.026   4.367   7.775  0.00  0.00    +0.000 NA
ATOM     25  H   UNL     1      46.654   4.170   6.994  0.00  0.00    +0.000 HD
ATOM     26  H   UNL     1      46.595   4.849   8.470  0.00  0.00    +0.000 HD
ENDBRANCH  23  24
ENDBRANCH  22  23
ENDBRANCH  16  22
ENDBRANCH  15  20
ENDBRANCH   1  15
TORSDOF 6
ENDMDL
MODEL 6
REMARK VINA RESULT:    -5.851      4.002      5.898
REMARK INTER + INTRA:          -7.930
REMARK INTER:                  -7.435
REMARK INTRA:                  -0.494
REMARK UNBOUND:                -0.197
REMARK  Name = 
REMARK  6 active torsions:
REMARK  status: ('A' for Active; 'I' for Inactive)
REMARK    1  A    between atoms: N_1  and  C_2
REMARK    2  A    between atoms: C_2  and  C_3
REMARK    3  A    between atoms: C_3  and  N_4
REMARK    4  A    between atoms: C_8  and  C_9
REMARK    5  A    between atoms: C_9  and  N_10
REMARK    6  A    between atoms: C_15  and  C_16
REMARK                            x       y       z     vdW  Elec       q    Type
REMARK                         _______ _______ _______ _____ _____    ______ ____
ROOT
ATOM      1  N   UNL     1      47.804   7.049  13.159  0.00  0.00    +0.000 N 
ATOM      2  C   UNL     1      48.241   6.411  14.288  0.00  0.00    +0.000 A 
ATOM      3  N   UNL     1      47.645   5.251  14.447  0.00  0.00    +0.000 NA
ATOM      4  C   UNL     1      46.820   5.108  13.358  0.00  0.00    +0.000 A 
ATOM      5  C   UNL     1      45.912   4.095  13.059  0.00  0.00    +0.000 A 
ATOM      6  C   UNL     1      45.206   4.261  11.878  0.00  0.00    +0.000 A 
ATOM      7  N   UNL     1      45.390   5.281  10.986  0.00  0.00    +0.000 NA
ATOM      8  C   UNL     1      46.294   6.243  11.278  0.00  0.00    +0.000 A 
ATOM      9  C   UNL     1      46.967   6.185  12.490  0.00  0.00    +0.000 A 
ENDROOT
BRANCH   6  10
ATOM     10  C   UNL     1      44.107   3.292  11.546  0.00  0.00    +0.000 C 
ATOM     11  N   UNL     1      43.782   2.402  12.535  0.00  0.00    +0.000 N 
ATOM     12  O   UNL     1      43.546   3.271  10.458  0.00  0.00    +0.000 OA
ATOM     13  H   UNL     1      44.304   2.402  13.403  0.00  0.00    +0.000 HD
ATOM     14  H   UNL     1      43.094   1.686  12.348  0.00  0.00    +0.000 HD
ENDBRANCH   6  10
BRANCH   1  15
ATOM     15  C   UNL     1      48.126   8.421  12.796  0.00  0.00    +0.000 C 
BRANCH  15  20
ATOM     16  N   UNL     1      51.547   8.089  11.028  0.00  0.00    +0.000 NA
ATOM     17  C   UNL     1      51.693   9.498  10.641  0.00  0.00    +0.000 C 
ATOM     18  C   UNL     1      51.335  10.406  11.805  0.00  0.00    +0.000 C 
ATOM     19  C   UNL     1      49.906  10.166  12.255  0.00  0.00    +0.000 C 
ATOM     20  C   UNL     1      49.634   8.683  12.553  0.00  0.00    +0.000 C 
ATOM     21  C   UNL     1      50.148   7.792  11.395  0.00  0.00    +0.000 C 
BRANCH  16  22
ATOM     22  C   UNL     1      52.013   7.191   9.947  0.00  0.00    +0.000 C 
BRANCH  22  23
ATOM     23  C   UNL     1      53.475   6.714  10.127  0.00  0.00    +0.000 C 
BRANCH  23  24
ATOM     24  N   UNL     1      53.576   5.268  10.321  0.00  0.00    +0.000 NA
ATOM     25  H   UNL     1      52.683   4.846  10.064  0.00  0.00    +0.000 HD
ATOM     26  H   UNL     1      53.699   5.069  11.313  0.00  0.00    +0.000 HD
ENDBRANCH  23  24
ENDBRANCH  22  23
ENDBRANCH  16  22
ENDBRANCH  15  20
ENDBRANCH   1  15
TORSDOF 6
ENDMDL
MODEL 7
REMARK VINA RESULT:    -5.655      3.015      7.097
REMARK INTER + INTRA:          -7.671
REMARK INTER:                  -7.240
REMARK INTRA:                  -0.431
REMARK UNBOUND:                -0.197
REMARK  Name = 
REMARK  6 active torsions:
REMARK  status: ('A' for Active; 'I' for Inactive)
REMARK    1  A    between atoms: N_1  and  C_2
REMARK    2  A    between atoms: C_2  and  C_3
REMARK    3  A    between atoms: C_3  and  N_4
REMARK    4  A    between atoms: C_8  and  C_9
REMARK    5  A    between atoms: C_9  and  N_10
REMARK    6  A    between atoms: C_15  and  C_16
REMARK                            x       y       z     vdW  Elec       q    Type
REMARK                         _______ _______ _______ _____ _____    ______ ____
ROOT
ATOM      1  N   UNL     1      45.121   5.885  11.901  0.00  0.00    +0.000 N 
ATOM      2  C   UNL     1      44.356   6.874  11.346  0.00  0.00    +0.000 A 
ATOM      3  N   UNL     1      44.798   8.067  11.674  0.00  0.00    +0.000 NA
ATOM      4  C   UNL     1      45.919   7.847  12.437  0.00  0.00    +0.000 A 
ATOM      5  C   UNL     1      46.737   8.761  13.099  0.00  0.00    +0.000 A 
ATOM      6  C   UNL     1      47.787   8.207  13.812  0.00  0.00    +0.000 A 
ATOM      7  N   UNL     1      48.104   6.878  13.848  0.00  0.00    +0.000 NA
ATOM      8  C   UNL     1      47.316   6.005  13.180  0.00  0.00    +0.000 A 
ATOM      9  C   UNL     1      46.192   6.486  12.521  0.00  0.00    +0.000 A 
ENDROOT
BRANCH   6  10
ATOM     10  C   UNL     1      48.636   9.104  14.669  0.00  0.00    +0.000 C 
ATOM     11  N   UNL     1      47.995   9.695  15.725  0.00  0.00    +0.000 N 
ATOM     12  O   UNL     1      49.818   9.322  14.436  0.00  0.00    +0.000 OA
ATOM     13  H   UNL     1      47.002   9.545  15.859  0.00  0.00    +0.000 HD
ATOM     14  H   UNL     1      48.498  10.356  16.301  0.00  0.00    +0.000 HD
ENDBRANCH   6  10
BRANCH   1  15
ATOM     15  C   UNL     1      44.794   4.467  11.884  0.00  0.00    +0.000 C 
BRANCH  15  20
ATOM     16  N   UNL     1      45.642   3.499   8.239  0.00  0.00    +0.000 NA
ATOM     17  C   UNL     1      45.462   2.048   8.387  0.00  0.00    +0.000 C 
ATOM     18  C   UNL     1      44.185   1.749   9.152  0.00  0.00    +0.000 C 
ATOM     19  C   UNL     1      44.223   2.381  10.532  0.00  0.00    +0.000 C 
ATOM     20  C   UNL     1      44.541   3.883  10.471  0.00  0.00    +0.000 C 
ATOM     21  C   UNL     1      45.767   4.145   9.561  0.00  0.00    +0.000 C 
BRANCH  16  22
ATOM     22  C   UNL     1      46.813   3.805   7.387  0.00  0.00    +0.000 C 
BRANCH  22  23
ATOM     23  C   UNL     1      47.651   2.556   7.018  0.00  0.00    +0.000 C 
BRANCH  23  24
ATOM     24  N   UNL     1      48.375   2.716   5.757  0.00  0.00    +0.000 NA
ATOM     25  H   UNL     1      48.935   3.567   5.814  0.00  0.00    +0.000 HD
ATOM     26  H   UNL     1      47.707   2.876   5.004  0.00  0.00    +0.000 HD
ENDBRANCH  23  24
ENDBRANCH  22  23
ENDBRANCH  16  22
ENDBRANCH  15  20
ENDBRANCH   1  15
TORSDOF 6
ENDMDL
MODEL 8
REMARK VINA RESULT:    -5.466      3.920      7.618
REMARK INTER + INTRA:          -7.421
REMARK INTER:                  -7.914
REMARK INTRA:                   0.493
REMARK UNBOUND:                -0.197
REMARK  Name = 
REMARK  6 active torsions:
REMARK  status: ('A' for Active; 'I' for Inactive)
REMARK    1  A    between atoms: N_1  and  C_2
REMARK    2  A    between atoms: C_2  and  C_3
REMARK    3  A    between atoms: C_3  and  N_4
REMARK    4  A    between atoms: C_8  and  C_9
REMARK    5  A    between atoms: C_9  and  N_10
REMARK    6  A    between atoms: C_15  and  C_16
REMARK                            x       y       z     vdW  Elec       q    Type
REMARK                         _______ _______ _______ _____ _____    ______ ____
ROOT
ATOM      1  N   UNL     1      47.563   5.456  14.081  0.00  0.00    +0.000 N 
ATOM      2  C   UNL     1      46.788   4.331  14.017  0.00  0.00    +0.000 A 
ATOM      3  N   UNL     1      46.780   3.685  15.161  0.00  0.00    +0.000 NA
ATOM      4  C   UNL     1      47.545   4.442  16.016  0.00  0.00    +0.000 A 
ATOM      5  C   UNL     1      47.922   4.187  17.332  0.00  0.00    +0.000 A 
ATOM      6  C   UNL     1      48.728   5.152  17.915  0.00  0.00    +0.000 A 
ATOM      7  N   UNL     1      49.102   6.328  17.327  0.00  0.00    +0.000 NA
ATOM      8  C   UNL     1      48.707   6.574  16.058  0.00  0.00    +0.000 A 
ATOM      9  C   UNL     1      47.976   5.605  15.385  0.00  0.00    +0.000 A 
ENDROOT
BRANCH   6  10
ATOM     10  C   UNL     1      49.298   4.894  19.282  0.00  0.00    +0.000 C 
ATOM     11  N   UNL     1      48.695   3.892  19.996  0.00  0.00    +0.000 N 
ATOM     12  O   UNL     1      50.222   5.545  19.751  0.00  0.00    +0.000 OA
ATOM     13  H   UNL     1      47.892   3.411  19.609  0.00  0.00    +0.000 HD
ATOM     14  H   UNL     1      48.993   3.714  20.945  0.00  0.00    +0.000 HD
ENDBRANCH   6  10
BRANCH   1  15
ATOM     15  C   UNL     1      47.927   6.287  12.942  0.00  0.00    +0.000 C 
BRANCH  15  20
ATOM     16  N   UNL     1      44.831   5.419  10.796  0.00  0.00    +0.000 NA
ATOM     17  C   UNL     1      43.898   6.361  11.429  0.00  0.00    +0.000 C 
ATOM     18  C   UNL     1      44.554   7.719  11.603  0.00  0.00    +0.000 C 
ATOM     19  C   UNL     1      45.799   7.610  12.464  0.00  0.00    +0.000 C 
ATOM     20  C   UNL     1      46.773   6.543  11.940  0.00  0.00    +0.000 C 
ATOM     21  C   UNL     1      46.023   5.219  11.644  0.00  0.00    +0.000 C 
BRANCH  16  22
ATOM     22  C   UNL     1      44.166   4.129  10.505  0.00  0.00    +0.000 C 
BRANCH  22  23
ATOM     23  C   UNL     1      43.258   3.628  11.654  0.00  0.00    +0.000 C 
BRANCH  23  24
ATOM     24  N   UNL     1      43.848   2.511  12.393  0.00  0.00    +0.000 NA
ATOM     25  H   UNL     1      44.841   2.707  12.531  0.00  0.00    +0.000 HD
ATOM     26  H   UNL     1      43.812   1.671  11.816  0.00  0.00    +0.000 HD
ENDBRANCH  23  24
ENDBRANCH  22  23
ENDBRANCH  16  22
ENDBRANCH  15  20
ENDBRANCH   1  15
TORSDOF 6
ENDMDL
MODEL 9
REMARK VINA RESULT:    -5.409      3.261      6.486
REMARK INTER + INTRA:          -7.346
REMARK INTER:                  -7.337
REMARK INTRA:                  -0.009
REMARK UNBOUND:                -0.197
REMARK  Name = 
REMARK  6 active torsions:
REMARK  status: ('A' for Active; 'I' for Inactive)
REMARK    1  A    between atoms: N_1  and  C_2
REMARK    2  A    between atoms: C_2  and  C_3
REMARK    3  A    between atoms: C_3  and  N_4
REMARK    4  A    between atoms: C_8  and  C_9
REMARK    5  A    between atoms: C_9  and  N_10
REMARK    6  A    between atoms: C_15  and  C_16
REMARK                            x       y       z     vdW  Elec       q    Type
REMARK                         _______ _______ _______ _____ _____    ______ ____
ROOT
ATOM      1  N   UNL     1      47.266   5.444  14.386  0.00  0.00    +0.000 N 
ATOM      2  C   UNL     1      47.875   5.403  15.610  0.00  0.00    +0.000 A 
ATOM      3  N   UNL     1      48.967   6.135  15.629  0.00  0.00    +0.000 NA
ATOM      4  C   UNL     1      49.048   6.707  14.383  0.00  0.00    +0.000 A 
ATOM      5  C   UNL     1      50.043   7.519  13.842  0.00  0.00    +0.000 A 
ATOM      6  C   UNL     1      49.835   7.917  12.531  0.00  0.00    +0.000 A 
ATOM      7  N   UNL     1      48.723   7.635  11.788  0.00  0.00    +0.000 NA
ATOM      8  C   UNL     1      47.754   6.867  12.335  0.00  0.00    +0.000 A 
ATOM      9  C   UNL     1      47.944   6.358  13.613  0.00  0.00    +0.000 A 
ENDROOT
BRANCH   6  10
ATOM     10  C   UNL     1      50.920   8.677  11.821  0.00  0.00    +0.000 C 
ATOM     11  N   UNL     1      52.176   8.139  11.912  0.00  0.00    +0.000 N 
ATOM     12  O   UNL     1      50.715   9.723  11.219  0.00  0.00    +0.000 OA
ATOM     13  H   UNL     1      52.328   7.306  12.468  0.00  0.00    +0.000 HD
ATOM     14  H   UNL     1      52.957   8.637  11.508  0.00  0.00    +0.000 HD
ENDBRANCH   6  10
BRANCH   1  15
ATOM     15  C   UNL     1      46.147   4.606  13.981  0.00  0.00    +0.000 C 
BRANCH  15  20
ATOM     16  N   UNL     1      44.514   4.235  10.497  0.00  0.00    +0.000 NA
ATOM     17  C   UNL     1      43.167   4.681  10.876  0.00  0.00    +0.000 C 
ATOM     18  C   UNL     1      43.246   5.932  11.734  0.00  0.00    +0.000 C 
ATOM     19  C   UNL     1      44.048   5.670  12.996  0.00  0.00    +0.000 C 
ATOM     20  C   UNL     1      45.430   5.072  12.688  0.00  0.00    +0.000 C 
ATOM     21  C   UNL     1      45.304   3.889  11.696  0.00  0.00    +0.000 C 
BRANCH  16  22
ATOM     22  C   UNL     1      44.450   3.093   9.557  0.00  0.00    +0.000 C 
BRANCH  22  23
ATOM     23  C   UNL     1      45.041   3.408   8.162  0.00  0.00    +0.000 C 
BRANCH  23  24
ATOM     24  N   UNL     1      45.655   4.735   8.096  0.00  0.00    +0.000 NA
ATOM     25  H   UNL     1      45.074   5.328   7.502  0.00  0.00    +0.000 HD
ATOM     26  H   UNL     1      46.555   4.666   7.622  0.00  0.00    +0.000 HD
ENDBRANCH  23  24
ENDBRANCH  22  23
ENDBRANCH  16  22
ENDBRANCH  15  20
ENDBRANCH   1  15
TORSDOF 6
ENDMDL
