MODEL 1
REMARK VINA RESULT:    -7.823      0.000      0.000
REMARK INTER + INTRA:         -10.946
REMARK INTER:                 -10.796
REMARK INTRA:                  -0.150
REMARK UNBOUND:                -0.150
REMARK  Name = 
REMARK  7 active torsions:
REMARK  status: ('A' for Active; 'I' for Inactive)
REMARK    1  A    between atoms: C_2  and  C_4
REMARK    2  A    between atoms: N_8  and  C_9
REMARK    3  A    between atoms: N_8  and  C_11
REMARK    4  A    between atoms: C_9  and  O_10
REMARK    5  A    between atoms: C_11  and  C_12
REMARK    6  A    between atoms: C_15  and  O_16
REMARK    7  A    between atoms: O_16  and  C_17
REMARK                            x       y       z     vdW  Elec       q    Type
REMARK                         _______ _______ _______ _____ _____    ______ ____
ROOT
ATOM      1  C   UNL     1      47.840   5.821  14.773  0.00  0.00    +0.000 A 
ATOM      2  C   UNL     1      47.142   4.706  15.166  0.00  0.00    +0.000 A 
ATOM      3  N   UNL     1      46.085   4.203  14.479  0.00  0.00    +0.000 NA
ATOM      4  C   UNL     1      45.713   4.829  13.342  0.00  0.00    +0.000 A 
ATOM      5  N   UNL     1      44.676   4.279  12.581  0.00  0.00    +0.000 N 
ATOM      6  N   UNL     1      46.339   5.940  12.907  0.00  0.00    +0.000 NA
ATOM      7  C   UNL     1      47.367   6.427  13.638  0.00  0.00    +0.000 A 
ENDROOT
BRANCH   1   9
ATOM      8  N   UNL     1      49.280   7.693  15.315  0.00  0.00    +0.000 N 
ATOM      9  C   UNL     1      49.004   6.364  15.481  0.00  0.00    +0.000 C 
ATOM     10  O   UNL     1      49.672   5.665  16.233  0.00  0.00    +0.000 OA
ATOM     11  H   UNL     1      50.000   8.073  15.917  0.00  0.00    +0.000 HD
ATOM     12  H   UNL     1      48.606   8.352  14.945  0.00  0.00    +0.000 HD
ENDBRANCH   1   9
BRANCH   5  13
ATOM     13  C   UNL     1      44.291   4.888  11.285  0.00  0.00    +0.000 C 
ATOM     14  C   UNL     1      43.846   6.349  11.230  0.00  0.00    +0.000 C 
ATOM     15  C   UNL     1      42.835   5.281  11.010  0.00  0.00    +0.000 C 
BRANCH  13  16
ATOM     16  C   UNL     1      45.034   4.325  10.070  0.00  0.00    +0.000 A 
ATOM     17  C   UNL     1      44.893   2.978   9.692  0.00  0.00    +0.000 A 
ATOM     18  C   UNL     1      45.341   2.518   8.449  0.00  0.00    +0.000 A 
ATOM     19  C   UNL     1      45.923   3.405   7.549  0.00  0.00    +0.000 A 
ATOM     20  C   UNL     1      46.214   4.703   7.969  0.00  0.00    +0.000 A 
ATOM     21  C   UNL     1      45.784   5.151   9.220  0.00  0.00    +0.000 A 
BRANCH  19  22
ATOM     22  O   UNL     1      46.289   3.101   6.274  0.00  0.00    +0.000 OA
BRANCH  22  23
ATOM     23  C   UNL     1      47.465   2.322   6.078  0.00  0.00    +0.000 C 
ATOM     24  F   UNL     1      48.477   2.597   6.930  0.00  0.00    +0.000 F 
ATOM     25  F   UNL     1      47.152   1.013   6.219  0.00  0.00    +0.000 F 
ATOM     26  F   UNL     1      47.908   2.511   4.814  0.00  0.00    +0.000 F 
ENDBRANCH  22  23
ENDBRANCH  19  22
ENDBRANCH  13  16
ENDBRANCH   5  13
BRANCH   5  27
ATOM     27  C   UNL     1      43.711   3.455  13.273  0.00  0.00    +0.000 C 
BRANCH  27  28
ATOM     28  O   UNL     1      43.555   2.189  12.654  0.00  0.00    +0.000 OA
ATOM     29  H   UNL     1      43.490   2.409  11.706  0.00  0.00    +0.000 HD
ENDBRANCH  27  28
ENDBRANCH   5  27
TORSDOF 7
ENDMDL
MODEL 2
REMARK VINA RESULT:    -7.750      4.184      6.830
REMARK INTER + INTRA:         -10.845
REMARK INTER:                 -10.703
REMARK INTRA:                  -0.142
REMARK UNBOUND:                -0.150
REMARK  Name = 
REMARK  7 active torsions:
REMARK  status: ('A' for Active; 'I' for Inactive)
REMARK    1  A    between atoms: C_2  and  C_4
REMARK    2  A    between atoms: N_8  and  C_9
REMARK    3  A    between atoms: N_8  and  C_11
REMARK    4  A    between atoms: C_9  and  O_10
REMARK    5  A    between atoms: C_11  and  C_12
REMARK    6  A    between atoms: C_15  and  O_16
REMARK    7  A    between atoms: O_16  and  C_17
REMARK                            x       y       z     vdW  Elec       q    Type
REMARK                         _______ _______ _______ _____ _____    ______ ____
ROOT
ATOM      1  C   UNL     1      46.273   2.936   7.680  0.00  0.00    +0.000 A 
ATOM      2  C   UNL     1      45.607   1.935   8.342  0.00  0.00    +0.000 A 
ATOM      3  N   UNL     1      44.912   2.130   9.492  0.00  0.00    +0.000 NA
ATOM      4  C   UNL     1      44.864   3.380   9.999  0.00  0.00    +0.000 A 
ATOM      5  N   UNL     1      44.089   3.614  11.139  0.00  0.00    +0.000 N 
ATOM      6  N   UNL     1      45.512   4.407   9.413  0.00  0.00    +0.000 NA
ATOM      7  C   UNL     1      46.219   4.164   8.287  0.00  0.00    +0.000 A 
ENDROOT
BRANCH   1   9
ATOM      8  N   UNL     1      48.345   2.502   6.500  0.00  0.00    +0.000 N 
ATOM      9  C   UNL     1      47.004   2.756   6.421  0.00  0.00    +0.000 C 
ATOM     10  O   UNL     1      46.424   2.780   5.342  0.00  0.00    +0.000 OA
ATOM     11  H   UNL     1      48.798   2.246   5.632  0.00  0.00    +0.000 HD
ATOM     12  H   UNL     1      48.796   2.196   7.354  0.00  0.00    +0.000 HD
ENDBRANCH   1   9
BRANCH   5  13
ATOM     13  C   UNL     1      43.944   4.987  11.681  0.00  0.00    +0.000 C 
ATOM     14  C   UNL     1      42.615   5.429  12.293  0.00  0.00    +0.000 C 
ATOM     15  C   UNL     1      43.032   6.006  10.988  0.00  0.00    +0.000 C 
BRANCH  13  16
ATOM     16  C   UNL     1      45.228   5.581  12.264  0.00  0.00    +0.000 A 
ATOM     17  C   UNL     1      45.819   5.041  13.420  0.00  0.00    +0.000 A 
ATOM     18  C   UNL     1      47.117   5.390  13.808  0.00  0.00    +0.000 A 
ATOM     19  C   UNL     1      47.860   6.274  13.032  0.00  0.00    +0.000 A 
ATOM     20  C   UNL     1      47.235   6.938  11.976  0.00  0.00    +0.000 A 
ATOM     21  C   UNL     1      45.931   6.602  11.606  0.00  0.00    +0.000 A 
BRANCH  19  22
ATOM     22  O   UNL     1      49.165   6.598  13.243  0.00  0.00    +0.000 OA
BRANCH  22  23
ATOM     23  C   UNL     1      49.486   7.400  14.375  0.00  0.00    +0.000 C 
ATOM     24  F   UNL     1      48.500   8.228  14.783  0.00  0.00    +0.000 F 
ATOM     25  F   UNL     1      49.797   6.589  15.413  0.00  0.00    +0.000 F 
ATOM     26  F   UNL     1      50.577   8.145  14.086  0.00  0.00    +0.000 F 
ENDBRANCH  22  23
ENDBRANCH  19  22
ENDBRANCH  13  16
ENDBRANCH   5  13
BRANCH   5  27
ATOM     27  C   UNL     1      43.851   2.493  12.020  0.00  0.00    +0.000 C 
BRANCH  27  28
ATOM     28  O   UNL     1      42.911   1.582  11.476  0.00  0.00    +0.000 OA
ATOM     29  H   UNL     1      42.333   2.152  10.934  0.00  0.00    +0.000 HD
ENDBRANCH  27  28
ENDBRANCH   5  27
TORSDOF 7
ENDMDL
MODEL 3
REMARK VINA RESULT:    -7.614      1.828      2.256
REMARK INTER + INTRA:         -10.657
REMARK INTER:                 -10.589
REMARK INTRA:                  -0.068
REMARK UNBOUND:                -0.150
REMARK  Name = 
REMARK  7 active torsions:
REMARK  status: ('A' for Active; 'I' for Inactive)
REMARK    1  A    between atoms: C_2  and  C_4
REMARK    2  A    between atoms: N_8  and  C_9
REMARK    3  A    between atoms: N_8  and  C_11
REMARK    4  A    between atoms: C_9  and  O_10
REMARK    5  A    between atoms: C_11  and  C_12
REMARK    6  A    between atoms: C_15  and  O_16
REMARK    7  A    between atoms: O_16  and  C_17
REMARK                            x       y       z     vdW  Elec       q    Type
REMARK                         _______ _______ _______ _____ _____    ______ ____
ROOT
ATOM      1  C   UNL     1      47.566   3.971  15.054  0.00  0.00    +0.000 A 
ATOM      2  C   UNL     1      47.516   5.339  14.956  0.00  0.00    +0.000 A 
ATOM      3  N   UNL     1      46.757   5.998  14.043  0.00  0.00    +0.000 NA
ATOM      4  C   UNL     1      46.004   5.262  13.197  0.00  0.00    +0.000 A 
ATOM      5  N   UNL     1      45.158   5.925  12.302  0.00  0.00    +0.000 N 
ATOM      6  N   UNL     1      46.020   3.915  13.223  0.00  0.00    +0.000 NA
ATOM      7  C   UNL     1      46.814   3.298  14.127  0.00  0.00    +0.000 A 
ENDROOT
BRANCH   1   9
ATOM      8  N   UNL     1      48.483   3.804  17.292  0.00  0.00    +0.000 N 
ATOM      9  C   UNL     1      48.353   3.239  16.053  0.00  0.00    +0.000 C 
ATOM     10  O   UNL     1      48.831   2.140  15.802  0.00  0.00    +0.000 OA
ATOM     11  H   UNL     1      48.909   3.220  18.000  0.00  0.00    +0.000 HD
ATOM     12  H   UNL     1      47.881   4.549  17.621  0.00  0.00    +0.000 HD
ENDBRANCH   1   9
BRANCH   5  13
ATOM     13  C   UNL     1      44.254   5.156  11.413  0.00  0.00    +0.000 C 
ATOM     14  C   UNL     1      42.804   5.602  11.229  0.00  0.00    +0.000 C 
ATOM     15  C   UNL     1      43.081   4.358  11.995  0.00  0.00    +0.000 C 
BRANCH  13  16
ATOM     16  C   UNL     1      44.948   4.485  10.224  0.00  0.00    +0.000 A 
ATOM     17  C   UNL     1      44.721   3.131   9.920  0.00  0.00    +0.000 A 
ATOM     18  C   UNL     1      45.125   2.579   8.700  0.00  0.00    +0.000 A 
ATOM     19  C   UNL     1      45.749   3.380   7.748  0.00  0.00    +0.000 A 
ATOM     20  C   UNL     1      46.123   4.678   8.095  0.00  0.00    +0.000 A 
ATOM     21  C   UNL     1      45.736   5.218   9.324  0.00  0.00    +0.000 A 
BRANCH  19  22
ATOM     22  O   UNL     1      46.082   2.987   6.488  0.00  0.00    +0.000 OA
BRANCH  22  23
ATOM     23  C   UNL     1      47.248   2.189   6.316  0.00  0.00    +0.000 C 
ATOM     24  F   UNL     1      48.227   2.412   7.219  0.00  0.00    +0.000 F 
ATOM     25  F   UNL     1      46.901   0.883   6.401  0.00  0.00    +0.000 F 
ATOM     26  F   UNL     1      47.749   2.408   5.079  0.00  0.00    +0.000 F 
ENDBRANCH  22  23
ENDBRANCH  19  22
ENDBRANCH  13  16
ENDBRANCH   5  13
BRANCH   5  27
ATOM     27  C   UNL     1      45.516   7.274  11.925  0.00  0.00    +0.000 C 
BRANCH  27  28
ATOM     28  O   UNL     1      44.988   8.233  12.825  0.00  0.00    +0.000 OA
ATOM     29  H   UNL     1      44.662   8.938  12.236  0.00  0.00    +0.000 HD
ENDBRANCH  27  28
ENDBRANCH   5  27
TORSDOF 7
ENDMDL
MODEL 4
REMARK VINA RESULT:    -7.595      2.391      3.093
REMARK INTER + INTRA:         -10.631
REMARK INTER:                 -10.661
REMARK INTRA:                   0.030
REMARK UNBOUND:                -0.150
REMARK  Name = 
REMARK  7 active torsions:
REMARK  status: ('A' for Active; 'I' for Inactive)
REMARK    1  A    between atoms: C_2  and  C_4
REMARK    2  A    between atoms: N_8  and  C_9
REMARK    3  A    between atoms: N_8  and  C_11
REMARK    4  A    between atoms: C_9  and  O_10
REMARK    5  A    between atoms: C_11  and  C_12
REMARK    6  A    between atoms: C_15  and  O_16
REMARK    7  A    between atoms: O_16  and  C_17
REMARK                            x       y       z     vdW  Elec       q    Type
REMARK                         _______ _______ _______ _____ _____    ______ ____
ROOT
ATOM      1  C   UNL     1      46.140   8.810  12.236  0.00  0.00    +0.000 A 
ATOM      2  C   UNL     1      47.053   7.963  12.811  0.00  0.00    +0.000 A 
ATOM      3  N   UNL     1      46.897   6.616  12.864  0.00  0.00    +0.000 NA
ATOM      4  C   UNL     1      45.787   6.085  12.306  0.00  0.00    +0.000 A 
ATOM      5  N   UNL     1      45.647   4.694  12.283  0.00  0.00    +0.000 N 
ATOM      6  N   UNL     1      44.838   6.858  11.743  0.00  0.00    +0.000 NA
ATOM      7  C   UNL     1      45.018   8.198  11.740  0.00  0.00    +0.000 A 
ENDROOT
BRANCH   1   9
ATOM      8  N   UNL     1      45.168  11.029  12.153  0.00  0.00    +0.000 N 
ATOM      9  C   UNL     1      46.302  10.265  12.139  0.00  0.00    +0.000 C 
ATOM     10  O   UNL     1      47.414  10.778  12.098  0.00  0.00    +0.000 OA
ATOM     11  H   UNL     1      45.310  12.029  12.224  0.00  0.00    +0.000 HD
ATOM     12  H   UNL     1      44.272  10.676  12.467  0.00  0.00    +0.000 HD
ENDBRANCH   1   9
BRANCH   5  13
ATOM     13  C   UNL     1      44.485   4.067  11.608  0.00  0.00    +0.000 C 
ATOM     14  C   UNL     1      43.066   4.517  11.957  0.00  0.00    +0.000 C 
ATOM     15  C   UNL     1      43.520   3.169  12.392  0.00  0.00    +0.000 C 
BRANCH  13  16
ATOM     16  C   UNL     1      44.752   3.607  10.173  0.00  0.00    +0.000 A 
ATOM     17  C   UNL     1      44.998   4.536   9.146  0.00  0.00    +0.000 A 
ATOM     18  C   UNL     1      45.505   4.135   7.905  0.00  0.00    +0.000 A 
ATOM     19  C   UNL     1      45.796   2.794   7.674  0.00  0.00    +0.000 A 
ATOM     20  C   UNL     1      45.409   1.844   8.619  0.00  0.00    +0.000 A 
ATOM     21  C   UNL     1      44.883   2.248   9.849  0.00  0.00    +0.000 A 
BRANCH  19  22
ATOM     22  O   UNL     1      46.396   2.303   6.555  0.00  0.00    +0.000 OA
BRANCH  22  23
ATOM     23  C   UNL     1      47.808   2.120   6.573  0.00  0.00    +0.000 C 
ATOM     24  F   UNL     1      48.511   3.169   7.050  0.00  0.00    +0.000 F 
ATOM     25  F   UNL     1      48.100   1.045   7.341  0.00  0.00    +0.000 F 
ATOM     26  F   UNL     1      48.229   1.860   5.314  0.00  0.00    +0.000 F 
ENDBRANCH  22  23
ENDBRANCH  19  22
ENDBRANCH  13  16
ENDBRANCH   5  13
BRANCH   5  27
ATOM     27  C   UNL     1      46.349   3.939  13.296  0.00  0.00    +0.000 C 
BRANCH  27  28
ATOM     28  O   UNL     1      46.092   4.435  14.599  0.00  0.00    +0.000 OA
ATOM     29  H   UNL     1      45.832   3.637  15.097  0.00  0.00    +0.000 HD
ENDBRANCH  27  28
ENDBRANCH   5  27
TORSDOF 7
ENDMDL
MODEL 5
REMARK VINA RESULT:    -7.552      2.220      2.822
REMARK INTER + INTRA:         -10.571
REMARK INTER:                 -10.568
REMARK INTRA:                  -0.004
REMARK UNBOUND:                -0.150
REMARK  Name = 
REMARK  7 active torsions:
REMARK  status: ('A' for Active; 'I' for Inactive)
REMARK    1  A    between atoms: C_2  and  C_4
REMARK    2  A    between atoms: N_8  and  C_9
REMARK    3  A    between atoms: N_8  and  C_11
REMARK    4  A    between atoms: C_9  and  O_10
REMARK    5  A    between atoms: C_11  and  C_12
REMARK    6  A    between atoms: C_15  and  O_16
REMARK    7  A    between atoms: O_16  and  C_17
REMARK                            x       y       z     vdW  Elec       q    Type
REMARK                         _______ _______ _______ _____ _____    ______ ____
ROOT
ATOM      1  C   UNL     1      47.172   8.432  12.590  0.00  0.00    +0.000 A 
ATOM      2  C   UNL     1      45.843   8.682  12.828  0.00  0.00    +0.000 A 
ATOM      3  N   UNL     1      44.861   7.766  12.628  0.00  0.00    +0.000 NA
ATOM      4  C   UNL     1      45.218   6.542  12.184  0.00  0.00    +0.000 A 
ATOM      5  N   UNL     1      44.229   5.563  12.047  0.00  0.00    +0.000 N 
ATOM      6  N   UNL     1      46.501   6.234  11.908  0.00  0.00    +0.000 NA
ATOM      7  C   UNL     1      47.444   7.185  12.091  0.00  0.00    +0.000 A 
ENDROOT
BRANCH   1   9
ATOM      8  N   UNL     1      47.905  10.632  13.296  0.00  0.00    +0.000 N 
ATOM      9  C   UNL     1      48.253   9.395  12.828  0.00  0.00    +0.000 C 
ATOM     10  O   UNL     1      49.426   9.084  12.664  0.00  0.00    +0.000 OA
ATOM     11  H   UNL     1      48.672  11.227  13.582  0.00  0.00    +0.000 HD
ATOM     12  H   UNL     1      47.001  10.829  13.708  0.00  0.00    +0.000 HD
ENDBRANCH   1   9
BRANCH   5  13
ATOM     13  C   UNL     1      44.589   4.183  11.640  0.00  0.00    +0.000 C 
ATOM     14  C   UNL     1      44.070   2.990  12.443  0.00  0.00    +0.000 C 
ATOM     15  C   UNL     1      45.515   3.329  12.514  0.00  0.00    +0.000 C 
BRANCH  13  16
ATOM     16  C   UNL     1      44.788   3.993  10.134  0.00  0.00    +0.000 A 
ATOM     17  C   UNL     1      45.523   4.921   9.375  0.00  0.00    +0.000 A 
ATOM     18  C   UNL     1      45.940   4.631   8.072  0.00  0.00    +0.000 A 
ATOM     19  C   UNL     1      45.646   3.393   7.507  0.00  0.00    +0.000 A 
ATOM     20  C   UNL     1      44.785   2.528   8.183  0.00  0.00    +0.000 A 
ATOM     21  C   UNL     1      44.353   2.832   9.476  0.00  0.00    +0.000 A 
BRANCH  19  22
ATOM     22  O   UNL     1      46.094   2.956   6.299  0.00  0.00    +0.000 OA
BRANCH  22  23
ATOM     23  C   UNL     1      47.299   2.198   6.260  0.00  0.00    +0.000 C 
ATOM     24  F   UNL     1      48.160   2.450   7.270  0.00  0.00    +0.000 F 
ATOM     25  F   UNL     1      46.990   0.881   6.303  0.00  0.00    +0.000 F 
ATOM     26  F   UNL     1      47.929   2.441   5.089  0.00  0.00    +0.000 F 
ENDBRANCH  22  23
ENDBRANCH  19  22
ENDBRANCH  13  16
ENDBRANCH   5  13
BRANCH   5  27
ATOM     27  C   UNL     1      42.873   6.015  11.835  0.00  0.00    +0.000 C 
BRANCH  27  28
ATOM     28  O   UNL     1      42.804   7.050  10.869  0.00  0.00    +0.000 OA
ATOM     29  H   UNL     1      43.742   7.265  10.703  0.00  0.00    +0.000 HD
ENDBRANCH  27  28
ENDBRANCH   5  27
TORSDOF 7
ENDMDL
MODEL 6
REMARK VINA RESULT:    -6.648      4.555      7.692
REMARK INTER + INTRA:          -9.323
REMARK INTER:                  -9.237
REMARK INTRA:                  -0.086
REMARK UNBOUND:                -0.150
REMARK  Name = 
REMARK  7 active torsions:
REMARK  status: ('A' for Active; 'I' for Inactive)
REMARK    1  A    between atoms: C_2  and  C_4
REMARK    2  A    between atoms: N_8  and  C_9
REMARK    3  A    between atoms: N_8  and  C_11
REMARK    4  A    between atoms: C_9  and  O_10
REMARK    5  A    between atoms: C_11  and  C_12
REMARK    6  A    between atoms: C_15  and  O_16
REMARK    7  A    between atoms: O_16  and  C_17
REMARK                            x       y       z     vdW  Elec       q    Type
REMARK                         _______ _______ _______ _____ _____    ______ ____
ROOT
ATOM      1  C   UNL     1      46.390   2.689   7.562  0.00  0.00    +0.000 A 
ATOM      2  C   UNL     1      46.027   4.005   7.426  0.00  0.00    +0.000 A 
ATOM      3  N   UNL     1      45.419   4.720   8.407  0.00  0.00    +0.000 NA
ATOM      4  C   UNL     1      45.173   4.102   9.582  0.00  0.00    +0.000 A 
ATOM      5  N   UNL     1      44.619   4.845  10.628  0.00  0.00    +0.000 N 
ATOM      6  N   UNL     1      45.483   2.805   9.778  0.00  0.00    +0.000 NA
ATOM      7  C   UNL     1      46.059   2.120   8.764  0.00  0.00    +0.000 A 
ENDROOT
BRANCH   1   9
ATOM      8  N   UNL     1      47.810   2.591   5.600  0.00  0.00    +0.000 N 
ATOM      9  C   UNL     1      47.075   1.905   6.528  0.00  0.00    +0.000 C 
ATOM     10  O   UNL     1      47.033   0.681   6.527  0.00  0.00    +0.000 OA
ATOM     11  H   UNL     1      48.382   2.026   4.985  0.00  0.00    +0.000 HD
ATOM     12  H   UNL     1      48.099   3.552   5.730  0.00  0.00    +0.000 HD
ENDBRANCH   1   9
BRANCH   5  13
ATOM     13  C   UNL     1      44.409   4.226  11.960  0.00  0.00    +0.000 C 
ATOM     14  C   UNL     1      43.478   3.023  12.105  0.00  0.00    +0.000 C 
ATOM     15  C   UNL     1      43.052   4.333  12.664  0.00  0.00    +0.000 C 
BRANCH  13  16
ATOM     16  C   UNL     1      45.616   4.307  12.898  0.00  0.00    +0.000 A 
ATOM     17  C   UNL     1      45.987   5.521  13.503  0.00  0.00    +0.000 A 
ATOM     18  C   UNL     1      46.905   5.561  14.558  0.00  0.00    +0.000 A 
ATOM     19  C   UNL     1      47.457   4.380  15.043  0.00  0.00    +0.000 A 
ATOM     20  C   UNL     1      47.224   3.190  14.354  0.00  0.00    +0.000 A 
ATOM     21  C   UNL     1      46.323   3.159  13.287  0.00  0.00    +0.000 A 
BRANCH  19  22
ATOM     22  O   UNL     1      48.267   4.282  16.132  0.00  0.00    +0.000 OA
BRANCH  22  23
ATOM     23  C   UNL     1      47.680   3.931  17.381  0.00  0.00    +0.000 C 
ATOM     24  F   UNL     1      46.985   2.773  17.376  0.00  0.00    +0.000 F 
ATOM     25  F   UNL     1      48.658   3.820  18.310  0.00  0.00    +0.000 F 
ATOM     26  F   UNL     1      46.849   4.926  17.767  0.00  0.00    +0.000 F 
ENDBRANCH  22  23
ENDBRANCH  19  22
ENDBRANCH  13  16
ENDBRANCH   5  13
BRANCH   5  27
ATOM     27  C   UNL     1      43.838   6.009  10.275  0.00  0.00    +0.000 C 
BRANCH  27  28
ATOM     28  O   UNL     1      44.239   7.156  11.005  0.00  0.00    +0.000 OA
ATOM     29  H   UNL     1      43.829   7.021  11.880  0.00  0.00    +0.000 HD
ENDBRANCH  27  28
ENDBRANCH   5  27
TORSDOF 7
ENDMDL
MODEL 7
REMARK VINA RESULT:    -6.233      3.250      5.106
REMARK INTER + INTRA:          -8.751
REMARK INTER:                  -8.815
REMARK INTRA:                   0.064
REMARK UNBOUND:                -0.150
REMARK  Name = 
REMARK  7 active torsions:
REMARK  status: ('A' for Active; 'I' for Inactive)
REMARK    1  A    between atoms: C_2  and  C_4
REMARK    2  A    between atoms: N_8  and  C_9
REMARK    3  A    between atoms: N_8  and  C_11
REMARK    4  A    between atoms: C_9  and  O_10
REMARK    5  A    between atoms: C_11  and  C_12
REMARK    6  A    between atoms: C_15  and  O_16
REMARK    7  A    between atoms: O_16  and  C_17
REMARK                            x       y       z     vdW  Elec       q    Type
REMARK                         _______ _______ _______ _____ _____    ______ ____
ROOT
ATOM      1  C   UNL     1      42.983   9.828  10.823  0.00  0.00    +0.000 A 
ATOM      2  C   UNL     1      44.260  10.202  11.161  0.00  0.00    +0.000 A 
ATOM      3  N   UNL     1      45.210   9.328  11.581  0.00  0.00    +0.000 NA
ATOM      4  C   UNL     1      44.880   8.021  11.656  0.00  0.00    +0.000 A 
ATOM      5  N   UNL     1      45.869   7.098  12.012  0.00  0.00    +0.000 N 
ATOM      6  N   UNL     1      43.640   7.585  11.360  0.00  0.00    +0.000 NA
ATOM      7  C   UNL     1      42.714   8.492  10.976  0.00  0.00    +0.000 A 
ENDROOT
BRANCH   1   9
ATOM      8  N   UNL     1      42.165  11.358   9.131  0.00  0.00    +0.000 N 
ATOM      9  C   UNL     1      41.950  10.748  10.336  0.00  0.00    +0.000 C 
ATOM     10  O   UNL     1      40.911  10.923  10.961  0.00  0.00    +0.000 OA
ATOM     11  H   UNL     1      41.382  11.877   8.753  0.00  0.00    +0.000 HD
ATOM     12  H   UNL     1      42.854  11.031   8.466  0.00  0.00    +0.000 HD
ENDBRANCH   1   9
BRANCH   5  13
ATOM     13  C   UNL     1      45.571   5.645  12.027  0.00  0.00    +0.000 C 
ATOM     14  C   UNL     1      44.810   5.034  13.203  0.00  0.00    +0.000 C 
ATOM     15  C   UNL     1      46.254   4.720  13.039  0.00  0.00    +0.000 C 
BRANCH  13  16
ATOM     16  C   UNL     1      45.358   5.024  10.644  0.00  0.00    +0.000 A 
ATOM     17  C   UNL     1      46.012   5.536   9.509  0.00  0.00    +0.000 A 
ATOM     18  C   UNL     1      46.044   4.827   8.303  0.00  0.00    +0.000 A 
ATOM     19  C   UNL     1      45.437   3.578   8.215  0.00  0.00    +0.000 A 
ATOM     20  C   UNL     1      44.652   3.130   9.278  0.00  0.00    +0.000 A 
ATOM     21  C   UNL     1      44.605   3.852  10.472  0.00  0.00    +0.000 A 
BRANCH  19  22
ATOM     22  O   UNL     1      45.501   2.749   7.138  0.00  0.00    +0.000 OA
BRANCH  22  23
ATOM     23  C   UNL     1      46.779   2.469   6.577  0.00  0.00    +0.000 C 
ATOM     24  F   UNL     1      47.828   2.805   7.357  0.00  0.00    +0.000 F 
ATOM     25  F   UNL     1      46.864   1.142   6.322  0.00  0.00    +0.000 F 
ATOM     26  F   UNL     1      46.892   3.127   5.401  0.00  0.00    +0.000 F 
ENDBRANCH  22  23
ENDBRANCH  19  22
ENDBRANCH  13  16
ENDBRANCH   5  13
BRANCH   5  27
ATOM     27  C   UNL     1      46.978   7.585  12.801  0.00  0.00    +0.000 C 
BRANCH  27  28
ATOM     28  O   UNL     1      46.545   8.406  13.873  0.00  0.00    +0.000 OA
ATOM     29  H   UNL     1      46.738   7.866  14.662  0.00  0.00    +0.000 HD
ENDBRANCH  27  28
ENDBRANCH   5  27
TORSDOF 7
ENDMDL
MODEL 8
REMARK VINA RESULT:    -5.956      4.146      6.156
REMARK INTER + INTRA:          -8.369
REMARK INTER:                  -7.867
REMARK INTRA:                  -0.502
REMARK UNBOUND:                -0.150
REMARK  Name = 
REMARK  7 active torsions:
REMARK  status: ('A' for Active; 'I' for Inactive)
REMARK    1  A    between atoms: C_2  and  C_4
REMARK    2  A    between atoms: N_8  and  C_9
REMARK    3  A    between atoms: N_8  and  C_11
REMARK    4  A    between atoms: C_9  and  O_10
REMARK    5  A    between atoms: C_11  and  C_12
REMARK    6  A    between atoms: C_15  and  O_16
REMARK    7  A    between atoms: O_16  and  C_17
REMARK                            x       y       z     vdW  Elec       q    Type
REMARK                         _______ _______ _______ _____ _____    ______ ____
ROOT
ATOM      1  C   UNL     1      47.979   4.830  17.025  0.00  0.00    +0.000 A 
ATOM      2  C   UNL     1      48.125   6.071  17.593  0.00  0.00    +0.000 A 
ATOM      3  N   UNL     1      48.428   7.189  16.884  0.00  0.00    +0.000 NA
ATOM      4  C   UNL     1      48.580   7.069  15.547  0.00  0.00    +0.000 A 
ATOM      5  N   UNL     1      48.815   8.222  14.793  0.00  0.00    +0.000 N 
ATOM      6  N   UNL     1      48.472   5.878  14.926  0.00  0.00    +0.000 NA
ATOM      7  C   UNL     1      48.200   4.785  15.673  0.00  0.00    +0.000 A 
ENDROOT
BRANCH   1   9
ATOM      8  N   UNL     1      48.320   3.343  18.908  0.00  0.00    +0.000 N 
ATOM      9  C   UNL     1      47.620   3.616  17.765  0.00  0.00    +0.000 C 
ATOM     10  O   UNL     1      46.695   2.900  17.400  0.00  0.00    +0.000 OA
ATOM     11  H   UNL     1      47.965   2.581  19.472  0.00  0.00    +0.000 HD
ATOM     12  H   UNL     1      48.880   4.038  19.388  0.00  0.00    +0.000 HD
ENDBRANCH   1   9
BRANCH   5  13
ATOM     13  C   UNL     1      48.907   8.147  13.314  0.00  0.00    +0.000 C 
ATOM     14  C   UNL     1      50.169   7.592  12.655  0.00  0.00    +0.000 C 
ATOM     15  C   UNL     1      49.882   9.047  12.547  0.00  0.00    +0.000 C 
BRANCH  13  16
ATOM     16  C   UNL     1      47.571   7.911  12.604  0.00  0.00    +0.000 A 
ATOM     17  C   UNL     1      47.404   6.841  11.708  0.00  0.00    +0.000 A 
ATOM     18  C   UNL     1      46.135   6.452  11.263  0.00  0.00    +0.000 A 
ATOM     19  C   UNL     1      45.004   7.117  11.725  0.00  0.00    +0.000 A 
ATOM     20  C   UNL     1      45.162   8.276  12.485  0.00  0.00    +0.000 A 
ATOM     21  C   UNL     1      46.432   8.673  12.908  0.00  0.00    +0.000 A 
BRANCH  19  22
ATOM     22  O   UNL     1      43.719   6.758  11.456  0.00  0.00    +0.000 OA
BRANCH  22  23
ATOM     23  C   UNL     1      43.228   5.541  12.009  0.00  0.00    +0.000 C 
ATOM     24  F   UNL     1      43.642   5.282  13.268  0.00  0.00    +0.000 F 
ATOM     25  F   UNL     1      41.875   5.580  12.020  0.00  0.00    +0.000 F 
ATOM     26  F   UNL     1      43.610   4.516  11.213  0.00  0.00    +0.000 F 
ENDBRANCH  22  23
ENDBRANCH  19  22
ENDBRANCH  13  16
ENDBRANCH   5  13
BRANCH   5  27
ATOM     27  C   UNL     1      49.429   9.344  15.468  0.00  0.00    +0.000 C 
BRANCH  27  28
ATOM     28  O   UNL     1      48.477  10.330  15.829  0.00  0.00    +0.000 OA
ATOM     29  H   UNL     1      48.679  11.069  15.224  0.00  0.00    +0.000 HD
ENDBRANCH  27  28
ENDBRANCH   5  27
TORSDOF 7
ENDMDL
MODEL 9
REMARK VINA RESULT:    -5.869      5.469      8.598
REMARK INTER + INTRA:          -8.249
REMARK INTER:                  -8.046
REMARK INTRA:                  -0.203
REMARK UNBOUND:                -0.150
REMARK  Name = 
REMARK  7 active torsions:
REMARK  status: ('A' for Active; 'I' for Inactive)
REMARK    1  A    between atoms: C_2  and  C_4
REMARK    2  A    between atoms: N_8  and  C_9
REMARK    3  A    between atoms: N_8  and  C_11
REMARK    4  A    between atoms: C_9  and  O_10
REMARK    5  A    between atoms: C_11  and  C_12
REMARK    6  A    between atoms: C_15  and  O_16
REMARK    7  A    between atoms: O_16  and  C_17
REMARK                            x       y       z     vdW  Elec       q    Type
REMARK                         _______ _______ _______ _____ _____    ______ ____
ROOT
ATOM      1  C   UNL     1      44.577   4.841  11.845  0.00  0.00    +0.000 A 
ATOM      2  C   UNL     1      44.048   6.032  11.413  0.00  0.00    +0.000 A 
ATOM      3  N   UNL     1      44.702   7.218  11.500  0.00  0.00    +0.000 NA
ATOM      4  C   UNL     1      45.946   7.218  12.027  0.00  0.00    +0.000 A 
ATOM      5  N   UNL     1      46.663   8.418  12.052  0.00  0.00    +0.000 N 
ATOM      6  N   UNL     1      46.519   6.090  12.490  0.00  0.00    +0.000 NA
ATOM      7  C   UNL     1      45.821   4.935  12.414  0.00  0.00    +0.000 A 
ENDROOT
BRANCH   1   9
ATOM      8  N   UNL     1      44.423   2.498  12.444  0.00  0.00    +0.000 N 
ATOM      9  C   UNL     1      43.903   3.543  11.732  0.00  0.00    +0.000 C 
ATOM     10  O   UNL     1      42.883   3.414  11.067  0.00  0.00    +0.000 OA
ATOM     11  H   UNL     1      43.865   1.653  12.460  0.00  0.00    +0.000 HD
ATOM     12  H   UNL     1      45.073   2.625  13.210  0.00  0.00    +0.000 HD
ENDBRANCH   1   9
BRANCH   5  13
ATOM     13  C   UNL     1      48.061   8.446  12.547  0.00  0.00    +0.000 C 
ATOM     14  C   UNL     1      49.086   9.367  11.886  0.00  0.00    +0.000 C 
ATOM     15  C   UNL     1      49.205   7.899  11.685  0.00  0.00    +0.000 C 
BRANCH  13  16
ATOM     16  C   UNL     1      48.213   8.175  14.046  0.00  0.00    +0.000 A 
ATOM     17  C   UNL     1      48.700   6.942  14.516  0.00  0.00    +0.000 A 
ATOM     18  C   UNL     1      49.097   6.773  15.847  0.00  0.00    +0.000 A 
ATOM     19  C   UNL     1      49.033   7.845  16.732  0.00  0.00    +0.000 A 
ATOM     20  C   UNL     1      48.406   9.023  16.326  0.00  0.00    +0.000 A 
ATOM     21  C   UNL     1      47.991   9.179  15.001  0.00  0.00    +0.000 A 
BRANCH  19  22
ATOM     22  O   UNL     1      49.495   7.834  18.012  0.00  0.00    +0.000 OA
BRANCH  22  23
ATOM     23  C   UNL     1      48.758   7.108  18.989  0.00  0.00    +0.000 C 
ATOM     24  F   UNL     1      47.430   7.029  18.756  0.00  0.00    +0.000 F 
ATOM     25  F   UNL     1      49.240   5.844  19.052  0.00  0.00    +0.000 F 
ATOM     26  F   UNL     1      48.946   7.687  20.197  0.00  0.00    +0.000 F 
ENDBRANCH  22  23
ENDBRANCH  19  22
ENDBRANCH  13  16
ENDBRANCH   5  13
BRANCH   5  27
ATOM     27  C   UNL     1      45.902   9.647  12.057  0.00  0.00    +0.000 C 
BRANCH  27  28
ATOM     28  O   UNL     1      44.827   9.600  12.979  0.00  0.00    +0.000 OA
ATOM     29  H   UNL     1      45.253   9.803  13.833  0.00  0.00    +0.000 HD
ENDBRANCH  27  28
ENDBRANCH   5  27
TORSDOF 7
ENDMDL
