MODEL 1
REMARK VINA RESULT:    -7.719      0.000      0.000
REMARK INTER + INTRA:         -12.007
REMARK INTER:                 -11.103
REMARK INTRA:                  -0.904
REMARK UNBOUND:                -0.904
REMARK  Name = 
REMARK  8 active torsions:
REMARK  status: ('A' for Active; 'I' for Inactive)
REMARK    1  A    between atoms: C_2  and  C_23
REMARK    2  A    between atoms: N_3  and  C_4
REMARK    3  A    between atoms: C_4  and  C_5
REMARK    4  A    between atoms: C_8  and  C_9
REMARK    5  A    between atoms: C_9  and  O_10
REMARK    6  A    between atoms: C_9  and  C_11
REMARK    7  A    between atoms: C_11  and  N_12
REMARK    8  A    between atoms: C_13  and  C_15
REMARK                            x       y       z     vdW  Elec       q    Type
REMARK                         _______ _______ _______ _____ _____    ______ ____
ROOT
ATOM      1  C   UNL     1      48.287   6.257  15.255  0.00  0.00    +0.000 A 
ATOM      2  C   UNL     1      47.976   6.885  14.044  0.00  0.00    +0.000 A 
ATOM      3  C   UNL     1      47.058   6.306  13.152  0.00  0.00    +0.000 A 
ATOM      4  C   UNL     1      46.423   5.086  13.442  0.00  0.00    +0.000 A 
ATOM      5  C   UNL     1      46.716   4.481  14.674  0.00  0.00    +0.000 A 
ATOM      6  C   UNL     1      47.636   5.059  15.568  0.00  0.00    +0.000 A 
ENDROOT
BRANCH   1   7
ATOM      7  C   UNL     1      49.262   6.891  16.219  0.00  0.00    +0.000 C 
BRANCH   7  10
ATOM      8  O   UNL     1      50.416   6.598  18.747  0.00  0.00    +0.000 OA
ATOM      9  C   UNL     1      50.788   5.855  17.842  0.00  0.00    +0.000 C 
ATOM     10  N   UNL     1      50.329   5.980  16.555  0.00  0.00    +0.000 N 
ATOM     11  H   UNL     1      50.493   5.222  15.901  0.00  0.00    +0.000 HD
BRANCH   9  12
ATOM     12  C   UNL     1      51.791   4.807  18.074  0.00  0.00    +0.000 A 
ATOM     13  C   UNL     1      53.044   5.136  18.574  0.00  0.00    +0.000 A 
ATOM     14  S   UNL     1      54.082   3.793  18.747  0.00  0.00    +0.000 S 
ATOM     15  C   UNL     1      52.877   2.718  18.212  0.00  0.00    +0.000 A 
ATOM     16  N   UNL     1      53.105   1.378  18.150  0.00  0.00    +0.000 NA
ATOM     17  C   UNL     1      52.091   0.679  17.765  0.00  0.00    +0.000 A 
ATOM     18  N   UNL     1      50.867   1.199  17.429  0.00  0.00    +0.000 N 
ATOM     19  C   UNL     1      50.603   2.548  17.436  0.00  0.00    +0.000 A 
ATOM     20  O   UNL     1      49.518   2.984  17.062  0.00  0.00    +0.000 OA
ATOM     21  C   UNL     1      51.706   3.377  17.883  0.00  0.00    +0.000 A 
ATOM     22  H   UNL     1      50.115   0.600  17.123  0.00  0.00    +0.000 HD
ENDBRANCH   9  12
ENDBRANCH   7  10
ENDBRANCH   1   7
BRANCH   4  23
ATOM     23  C   UNL     1      45.404   4.530  12.457  0.00  0.00    +0.000 C 
BRANCH  23  24
ATOM     24  O   UNL     1      45.798   3.194  12.101  0.00  0.00    +0.000 OA
ATOM     25  H   UNL     1      45.876   2.689  12.929  0.00  0.00    +0.000 HD
ENDBRANCH  23  24
BRANCH  23  26
ATOM     26  C   UNL     1      45.230   5.330  11.147  0.00  0.00    +0.000 C 
BRANCH  26  27
ATOM     27  N   UNL     1      44.848   4.498  10.007  0.00  0.00    +0.000 N 
ATOM     28  C   UNL     1      45.485   4.607   8.783  0.00  0.00    +0.000 C 
ATOM     29  O   UNL     1      46.378   5.427   8.585  0.00  0.00    +0.000 OA
ATOM     30  H   UNL     1      43.922   4.087  10.024  0.00  0.00    +0.000 HD
BRANCH  28  31
ATOM     31  C   UNL     1      44.977   3.608   7.706  0.00  0.00    +0.000 C 
ATOM     32  C   UNL     1      46.024   3.288   6.629  0.00  0.00    +0.000 C 
ATOM     33  C   UNL     1      47.152   2.394   7.144  0.00  0.00    +0.000 C 
ATOM     34  C   UNL     1      46.596   1.167   7.855  0.00  0.00    +0.000 C 
ATOM     35  C   UNL     1      45.552   1.551   8.900  0.00  0.00    +0.000 C 
ATOM     36  N   UNL     1      44.470   2.360   8.331  0.00  0.00    +0.000 NA
ATOM     37  H   UNL     1      43.817   2.597   9.075  0.00  0.00    +0.000 HD
ENDBRANCH  28  31
ENDBRANCH  26  27
ENDBRANCH  23  26
ENDBRANCH   4  23
TORSDOF 8
ENDMDL
MODEL 2
REMARK VINA RESULT:    -7.473      2.322      3.455
REMARK INTER + INTRA:         -11.653
REMARK INTER:                 -10.600
REMARK INTRA:                  -1.053
REMARK UNBOUND:                -0.904
REMARK  Name = 
REMARK  8 active torsions:
REMARK  status: ('A' for Active; 'I' for Inactive)
REMARK    1  A    between atoms: C_2  and  C_23
REMARK    2  A    between atoms: N_3  and  C_4
REMARK    3  A    between atoms: C_4  and  C_5
REMARK    4  A    between atoms: C_8  and  C_9
REMARK    5  A    between atoms: C_9  and  O_10
REMARK    6  A    between atoms: C_9  and  C_11
REMARK    7  A    between atoms: C_11  and  N_12
REMARK    8  A    between atoms: C_13  and  C_15
REMARK                            x       y       z     vdW  Elec       q    Type
REMARK                         _______ _______ _______ _____ _____    ______ ____
ROOT
ATOM      1  C   UNL     1      47.653   4.221  16.015  0.00  0.00    +0.000 A 
ATOM      2  C   UNL     1      48.191   5.513  16.004  0.00  0.00    +0.000 A 
ATOM      3  C   UNL     1      48.144   6.299  14.841  0.00  0.00    +0.000 A 
ATOM      4  C   UNL     1      47.558   5.822  13.656  0.00  0.00    +0.000 A 
ATOM      5  C   UNL     1      46.991   4.538  13.686  0.00  0.00    +0.000 A 
ATOM      6  C   UNL     1      47.038   3.749  14.850  0.00  0.00    +0.000 A 
ENDROOT
BRANCH   1   7
ATOM      7  C   UNL     1      47.690   3.385  17.272  0.00  0.00    +0.000 C 
BRANCH   7  10
ATOM      8  O   UNL     1      49.458   1.636  15.999  0.00  0.00    +0.000 OA
ATOM      9  C   UNL     1      49.868   2.294  16.951  0.00  0.00    +0.000 C 
ATOM     10  N   UNL     1      49.049   3.120  17.680  0.00  0.00    +0.000 N 
ATOM     11  H   UNL     1      49.468   3.797  18.307  0.00  0.00    +0.000 HD
BRANCH   9  12
ATOM     12  C   UNL     1      51.263   2.203  17.404  0.00  0.00    +0.000 A 
ATOM     13  C   UNL     1      51.868   0.962  17.561  0.00  0.00    +0.000 A 
ATOM     14  S   UNL     1      53.477   1.055  18.122  0.00  0.00    +0.000 S 
ATOM     15  C   UNL     1      53.440   2.756  18.122  0.00  0.00    +0.000 A 
ATOM     16  N   UNL     1      54.534   3.484  18.477  0.00  0.00    +0.000 NA
ATOM     17  C   UNL     1      54.377   4.762  18.393  0.00  0.00    +0.000 A 
ATOM     18  N   UNL     1      53.221   5.382  17.992  0.00  0.00    +0.000 N 
ATOM     19  C   UNL     1      52.079   4.690  17.665  0.00  0.00    +0.000 A 
ATOM     20  O   UNL     1      51.041   5.279  17.379  0.00  0.00    +0.000 OA
ATOM     21  C   UNL     1      52.210   3.246  17.723  0.00  0.00    +0.000 A 
ATOM     22  H   UNL     1      53.156   6.388  17.959  0.00  0.00    +0.000 HD
ENDBRANCH   9  12
ENDBRANCH   7  10
ENDBRANCH   1   7
BRANCH   4  23
ATOM     23  C   UNL     1      47.497   6.736  12.441  0.00  0.00    +0.000 C 
BRANCH  23  24
ATOM     24  O   UNL     1      48.505   7.752  12.585  0.00  0.00    +0.000 OA
ATOM     25  H   UNL     1      48.315   8.439  11.923  0.00  0.00    +0.000 HD
ENDBRANCH  23  24
BRANCH  23  26
ATOM     26  C   UNL     1      46.147   7.448  12.202  0.00  0.00    +0.000 C 
BRANCH  26  27
ATOM     27  N   UNL     1      45.214   6.663  11.396  0.00  0.00    +0.000 N 
ATOM     28  C   UNL     1      44.174   5.955  11.974  0.00  0.00    +0.000 C 
ATOM     29  O   UNL     1      44.003   5.924  13.190  0.00  0.00    +0.000 OA
ATOM     30  H   UNL     1      45.522   6.382  10.473  0.00  0.00    +0.000 HD
BRANCH  28  31
ATOM     31  C   UNL     1      43.257   5.220  10.956  0.00  0.00    +0.000 C 
ATOM     32  C   UNL     1      43.988   4.794   9.674  0.00  0.00    +0.000 C 
ATOM     33  C   UNL     1      44.940   3.619   9.896  0.00  0.00    +0.000 C 
ATOM     34  C   UNL     1      44.239   2.477  10.622  0.00  0.00    +0.000 C 
ATOM     35  C   UNL     1      43.521   2.968  11.875  0.00  0.00    +0.000 C 
ATOM     36  N   UNL     1      42.583   4.057  11.586  0.00  0.00    +0.000 NA
ATOM     37  H   UNL     1      42.148   4.352  12.458  0.00  0.00    +0.000 HD
ENDBRANCH  28  31
ENDBRANCH  26  27
ENDBRANCH  23  26
ENDBRANCH   4  23
TORSDOF 8
ENDMDL
MODEL 3
REMARK VINA RESULT:    -7.241      3.301      9.248
REMARK INTER + INTRA:         -11.319
REMARK INTER:                  -9.841
REMARK INTRA:                  -1.478
REMARK UNBOUND:                -0.904
REMARK  Name = 
REMARK  8 active torsions:
REMARK  status: ('A' for Active; 'I' for Inactive)
REMARK    1  A    between atoms: C_2  and  C_23
REMARK    2  A    between atoms: N_3  and  C_4
REMARK    3  A    between atoms: C_4  and  C_5
REMARK    4  A    between atoms: C_8  and  C_9
REMARK    5  A    between atoms: C_9  and  O_10
REMARK    6  A    between atoms: C_9  and  C_11
REMARK    7  A    between atoms: C_11  and  N_12
REMARK    8  A    between atoms: C_13  and  C_15
REMARK                            x       y       z     vdW  Elec       q    Type
REMARK                         _______ _______ _______ _____ _____    ______ ____
ROOT
ATOM      1  C   UNL     1      48.054   8.002  13.501  0.00  0.00    +0.000 A 
ATOM      2  C   UNL     1      47.895   9.044  14.422  0.00  0.00    +0.000 A 
ATOM      3  C   UNL     1      48.678   9.096  15.587  0.00  0.00    +0.000 A 
ATOM      4  C   UNL     1      49.641   8.113  15.869  0.00  0.00    +0.000 A 
ATOM      5  C   UNL     1      49.817   7.090  14.923  0.00  0.00    +0.000 A 
ATOM      6  C   UNL     1      49.034   7.036  13.756  0.00  0.00    +0.000 A 
ENDROOT
BRANCH   1   7
ATOM      7  C   UNL     1      47.223   7.959  12.241  0.00  0.00    +0.000 C 
BRANCH   7  10
ATOM      8  O   UNL     1      44.566   7.603  11.452  0.00  0.00    +0.000 OA
ATOM      9  C   UNL     1      45.260   6.608  11.645  0.00  0.00    +0.000 C 
ATOM     10  N   UNL     1      46.550   6.691  12.105  0.00  0.00    +0.000 N 
ATOM     11  H   UNL     1      47.146   5.873  12.042  0.00  0.00    +0.000 HD
BRANCH   9  12
ATOM     12  C   UNL     1      44.731   5.253  11.436  0.00  0.00    +0.000 A 
ATOM     13  C   UNL     1      43.957   4.646  12.416  0.00  0.00    +0.000 A 
ATOM     14  S   UNL     1      43.461   3.064  12.010  0.00  0.00    +0.000 S 
ATOM     15  C   UNL     1      44.216   3.156  10.488  0.00  0.00    +0.000 A 
ATOM     16  N   UNL     1      44.147   2.123   9.604  0.00  0.00    +0.000 NA
ATOM     17  C   UNL     1      44.731   2.345   8.475  0.00  0.00    +0.000 A 
ATOM     18  N   UNL     1      45.386   3.506   8.150  0.00  0.00    +0.000 N 
ATOM     19  C   UNL     1      45.517   4.558   9.024  0.00  0.00    +0.000 A 
ATOM     20  O   UNL     1      46.171   5.553   8.725  0.00  0.00    +0.000 OA
ATOM     21  C   UNL     1      44.859   4.367  10.303  0.00  0.00    +0.000 A 
ATOM     22  H   UNL     1      45.835   3.614   7.253  0.00  0.00    +0.000 HD
ENDBRANCH   9  12
ENDBRANCH   7  10
ENDBRANCH   1   7
BRANCH   4  23
ATOM     23  C   UNL     1      50.489   8.246  17.126  0.00  0.00    +0.000 C 
BRANCH  23  24
ATOM     24  O   UNL     1      51.507   7.231  17.098  0.00  0.00    +0.000 OA
ATOM     25  H   UNL     1      52.313   7.644  16.743  0.00  0.00    +0.000 HD
ENDBRANCH  23  24
BRANCH  23  26
ATOM     26  C   UNL     1      49.731   8.111  18.465  0.00  0.00    +0.000 C 
BRANCH  26  27
ATOM     27  N   UNL     1      48.802   6.983  18.493  0.00  0.00    +0.000 N 
ATOM     28  C   UNL     1      49.187   5.735  18.951  0.00  0.00    +0.000 C 
ATOM     29  O   UNL     1      50.335   5.506  19.326  0.00  0.00    +0.000 OA
ATOM     30  H   UNL     1      47.993   7.035  17.884  0.00  0.00    +0.000 HD
BRANCH  28  31
ATOM     31  C   UNL     1      48.051   4.674  18.952  0.00  0.00    +0.000 C 
ATOM     32  C   UNL     1      47.087   4.813  17.765  0.00  0.00    +0.000 C 
ATOM     33  C   UNL     1      47.709   4.368  16.441  0.00  0.00    +0.000 C 
ATOM     34  C   UNL     1      48.343   2.989  16.570  0.00  0.00    +0.000 C 
ATOM     35  C   UNL     1      49.276   2.913  17.775  0.00  0.00    +0.000 C 
ATOM     36  N   UNL     1      48.605   3.299  19.021  0.00  0.00    +0.000 NA
ATOM     37  H   UNL     1      49.278   3.244  19.782  0.00  0.00    +0.000 HD
ENDBRANCH  28  31
ENDBRANCH  26  27
ENDBRANCH  23  26
ENDBRANCH   4  23
TORSDOF 8
ENDMDL
MODEL 4
REMARK VINA RESULT:    -7.015      3.221      4.350
REMARK INTER + INTRA:         -10.994
REMARK INTER:                  -9.807
REMARK INTRA:                  -1.187
REMARK UNBOUND:                -0.904
REMARK  Name = 
REMARK  8 active torsions:
REMARK  status: ('A' for Active; 'I' for Inactive)
REMARK    1  A    between atoms: C_2  and  C_23
REMARK    2  A    between atoms: N_3  and  C_4
REMARK    3  A    between atoms: C_4  and  C_5
REMARK    4  A    between atoms: C_8  and  C_9
REMARK    5  A    between atoms: C_9  and  O_10
REMARK    6  A    between atoms: C_9  and  C_11
REMARK    7  A    between atoms: C_11  and  N_12
REMARK    8  A    between atoms: C_13  and  C_15
REMARK                            x       y       z     vdW  Elec       q    Type
REMARK                         _______ _______ _______ _____ _____    ______ ____
ROOT
ATOM      1  C   UNL     1      47.722   8.976  13.308  0.00  0.00    +0.000 A 
ATOM      2  C   UNL     1      46.654   8.087  13.479  0.00  0.00    +0.000 A 
ATOM      3  C   UNL     1      45.423   8.315  12.841  0.00  0.00    +0.000 A 
ATOM      4  C   UNL     1      45.221   9.435  12.016  0.00  0.00    +0.000 A 
ATOM      5  C   UNL     1      46.307  10.302  11.824  0.00  0.00    +0.000 A 
ATOM      6  C   UNL     1      47.541  10.076  12.462  0.00  0.00    +0.000 A 
ENDROOT
BRANCH   1   7
ATOM      7  C   UNL     1      49.049   8.718  13.982  0.00  0.00    +0.000 C 
BRANCH   7  10
ATOM      8  O   UNL     1      51.168   7.341  15.174  0.00  0.00    +0.000 OA
ATOM      9  C   UNL     1      50.029   7.133  15.582  0.00  0.00    +0.000 C 
ATOM     10  N   UNL     1      48.925   7.709  15.005  0.00  0.00    +0.000 N 
ATOM     11  H   UNL     1      48.042   7.682  15.503  0.00  0.00    +0.000 HD
BRANCH   9  12
ATOM     12  C   UNL     1      49.770   6.210  16.696  0.00  0.00    +0.000 A 
ATOM     13  C   UNL     1      50.467   6.342  17.890  0.00  0.00    +0.000 A 
ATOM     14  S   UNL     1      50.056   5.163  19.053  0.00  0.00    +0.000 S 
ATOM     15  C   UNL     1      48.893   4.468  18.022  0.00  0.00    +0.000 A 
ATOM     16  N   UNL     1      48.138   3.410  18.425  0.00  0.00    +0.000 NA
ATOM     17  C   UNL     1      47.270   3.011  17.557  0.00  0.00    +0.000 A 
ATOM     18  N   UNL     1      47.093   3.570  16.317  0.00  0.00    +0.000 N 
ATOM     19  C   UNL     1      47.860   4.611  15.851  0.00  0.00    +0.000 A 
ATOM     20  O   UNL     1      47.721   5.040  14.710  0.00  0.00    +0.000 OA
ATOM     21  C   UNL     1      48.838   5.112  16.799  0.00  0.00    +0.000 A 
ATOM     22  H   UNL     1      46.404   3.204  15.677  0.00  0.00    +0.000 HD
ENDBRANCH   9  12
ENDBRANCH   7  10
ENDBRANCH   1   7
BRANCH   4  23
ATOM     23  C   UNL     1      43.879   9.605  11.317  0.00  0.00    +0.000 C 
BRANCH  23  24
ATOM     24  O   UNL     1      43.201  10.729  11.903  0.00  0.00    +0.000 OA
ATOM     25  H   UNL     1      42.514  10.373  12.493  0.00  0.00    +0.000 HD
ENDBRANCH  23  24
BRANCH  23  26
ATOM     26  C   UNL     1      42.924   8.393  11.391  0.00  0.00    +0.000 C 
BRANCH  26  27
ATOM     27  N   UNL     1      43.515   7.159  10.874  0.00  0.00    +0.000 N 
ATOM     28  C   UNL     1      42.960   5.920  11.145  0.00  0.00    +0.000 C 
ATOM     29  O   UNL     1      41.967   5.793  11.857  0.00  0.00    +0.000 OA
ATOM     30  H   UNL     1      44.490   7.192  10.601  0.00  0.00    +0.000 HD
BRANCH  28  31
ATOM     31  C   UNL     1      43.697   4.728  10.472  0.00  0.00    +0.000 C 
ATOM     32  C   UNL     1      45.224   4.885  10.460  0.00  0.00    +0.000 C 
ATOM     33  C   UNL     1      45.852   4.689  11.840  0.00  0.00    +0.000 C 
ATOM     34  C   UNL     1      45.362   3.399  12.486  0.00  0.00    +0.000 C 
ATOM     35  C   UNL     1      43.840   3.299  12.452  0.00  0.00    +0.000 C 
ATOM     36  N   UNL     1      43.306   3.439  11.094  0.00  0.00    +0.000 NA
ATOM     37  H   UNL     1      42.291   3.379  11.136  0.00  0.00    +0.000 HD
ENDBRANCH  28  31
ENDBRANCH  26  27
ENDBRANCH  23  26
ENDBRANCH   4  23
TORSDOF 8
ENDMDL
MODEL 5
REMARK VINA RESULT:    -6.780      3.502      9.164
REMARK INTER + INTRA:         -10.657
REMARK INTER:                  -9.583
REMARK INTRA:                  -1.073
REMARK UNBOUND:                -0.904
REMARK  Name = 
REMARK  8 active torsions:
REMARK  status: ('A' for Active; 'I' for Inactive)
REMARK    1  A    between atoms: C_2  and  C_23
REMARK    2  A    between atoms: N_3  and  C_4
REMARK    3  A    between atoms: C_4  and  C_5
REMARK    4  A    between atoms: C_8  and  C_9
REMARK    5  A    between atoms: C_9  and  O_10
REMARK    6  A    between atoms: C_9  and  C_11
REMARK    7  A    between atoms: C_11  and  N_12
REMARK    8  A    between atoms: C_13  and  C_15
REMARK                            x       y       z     vdW  Elec       q    Type
REMARK                         _______ _______ _______ _____ _____    ______ ____
ROOT
ATOM      1  C   UNL     1      49.096   7.805  13.691  0.00  0.00    +0.000 A 
ATOM      2  C   UNL     1      48.628   7.132  14.826  0.00  0.00    +0.000 A 
ATOM      3  C   UNL     1      49.513   6.750  15.848  0.00  0.00    +0.000 A 
ATOM      4  C   UNL     1      50.888   7.029  15.770  0.00  0.00    +0.000 A 
ATOM      5  C   UNL     1      51.342   7.734  14.645  0.00  0.00    +0.000 A 
ATOM      6  C   UNL     1      50.458   8.116  13.619  0.00  0.00    +0.000 A 
ENDROOT
BRANCH   1   7
ATOM      7  C   UNL     1      48.139   8.228  12.602  0.00  0.00    +0.000 C 
BRANCH   7  10
ATOM      8  O   UNL     1      45.409   8.005  12.049  0.00  0.00    +0.000 OA
ATOM      9  C   UNL     1      46.154   7.091  11.706  0.00  0.00    +0.000 C 
ATOM     10  N   UNL     1      47.494   7.084  12.004  0.00  0.00    +0.000 N 
ATOM     11  H   UNL     1      48.099   6.430  11.522  0.00  0.00    +0.000 HD
BRANCH   9  12
ATOM     12  C   UNL     1      45.644   5.914  10.990  0.00  0.00    +0.000 A 
ATOM     13  C   UNL     1      45.951   5.724   9.649  0.00  0.00    +0.000 A 
ATOM     14  S   UNL     1      45.245   4.321   8.980  0.00  0.00    +0.000 S 
ATOM     15  C   UNL     1      44.549   3.890  10.471  0.00  0.00    +0.000 A 
ATOM     16  N   UNL     1      43.820   2.748  10.604  0.00  0.00    +0.000 NA
ATOM     17  C   UNL     1      43.386   2.526  11.799  0.00  0.00    +0.000 A 
ATOM     18  N   UNL     1      43.609   3.347  12.876  0.00  0.00    +0.000 N 
ATOM     19  C   UNL     1      44.302   4.530  12.780  0.00  0.00    +0.000 A 
ATOM     20  O   UNL     1      44.422   5.275  13.748  0.00  0.00    +0.000 OA
ATOM     21  C   UNL     1      44.831   4.816  11.460  0.00  0.00    +0.000 A 
ATOM     22  H   UNL     1      43.231   3.125  13.784  0.00  0.00    +0.000 HD
ENDBRANCH   9  12
ENDBRANCH   7  10
ENDBRANCH   1   7
BRANCH   4  23
ATOM     23  C   UNL     1      51.791   6.630  16.929  0.00  0.00    +0.000 C 
BRANCH  23  24
ATOM     24  O   UNL     1      53.140   7.005  16.605  0.00  0.00    +0.000 OA
ATOM     25  H   UNL     1      53.089   7.697  15.923  0.00  0.00    +0.000 HD
ENDBRANCH  23  24
BRANCH  23  26
ATOM     26  C   UNL     1      51.796   5.129  17.291  0.00  0.00    +0.000 C 
BRANCH  26  27
ATOM     27  N   UNL     1      50.673   4.733  18.138  0.00  0.00    +0.000 N 
ATOM     28  C   UNL     1      49.791   3.736  17.757  0.00  0.00    +0.000 C 
ATOM     29  O   UNL     1      49.889   3.159  16.676  0.00  0.00    +0.000 OA
ATOM     30  H   UNL     1      50.361   5.400  18.834  0.00  0.00    +0.000 HD
BRANCH  28  31
ATOM     31  C   UNL     1      48.690   3.419  18.807  0.00  0.00    +0.000 C 
ATOM     32  C   UNL     1      48.676   4.400  19.989  0.00  0.00    +0.000 C 
ATOM     33  C   UNL     1      48.133   5.777  19.612  0.00  0.00    +0.000 C 
ATOM     34  C   UNL     1      46.799   5.659  18.884  0.00  0.00    +0.000 C 
ATOM     35  C   UNL     1      46.876   4.662  17.733  0.00  0.00    +0.000 C 
ATOM     36  N   UNL     1      47.351   3.345  18.171  0.00  0.00    +0.000 NA
ATOM     37  H   UNL     1      47.396   2.730  17.361  0.00  0.00    +0.000 HD
ENDBRANCH  28  31
ENDBRANCH  26  27
ENDBRANCH  23  26
ENDBRANCH   4  23
TORSDOF 8
ENDMDL
MODEL 6
REMARK VINA RESULT:    -6.768      3.874      8.827
REMARK INTER + INTRA:         -10.639
REMARK INTER:                  -8.605
REMARK INTRA:                  -2.034
REMARK UNBOUND:                -0.904
REMARK  Name = 
REMARK  8 active torsions:
REMARK  status: ('A' for Active; 'I' for Inactive)
REMARK    1  A    between atoms: C_2  and  C_23
REMARK    2  A    between atoms: N_3  and  C_4
REMARK    3  A    between atoms: C_4  and  C_5
REMARK    4  A    between atoms: C_8  and  C_9
REMARK    5  A    between atoms: C_9  and  O_10
REMARK    6  A    between atoms: C_9  and  C_11
REMARK    7  A    between atoms: C_11  and  N_12
REMARK    8  A    between atoms: C_13  and  C_15
REMARK                            x       y       z     vdW  Elec       q    Type
REMARK                         _______ _______ _______ _____ _____    ______ ____
ROOT
ATOM      1  C   UNL     1      49.203   8.557  15.672  0.00  0.00    +0.000 A 
ATOM      2  C   UNL     1      50.189   7.896  14.930  0.00  0.00    +0.000 A 
ATOM      3  C   UNL     1      51.198   7.161  15.575  0.00  0.00    +0.000 A 
ATOM      4  C   UNL     1      51.253   7.063  16.975  0.00  0.00    +0.000 A 
ATOM      5  C   UNL     1      50.241   7.701  17.709  0.00  0.00    +0.000 A 
ATOM      6  C   UNL     1      49.230   8.438  17.066  0.00  0.00    +0.000 A 
ENDROOT
BRANCH   1   7
ATOM      7  C   UNL     1      48.110   9.332  14.975  0.00  0.00    +0.000 C 
BRANCH   7  10
ATOM      8  O   UNL     1      47.573   9.067  12.246  0.00  0.00    +0.000 OA
ATOM      9  C   UNL     1      46.985   8.332  13.034  0.00  0.00    +0.000 C 
ATOM     10  N   UNL     1      47.133   8.444  14.394  0.00  0.00    +0.000 N 
ATOM     11  H   UNL     1      46.805   7.690  14.986  0.00  0.00    +0.000 HD
BRANCH   9  12
ATOM     12  C   UNL     1      46.042   7.306  12.567  0.00  0.00    +0.000 A 
ATOM     13  C   UNL     1      44.957   7.661  11.777  0.00  0.00    +0.000 A 
ATOM     14  S   UNL     1      43.958   6.342  11.360  0.00  0.00    +0.000 S 
ATOM     15  C   UNL     1      44.970   5.242  12.174  0.00  0.00    +0.000 A 
ATOM     16  N   UNL     1      44.699   3.909  12.181  0.00  0.00    +0.000 NA
ATOM     17  C   UNL     1      45.572   3.188  12.803  0.00  0.00    +0.000 A 
ATOM     18  N   UNL     1      46.690   3.682  13.425  0.00  0.00    +0.000 N 
ATOM     19  C   UNL     1      46.982   5.024  13.479  0.00  0.00    +0.000 A 
ATOM     20  O   UNL     1      47.954   5.437  14.106  0.00  0.00    +0.000 OA
ATOM     21  C   UNL     1      46.042   5.876  12.776  0.00  0.00    +0.000 A 
ATOM     22  H   UNL     1      47.330   3.068  13.906  0.00  0.00    +0.000 HD
ENDBRANCH   9  12
ENDBRANCH   7  10
ENDBRANCH   1   7
BRANCH   4  23
ATOM     23  C   UNL     1      52.345   6.216  17.614  0.00  0.00    +0.000 C 
BRANCH  23  24
ATOM     24  O   UNL     1      53.558   6.394  16.863  0.00  0.00    +0.000 OA
ATOM     25  H   UNL     1      53.500   5.813  16.085  0.00  0.00    +0.000 HD
ENDBRANCH  23  24
BRANCH  23  26
ATOM     26  C   UNL     1      52.061   4.699  17.691  0.00  0.00    +0.000 C 
BRANCH  26  27
ATOM     27  N   UNL     1      50.880   4.371  18.488  0.00  0.00    +0.000 N 
ATOM     28  C   UNL     1      49.692   3.977  17.897  0.00  0.00    +0.000 C 
ATOM     29  O   UNL     1      49.561   3.914  16.677  0.00  0.00    +0.000 OA
ATOM     30  H   UNL     1      50.839   4.743  19.430  0.00  0.00    +0.000 HD
BRANCH  28  31
ATOM     31  C   UNL     1      48.562   3.623  18.905  0.00  0.00    +0.000 C 
ATOM     32  C   UNL     1      48.730   4.303  20.272  0.00  0.00    +0.000 C 
ATOM     33  C   UNL     1      48.431   5.801  20.230  0.00  0.00    +0.000 C 
ATOM     34  C   UNL     1      47.090   6.073  19.559  0.00  0.00    +0.000 C 
ATOM     35  C   UNL     1      46.981   5.359  18.216  0.00  0.00    +0.000 C 
ATOM     36  N   UNL     1      47.225   3.917  18.333  0.00  0.00    +0.000 NA
ATOM     37  H   UNL     1      47.154   3.500  17.407  0.00  0.00    +0.000 HD
ENDBRANCH  28  31
ENDBRANCH  26  27
ENDBRANCH  23  26
ENDBRANCH   4  23
TORSDOF 8
ENDMDL
MODEL 7
REMARK VINA RESULT:    -6.749      2.784      3.496
REMARK INTER + INTRA:         -10.612
REMARK INTER:                  -9.897
REMARK INTRA:                  -0.715
REMARK UNBOUND:                -0.904
REMARK  Name = 
REMARK  8 active torsions:
REMARK  status: ('A' for Active; 'I' for Inactive)
REMARK    1  A    between atoms: C_2  and  C_23
REMARK    2  A    between atoms: N_3  and  C_4
REMARK    3  A    between atoms: C_4  and  C_5
REMARK    4  A    between atoms: C_8  and  C_9
REMARK    5  A    between atoms: C_9  and  O_10
REMARK    6  A    between atoms: C_9  and  C_11
REMARK    7  A    between atoms: C_11  and  N_12
REMARK    8  A    between atoms: C_13  and  C_15
REMARK                            x       y       z     vdW  Elec       q    Type
REMARK                         _______ _______ _______ _____ _____    ______ ____
ROOT
ATOM      1  C   UNL     1      46.673   6.423  12.668  0.00  0.00    +0.000 A 
ATOM      2  C   UNL     1      45.923   5.466  13.363  0.00  0.00    +0.000 A 
ATOM      3  C   UNL     1      44.925   4.725  12.708  0.00  0.00    +0.000 A 
ATOM      4  C   UNL     1      44.646   4.915  11.344  0.00  0.00    +0.000 A 
ATOM      5  C   UNL     1      45.426   5.852  10.648  0.00  0.00    +0.000 A 
ATOM      6  C   UNL     1      46.425   6.595  11.302  0.00  0.00    +0.000 A 
ENDROOT
BRANCH   1   7
ATOM      7  C   UNL     1      47.757   7.205  13.371  0.00  0.00    +0.000 C 
BRANCH   7  10
ATOM      8  O   UNL     1      50.073   7.528  14.900  0.00  0.00    +0.000 OA
ATOM      9  C   UNL     1      49.095   7.000  15.421  0.00  0.00    +0.000 C 
ATOM     10  N   UNL     1      47.943   6.736  14.722  0.00  0.00    +0.000 N 
ATOM     11  H   UNL     1      47.101   6.505  15.236  0.00  0.00    +0.000 HD
BRANCH   9  12
ATOM     12  C   UNL     1      49.112   6.574  16.827  0.00  0.00    +0.000 A 
ATOM     13  C   UNL     1      49.505   7.459  17.822  0.00  0.00    +0.000 A 
ATOM     14  S   UNL     1      49.491   6.776  19.386  0.00  0.00    +0.000 S 
ATOM     15  C   UNL     1      48.907   5.291  18.796  0.00  0.00    +0.000 A 
ATOM     16  N   UNL     1      48.641   4.255  19.637  0.00  0.00    +0.000 NA
ATOM     17  C   UNL     1      48.165   3.204  19.058  0.00  0.00    +0.000 A 
ATOM     18  N   UNL     1      47.938   3.091  17.709  0.00  0.00    +0.000 N 
ATOM     19  C   UNL     1      48.230   4.095  16.817  0.00  0.00    +0.000 A 
ATOM     20  O   UNL     1      48.080   3.934  15.610  0.00  0.00    +0.000 OA
ATOM     21  C   UNL     1      48.748   5.308  17.422  0.00  0.00    +0.000 A 
ATOM     22  H   UNL     1      47.576   2.237  17.314  0.00  0.00    +0.000 HD
ENDBRANCH   9  12
ENDBRANCH   7  10
ENDBRANCH   1   7
BRANCH   4  23
ATOM     23  C   UNL     1      43.583   4.051  10.680  0.00  0.00    +0.000 C 
BRANCH  23  24
ATOM     24  O   UNL     1      42.442   3.981  11.553  0.00  0.00    +0.000 OA
ATOM     25  H   UNL     1      41.775   3.431  11.109  0.00  0.00    +0.000 HD
ENDBRANCH  23  24
BRANCH  23  26
ATOM     26  C   UNL     1      44.005   2.604  10.346  0.00  0.00    +0.000 C 
BRANCH  26  27
ATOM     27  N   UNL     1      45.330   2.514   9.735  0.00  0.00    +0.000 N 
ATOM     28  C   UNL     1      45.548   2.876   8.417  0.00  0.00    +0.000 C 
ATOM     29  O   UNL     1      44.637   3.259   7.688  0.00  0.00    +0.000 OA
ATOM     30  H   UNL     1      46.000   1.891  10.172  0.00  0.00    +0.000 HD
BRANCH  28  31
ATOM     31  C   UNL     1      47.029   2.759   7.958  0.00  0.00    +0.000 C 
ATOM     32  C   UNL     1      47.360   1.408   7.307  0.00  0.00    +0.000 C 
ATOM     33  C   UNL     1      46.756   1.259   5.910  0.00  0.00    +0.000 C 
ATOM     34  C   UNL     1      47.083   2.467   5.041  0.00  0.00    +0.000 C 
ATOM     35  C   UNL     1      46.746   3.775   5.750  0.00  0.00    +0.000 C 
ATOM     36  N   UNL     1      47.399   3.881   7.058  0.00  0.00    +0.000 NA
ATOM     37  H   UNL     1      47.125   4.762   7.488  0.00  0.00    +0.000 HD
ENDBRANCH  28  31
ENDBRANCH  26  27
ENDBRANCH  23  26
ENDBRANCH   4  23
TORSDOF 8
ENDMDL
MODEL 8
REMARK VINA RESULT:    -6.678      5.879      7.613
REMARK INTER + INTRA:         -10.510
REMARK INTER:                  -9.558
REMARK INTRA:                  -0.952
REMARK UNBOUND:                -0.904
REMARK  Name = 
REMARK  8 active torsions:
REMARK  status: ('A' for Active; 'I' for Inactive)
REMARK    1  A    between atoms: C_2  and  C_23
REMARK    2  A    between atoms: N_3  and  C_4
REMARK    3  A    between atoms: C_4  and  C_5
REMARK    4  A    between atoms: C_8  and  C_9
REMARK    5  A    between atoms: C_9  and  O_10
REMARK    6  A    between atoms: C_9  and  C_11
REMARK    7  A    between atoms: C_11  and  N_12
REMARK    8  A    between atoms: C_13  and  C_15
REMARK                            x       y       z     vdW  Elec       q    Type
REMARK                         _______ _______ _______ _____ _____    ______ ____
ROOT
ATOM      1  C   UNL     1      50.953   8.411  12.166  0.00  0.00    +0.000 A 
ATOM      2  C   UNL     1      50.834   8.356  13.560  0.00  0.00    +0.000 A 
ATOM      3  C   UNL     1      49.736   7.717  14.161  0.00  0.00    +0.000 A 
ATOM      4  C   UNL     1      48.726   7.116  13.391  0.00  0.00    +0.000 A 
ATOM      5  C   UNL     1      48.871   7.147  11.996  0.00  0.00    +0.000 A 
ATOM      6  C   UNL     1      49.969   7.786  11.392  0.00  0.00    +0.000 A 
ENDROOT
BRANCH   1   7
ATOM      7  C   UNL     1      52.143   9.084  11.524  0.00  0.00    +0.000 C 
BRANCH   7  10
ATOM      8  O   UNL     1      54.407   9.537   9.951  0.00  0.00    +0.000 OA
ATOM      9  C   UNL     1      53.504   8.841   9.494  0.00  0.00    +0.000 C 
ATOM     10  N   UNL     1      52.328   8.629  10.168  0.00  0.00    +0.000 N 
ATOM     11  H   UNL     1      51.713   7.885   9.857  0.00  0.00    +0.000 HD
BRANCH   9  12
ATOM     12  C   UNL     1      53.611   8.223   8.165  0.00  0.00    +0.000 A 
ATOM     13  C   UNL     1      53.757   9.016   7.034  0.00  0.00    +0.000 A 
ATOM     14  S   UNL     1      53.831   8.124   5.581  0.00  0.00    +0.000 S 
ATOM     15  C   UNL     1      53.726   6.645   6.416  0.00  0.00    +0.000 A 
ATOM     16  N   UNL     1      53.767   5.458   5.752  0.00  0.00    +0.000 NA
ATOM     17  C   UNL     1      53.717   4.417   6.513  0.00  0.00    +0.000 A 
ATOM     18  N   UNL     1      53.624   4.454   7.882  0.00  0.00    +0.000 N 
ATOM     19  C   UNL     1      53.538   5.628   8.591  0.00  0.00    +0.000 A 
ATOM     20  O   UNL     1      53.384   5.623   9.809  0.00  0.00    +0.000 OA
ATOM     21  C   UNL     1      53.611   6.830   7.782  0.00  0.00    +0.000 A 
ATOM     22  H   UNL     1      53.576   3.604   8.421  0.00  0.00    +0.000 HD
ENDBRANCH   9  12
ENDBRANCH   7  10
ENDBRANCH   1   7
BRANCH   4  23
ATOM     23  C   UNL     1      47.584   6.401  14.100  0.00  0.00    +0.000 C 
BRANCH  23  24
ATOM     24  O   UNL     1      47.950   6.213  15.477  0.00  0.00    +0.000 OA
ATOM     25  H   UNL     1      48.585   6.914  15.703  0.00  0.00    +0.000 HD
ENDBRANCH  23  24
BRANCH  23  26
ATOM     26  C   UNL     1      47.197   5.020  13.526  0.00  0.00    +0.000 C 
BRANCH  26  27
ATOM     27  N   UNL     1      46.054   5.071  12.616  0.00  0.00    +0.000 N 
ATOM     28  C   UNL     1      45.325   3.937  12.302  0.00  0.00    +0.000 C 
ATOM     29  O   UNL     1      45.620   2.830  12.745  0.00  0.00    +0.000 OA
ATOM     30  H   UNL     1      46.005   5.857  11.978  0.00  0.00    +0.000 HD
BRANCH  28  31
ATOM     31  C   UNL     1      44.117   4.194  11.358  0.00  0.00    +0.000 C 
ATOM     32  C   UNL     1      44.380   5.292  10.317  0.00  0.00    +0.000 C 
ATOM     33  C   UNL     1      45.342   4.848   9.215  0.00  0.00    +0.000 C 
ATOM     34  C   UNL     1      44.911   3.514   8.618  0.00  0.00    +0.000 C 
ATOM     35  C   UNL     1      44.651   2.473   9.702  0.00  0.00    +0.000 C 
ATOM     36  N   UNL     1      43.679   2.939  10.697  0.00  0.00    +0.000 NA
ATOM     37  H   UNL     1      43.559   2.212  11.399  0.00  0.00    +0.000 HD
ENDBRANCH  28  31
ENDBRANCH  26  27
ENDBRANCH  23  26
ENDBRANCH   4  23
TORSDOF 8
ENDMDL
MODEL 9
REMARK VINA RESULT:    -6.392      3.798      9.117
REMARK INTER + INTRA:         -10.098
REMARK INTER:                  -8.432
REMARK INTRA:                  -1.666
REMARK UNBOUND:                -0.904
REMARK  Name = 
REMARK  8 active torsions:
REMARK  status: ('A' for Active; 'I' for Inactive)
REMARK    1  A    between atoms: C_2  and  C_23
REMARK    2  A    between atoms: N_3  and  C_4
REMARK    3  A    between atoms: C_4  and  C_5
REMARK    4  A    between atoms: C_8  and  C_9
REMARK    5  A    between atoms: C_9  and  O_10
REMARK    6  A    between atoms: C_9  and  C_11
REMARK    7  A    between atoms: C_11  and  N_12
REMARK    8  A    between atoms: C_13  and  C_15
REMARK                            x       y       z     vdW  Elec       q    Type
REMARK                         _______ _______ _______ _____ _____    ______ ____
ROOT
ATOM      1  C   UNL     1      49.337   8.669  15.347  0.00  0.00    +0.000 A 
ATOM      2  C   UNL     1      49.362   9.341  16.575  0.00  0.00    +0.000 A 
ATOM      3  C   UNL     1      50.299   8.994  17.563  0.00  0.00    +0.000 A 
ATOM      4  C   UNL     1      51.238   7.969  17.355  0.00  0.00    +0.000 A 
ATOM      5  C   UNL     1      51.227   7.324  16.109  0.00  0.00    +0.000 A 
ATOM      6  C   UNL     1      50.289   7.670  15.119  0.00  0.00    +0.000 A 
ENDROOT
BRANCH   1   7
ATOM      7  C   UNL     1      48.339   9.056  14.282  0.00  0.00    +0.000 C 
BRANCH   7  10
ATOM      8  O   UNL     1      48.088   7.675  11.866  0.00  0.00    +0.000 OA
ATOM      9  C   UNL     1      47.408   7.314  12.822  0.00  0.00    +0.000 C 
ATOM     10  N   UNL     1      47.414   7.981  14.021  0.00  0.00    +0.000 N 
ATOM     11  H   UNL     1      47.012   7.529  14.835  0.00  0.00    +0.000 HD
BRANCH   9  12
ATOM     12  C   UNL     1      46.502   6.161  12.726  0.00  0.00    +0.000 A 
ATOM     13  C   UNL     1      46.891   4.923  13.220  0.00  0.00    +0.000 A 
ATOM     14  S   UNL     1      45.722   3.700  12.991  0.00  0.00    +0.000 S 
ATOM     15  C   UNL     1      44.633   4.794  12.274  0.00  0.00    +0.000 A 
ATOM     16  N   UNL     1      43.399   4.392  11.865  0.00  0.00    +0.000 NA
ATOM     17  C   UNL     1      42.665   5.334  11.376  0.00  0.00    +0.000 A 
ATOM     18  N   UNL     1      43.056   6.644  11.251  0.00  0.00    +0.000 N 
ATOM     19  C   UNL     1      44.306   7.086  11.611  0.00  0.00    +0.000 A 
ATOM     20  O   UNL     1      44.646   8.250  11.420  0.00  0.00    +0.000 OA
ATOM     21  C   UNL     1      45.164   6.068  12.188  0.00  0.00    +0.000 A 
ATOM     22  H   UNL     1      42.439   7.333  10.848  0.00  0.00    +0.000 HD
ENDBRANCH   9  12
ENDBRANCH   7  10
ENDBRANCH   1   7
BRANCH   4  23
ATOM     23  C   UNL     1      52.257   7.669  18.446  0.00  0.00    +0.000 C 
BRANCH  23  24
ATOM     24  O   UNL     1      53.557   7.570  17.839  0.00  0.00    +0.000 OA
ATOM     25  H   UNL     1      54.031   8.395  18.041  0.00  0.00    +0.000 HD
ENDBRANCH  23  24
BRANCH  23  26
ATOM     26  C   UNL     1      52.017   6.372  19.251  0.00  0.00    +0.000 C 
BRANCH  26  27
ATOM     27  N   UNL     1      50.611   5.976  19.304  0.00  0.00    +0.000 N 
ATOM     28  C   UNL     1      50.204   4.695  18.973  0.00  0.00    +0.000 C 
ATOM     29  O   UNL     1      50.998   3.839  18.588  0.00  0.00    +0.000 OA
ATOM     30  H   UNL     1      49.920   6.716  19.267  0.00  0.00    +0.000 HD
BRANCH  28  31
ATOM     31  C   UNL     1      48.679   4.445  19.136  0.00  0.00    +0.000 C 
ATOM     32  C   UNL     1      47.813   5.393  18.293  0.00  0.00    +0.000 C 
ATOM     33  C   UNL     1      47.860   5.070  16.800  0.00  0.00    +0.000 C 
ATOM     34  C   UNL     1      47.589   3.591  16.551  0.00  0.00    +0.000 C 
ATOM     35  C   UNL     1      48.469   2.706  17.428  0.00  0.00    +0.000 C 
ATOM     36  N   UNL     1      48.336   3.029  18.852  0.00  0.00    +0.000 NA
ATOM     37  H   UNL     1      48.955   2.420  19.383  0.00  0.00    +0.000 HD
ENDBRANCH  28  31
ENDBRANCH  26  27
ENDBRANCH  23  26
ENDBRANCH   4  23
TORSDOF 8
ENDMDL
