MODEL 1
REMARK VINA RESULT:    -9.086      0.000      0.000
REMARK INTER + INTRA:         -14.236
REMARK INTER:                 -13.070
REMARK INTRA:                  -1.166
REMARK UNBOUND:                -1.166
REMARK  Name = 
REMARK  9 active torsions:
REMARK  status: ('A' for Active; 'I' for Inactive)
REMARK    1  A    between atoms: C_1  and  O_2
REMARK    2  A    between atoms: O_2  and  C_3
REMARK    3  A    between atoms: C_10  and  C_11
REMARK    4  A    between atoms: N_13  and  C_14
REMARK    5  A    between atoms: C_14  and  C_15
REMARK    6  A    between atoms: C_18  and  C_19
REMARK    7  A    between atoms: C_19  and  O_20
REMARK    8  A    between atoms: C_19  and  C_21
REMARK    9  A    between atoms: C_21  and  N_22
REMARK                            x       y       z     vdW  Elec       q    Type
REMARK                         _______ _______ _______ _____ _____    ______ ____
ROOT
ATOM      1  C   UNL     1      46.104   6.990  12.354  0.00  0.00    +0.000 A 
ATOM      2  C   UNL     1      44.924   6.490  12.917  0.00  0.00    +0.000 A 
ATOM      3  C   UNL     1      44.129   5.566  12.219  0.00  0.00    +0.000 A 
ATOM      4  C   UNL     1      44.501   5.109  10.945  0.00  0.00    +0.000 A 
ATOM      5  C   UNL     1      45.689   5.609  10.389  0.00  0.00    +0.000 A 
ATOM      6  C   UNL     1      46.472   6.545  11.078  0.00  0.00    +0.000 A 
ENDROOT
BRANCH   1   7
ATOM      7  C   UNL     1      46.998   7.937  13.123  0.00  0.00    +0.000 C 
BRANCH   7  10
ATOM      8  C   UNL     1      48.661   6.865  14.615  0.00  0.00    +0.000 C 
ATOM      9  O   UNL     1      49.526   6.903  13.740  0.00  0.00    +0.000 OA
ATOM     10  N   UNL     1      47.405   7.357  14.387  0.00  0.00    +0.000 N 
ATOM     11  H   UNL     1      46.726   7.367  15.136  0.00  0.00    +0.000 HD
BRANCH   8  19
ATOM     12  C   UNL     1      47.314   4.199  16.329  0.00  0.00    +0.000 A 
ATOM     13  N   UNL     1      47.040   3.173  17.160  0.00  0.00    +0.000 NA
ATOM     14  C   UNL     1      47.761   3.054  18.275  0.00  0.00    +0.000 A 
ATOM     15  N   UNL     1      48.736   3.859  18.687  0.00  0.00    +0.000 NA
ATOM     16  C   UNL     1      48.984   4.865  17.825  0.00  0.00    +0.000 A 
ATOM     17  S   UNL     1      50.189   6.002  18.192  0.00  0.00    +0.000 S 
ATOM     18  C   UNL     1      49.922   6.830  16.734  0.00  0.00    +0.000 A 
ATOM     19  C   UNL     1      48.933   6.265  15.935  0.00  0.00    +0.000 A 
ATOM     20  C   UNL     1      48.349   5.110  16.613  0.00  0.00    +0.000 A 
BRANCH  12  22
ATOM     21  C   UNL     1      47.028   3.633  14.063  0.00  0.00    +0.000 C 
ATOM     22  O   UNL     1      46.542   4.352  15.197  0.00  0.00    +0.000 OA
ENDBRANCH  12  22
ENDBRANCH   8  19
ENDBRANCH   7  10
ENDBRANCH   1   7
BRANCH   4  23
ATOM     23  C   UNL     1      43.641   4.089  10.212  0.00  0.00    +0.000 C 
BRANCH  23  24
ATOM     24  O   UNL     1      42.790   3.436  11.162  0.00  0.00    +0.000 OA
ATOM     25  H   UNL     1      42.662   4.042  11.910  0.00  0.00    +0.000 HD
ENDBRANCH  23  24
BRANCH  23  26
ATOM     26  C   UNL     1      44.482   3.064   9.400  0.00  0.00    +0.000 C 
BRANCH  26  27
ATOM     27  N   UNL     1      44.973   3.629   8.129  0.00  0.00    +0.000 N 
ATOM     28  C   UNL     1      45.977   2.868   7.503  0.00  0.00    +0.000 A 
ATOM     29  C   UNL     1      46.488   3.307   6.295  0.00  0.00    +0.000 A 
ATOM     30  C   UNL     1      47.471   2.534   5.715  0.00  0.00    +0.000 A 
ATOM     31  N   UNL     1      47.932   1.394   6.255  0.00  0.00    +0.000 NA
ATOM     32  C   UNL     1      47.359   1.038   7.410  0.00  0.00    +0.000 A 
ATOM     33  N   UNL     1      46.396   1.716   8.059  0.00  0.00    +0.000 NA
ATOM     34  H   UNL     1      45.288   4.589   8.224  0.00  0.00    +0.000 HD
ENDBRANCH  26  27
ENDBRANCH  23  26
ENDBRANCH   4  23
TORSDOF 8
ENDMDL
MODEL 2
REMARK VINA RESULT:    -8.354      2.035      2.719
REMARK INTER + INTRA:         -13.183
REMARK INTER:                 -12.278
REMARK INTRA:                  -0.905
REMARK UNBOUND:                -1.166
REMARK  Name = 
REMARK  9 active torsions:
REMARK  status: ('A' for Active; 'I' for Inactive)
REMARK    1  A    between atoms: C_1  and  O_2
REMARK    2  A    between atoms: O_2  and  C_3
REMARK    3  A    between atoms: C_10  and  C_11
REMARK    4  A    between atoms: N_13  and  C_14
REMARK    5  A    between atoms: C_14  and  C_15
REMARK    6  A    between atoms: C_18  and  C_19
REMARK    7  A    between atoms: C_19  and  O_20
REMARK    8  A    between atoms: C_19  and  C_21
REMARK    9  A    between atoms: C_21  and  N_22
REMARK                            x       y       z     vdW  Elec       q    Type
REMARK                         _______ _______ _______ _____ _____    ______ ____
ROOT
ATOM      1  C   UNL     1      46.805   5.675  12.899  0.00  0.00    +0.000 A 
ATOM      2  C   UNL     1      46.364   4.401  13.278  0.00  0.00    +0.000 A 
ATOM      3  C   UNL     1      45.376   3.732  12.538  0.00  0.00    +0.000 A 
ATOM      4  C   UNL     1      44.814   4.313  11.390  0.00  0.00    +0.000 A 
ATOM      5  C   UNL     1      45.266   5.587  11.011  0.00  0.00    +0.000 A 
ATOM      6  C   UNL     1      46.238   6.262  11.761  0.00  0.00    +0.000 A 
ENDROOT
BRANCH   1   7
ATOM      7  C   UNL     1      47.912   6.376  13.654  0.00  0.00    +0.000 C 
BRANCH   7  10
ATOM      8  C   UNL     1      48.926   6.210  15.910  0.00  0.00    +0.000 C 
ATOM      9  O   UNL     1      50.006   6.633  15.496  0.00  0.00    +0.000 OA
ATOM     10  N   UNL     1      47.856   6.065  15.068  0.00  0.00    +0.000 N 
ATOM     11  H   UNL     1      46.963   5.769  15.438  0.00  0.00    +0.000 HD
BRANCH   8  19
ATOM     12  C   UNL     1      47.953   7.918  18.737  0.00  0.00    +0.000 A 
ATOM     13  N   UNL     1      47.520   8.311  19.953  0.00  0.00    +0.000 NA
ATOM     14  C   UNL     1      47.452   7.400  20.924  0.00  0.00    +0.000 A 
ATOM     15  N   UNL     1      47.785   6.116  20.840  0.00  0.00    +0.000 NA
ATOM     16  C   UNL     1      48.204   5.762  19.609  0.00  0.00    +0.000 A 
ATOM     17  S   UNL     1      48.684   4.160  19.317  0.00  0.00    +0.000 S 
ATOM     18  C   UNL     1      49.004   4.501  17.685  0.00  0.00    +0.000 A 
ATOM     19  C   UNL     1      48.745   5.818  17.321  0.00  0.00    +0.000 A 
ATOM     20  C   UNL     1      48.302   6.577  18.488  0.00  0.00    +0.000 A 
BRANCH  12  22
ATOM     21  C   UNL     1      49.342   9.511  17.703  0.00  0.00    +0.000 C 
ATOM     22  O   UNL     1      48.069   8.866  17.743  0.00  0.00    +0.000 OA
ENDBRANCH  12  22
ENDBRANCH   8  19
ENDBRANCH   7  10
ENDBRANCH   1   7
BRANCH   4  23
ATOM     23  C   UNL     1      43.762   3.564  10.584  0.00  0.00    +0.000 C 
BRANCH  23  24
ATOM     24  O   UNL     1      42.910   2.850  11.489  0.00  0.00    +0.000 OA
ATOM     25  H   UNL     1      42.529   3.494  12.107  0.00  0.00    +0.000 HD
ENDBRANCH  23  24
BRANCH  23  26
ATOM     26  C   UNL     1      44.381   2.619   9.517  0.00  0.00    +0.000 C 
BRANCH  26  27
ATOM     27  N   UNL     1      44.920   3.360   8.361  0.00  0.00    +0.000 N 
ATOM     28  C   UNL     1      45.953   2.697   7.674  0.00  0.00    +0.000 A 
ATOM     29  C   UNL     1      46.510   3.305   6.564  0.00  0.00    +0.000 A 
ATOM     30  C   UNL     1      47.520   2.622   5.919  0.00  0.00    +0.000 A 
ATOM     31  N   UNL     1      47.964   1.417   6.308  0.00  0.00    +0.000 NA
ATOM     32  C   UNL     1      47.346   0.898   7.374  0.00  0.00    +0.000 A 
ATOM     33  N   UNL     1      46.354   1.476   8.075  0.00  0.00    +0.000 NA
ATOM     34  H   UNL     1      45.227   4.297   8.608  0.00  0.00    +0.000 HD
ENDBRANCH  26  27
ENDBRANCH  23  26
ENDBRANCH   4  23
TORSDOF 8
ENDMDL
MODEL 3
REMARK VINA RESULT:    -8.019      1.520      1.843
REMARK INTER + INTRA:         -12.700
REMARK INTER:                 -11.687
REMARK INTRA:                  -1.014
REMARK UNBOUND:                -1.166
REMARK  Name = 
REMARK  9 active torsions:
REMARK  status: ('A' for Active; 'I' for Inactive)
REMARK    1  A    between atoms: C_1  and  O_2
REMARK    2  A    between atoms: O_2  and  C_3
REMARK    3  A    between atoms: C_10  and  C_11
REMARK    4  A    between atoms: N_13  and  C_14
REMARK    5  A    between atoms: C_14  and  C_15
REMARK    6  A    between atoms: C_18  and  C_19
REMARK    7  A    between atoms: C_19  and  O_20
REMARK    8  A    between atoms: C_19  and  C_21
REMARK    9  A    between atoms: C_21  and  N_22
REMARK                            x       y       z     vdW  Elec       q    Type
REMARK                         _______ _______ _______ _____ _____    ______ ____
ROOT
ATOM      1  C   UNL     1      46.122   6.376  12.621  0.00  0.00    +0.000 A 
ATOM      2  C   UNL     1      45.083   6.595  11.709  0.00  0.00    +0.000 A 
ATOM      3  C   UNL     1      44.303   5.527  11.237  0.00  0.00    +0.000 A 
ATOM      4  C   UNL     1      44.533   4.214  11.675  0.00  0.00    +0.000 A 
ATOM      5  C   UNL     1      45.572   4.002  12.595  0.00  0.00    +0.000 A 
ATOM      6  C   UNL     1      46.362   5.065  13.052  0.00  0.00    +0.000 A 
ENDROOT
BRANCH   1   7
ATOM      7  C   UNL     1      46.927   7.527  13.182  0.00  0.00    +0.000 C 
BRANCH   7  10
ATOM      8  C   UNL     1      48.655   7.782  14.940  0.00  0.00    +0.000 C 
ATOM      9  O   UNL     1      48.247   8.907  15.230  0.00  0.00    +0.000 OA
ATOM     10  N   UNL     1      48.055   7.046  13.955  0.00  0.00    +0.000 N 
ATOM     11  H   UNL     1      48.369   6.103  13.769  0.00  0.00    +0.000 HD
BRANCH   8  19
ATOM     12  C   UNL     1      49.081   4.992  16.913  0.00  0.00    +0.000 A 
ATOM     13  N   UNL     1      49.538   3.935  17.616  0.00  0.00    +0.000 NA
ATOM     14  C   UNL     1      50.845   3.862  17.868  0.00  0.00    +0.000 A 
ATOM     15  N   UNL     1      51.778   4.740  17.511  0.00  0.00    +0.000 NA
ATOM     16  C   UNL     1      51.283   5.774  16.804  0.00  0.00    +0.000 A 
ATOM     17  S   UNL     1      52.327   7.002  16.274  0.00  0.00    +0.000 S 
ATOM     18  C   UNL     1      51.054   7.824  15.509  0.00  0.00    +0.000 A 
ATOM     19  C   UNL     1      49.821   7.189  15.623  0.00  0.00    +0.000 A 
ATOM     20  C   UNL     1      49.959   5.981  16.432  0.00  0.00    +0.000 A 
BRANCH  12  22
ATOM     21  C   UNL     1      47.091   3.850  16.393  0.00  0.00    +0.000 C 
ATOM     22  O   UNL     1      47.724   5.095  16.690  0.00  0.00    +0.000 OA
ENDBRANCH  12  22
ENDBRANCH   8  19
ENDBRANCH   7  10
ENDBRANCH   1   7
BRANCH   4  23
ATOM     23  C   UNL     1      43.662   3.070  11.172  0.00  0.00    +0.000 C 
BRANCH  23  24
ATOM     24  O   UNL     1      43.372   2.196  12.269  0.00  0.00    +0.000 OA
ATOM     25  H   UNL     1      42.972   1.389  11.906  0.00  0.00    +0.000 HD
ENDBRANCH  23  24
BRANCH  23  26
ATOM     26  C   UNL     1      44.305   2.302   9.983  0.00  0.00    +0.000 C 
BRANCH  26  27
ATOM     27  N   UNL     1      44.981   3.207   9.035  0.00  0.00    +0.000 N 
ATOM     28  C   UNL     1      45.942   2.583   8.219  0.00  0.00    +0.000 A 
ATOM     29  C   UNL     1      46.618   3.346   7.285  0.00  0.00    +0.000 A 
ATOM     30  C   UNL     1      47.552   2.697   6.506  0.00  0.00    +0.000 A 
ATOM     31  N   UNL     1      47.818   1.385   6.607  0.00  0.00    +0.000 NA
ATOM     32  C   UNL     1      47.096   0.726   7.520  0.00  0.00    +0.000 A 
ATOM     33  N   UNL     1      46.163   1.259   8.329  0.00  0.00    +0.000 NA
ATOM     34  H   UNL     1      45.399   4.011   9.493  0.00  0.00    +0.000 HD
ENDBRANCH  26  27
ENDBRANCH  23  26
ENDBRANCH   4  23
TORSDOF 8
ENDMDL
MODEL 4
REMARK VINA RESULT:    -7.497      1.901      2.842
REMARK INTER + INTRA:         -11.950
REMARK INTER:                 -11.069
REMARK INTRA:                  -0.881
REMARK UNBOUND:                -1.166
REMARK  Name = 
REMARK  9 active torsions:
REMARK  status: ('A' for Active; 'I' for Inactive)
REMARK    1  A    between atoms: C_1  and  O_2
REMARK    2  A    between atoms: O_2  and  C_3
REMARK    3  A    between atoms: C_10  and  C_11
REMARK    4  A    between atoms: N_13  and  C_14
REMARK    5  A    between atoms: C_14  and  C_15
REMARK    6  A    between atoms: C_18  and  C_19
REMARK    7  A    between atoms: C_19  and  O_20
REMARK    8  A    between atoms: C_19  and  C_21
REMARK    9  A    between atoms: C_21  and  N_22
REMARK                            x       y       z     vdW  Elec       q    Type
REMARK                         _______ _______ _______ _____ _____    ______ ____
ROOT
ATOM      1  C   UNL     1      46.563   6.481  12.933  0.00  0.00    +0.000 A 
ATOM      2  C   UNL     1      46.293   5.129  13.179  0.00  0.00    +0.000 A 
ATOM      3  C   UNL     1      45.369   4.425  12.392  0.00  0.00    +0.000 A 
ATOM      4  C   UNL     1      44.699   5.050  11.328  0.00  0.00    +0.000 A 
ATOM      5  C   UNL     1      44.980   6.403  11.081  0.00  0.00    +0.000 A 
ATOM      6  C   UNL     1      45.889   7.111  11.879  0.00  0.00    +0.000 A 
ENDROOT
BRANCH   1   7
ATOM      7  C   UNL     1      47.602   7.230  13.736  0.00  0.00    +0.000 C 
BRANCH   7  10
ATOM      8  C   UNL     1      48.686   6.814  15.925  0.00  0.00    +0.000 C 
ATOM      9  O   UNL     1      48.578   7.997  16.246  0.00  0.00    +0.000 OA
ATOM     10  N   UNL     1      48.226   6.365  14.717  0.00  0.00    +0.000 N 
ATOM     11  H   UNL     1      48.274   5.380  14.495  0.00  0.00    +0.000 HD
BRANCH   8  19
ATOM     12  C   UNL     1      51.771   6.681  17.450  0.00  0.00    +0.000 A 
ATOM     13  N   UNL     1      52.846   6.426  18.224  0.00  0.00    +0.000 NA
ATOM     14  C   UNL     1      52.829   5.335  18.989  0.00  0.00    +0.000 A 
ATOM     15  N   UNL     1      51.856   4.432  19.071  0.00  0.00    +0.000 NA
ATOM     16  C   UNL     1      50.799   4.727  18.290  0.00  0.00    +0.000 A 
ATOM     17  S   UNL     1      49.466   3.677  18.255  0.00  0.00    +0.000 S 
ATOM     18  C   UNL     1      48.638   4.684  17.167  0.00  0.00    +0.000 A 
ATOM     19  C   UNL     1      49.338   5.834  16.816  0.00  0.00    +0.000 A 
ATOM     20  C   UNL     1      50.647   5.834  17.463  0.00  0.00    +0.000 A 
BRANCH  12  22
ATOM     21  C   UNL     1      52.426   7.543  15.361  0.00  0.00    +0.000 C 
ATOM     22  O   UNL     1      51.804   7.784  16.623  0.00  0.00    +0.000 OA
ENDBRANCH  12  22
ENDBRANCH   8  19
ENDBRANCH   7  10
ENDBRANCH   1   7
BRANCH   4  23
ATOM     23  C   UNL     1      43.718   4.265  10.468  0.00  0.00    +0.000 C 
BRANCH  23  24
ATOM     24  O   UNL     1      42.711   3.701  11.316  0.00  0.00    +0.000 OA
ATOM     25  H   UNL     1      42.736   4.177  12.163  0.00  0.00    +0.000 HD
ENDBRANCH  23  24
BRANCH  23  26
ATOM     26  C   UNL     1      44.412   3.177   9.603  0.00  0.00    +0.000 C 
BRANCH  26  27
ATOM     27  N   UNL     1      45.089   3.749   8.424  0.00  0.00    +0.000 N 
ATOM     28  C   UNL     1      45.983   2.872   7.782  0.00  0.00    +0.000 A 
ATOM     29  C   UNL     1      46.652   3.313   6.655  0.00  0.00    +0.000 A 
ATOM     30  C   UNL     1      47.519   2.424   6.057  0.00  0.00    +0.000 A 
ATOM     31  N   UNL     1      47.726   1.175   6.505  0.00  0.00    +0.000 NA
ATOM     32  C   UNL     1      47.014   0.832   7.584  0.00  0.00    +0.000 A 
ATOM     33  N   UNL     1      46.144   1.618   8.243  0.00  0.00    +0.000 NA
ATOM     34  H   UNL     1      45.564   4.622   8.633  0.00  0.00    +0.000 HD
ENDBRANCH  26  27
ENDBRANCH  23  26
ENDBRANCH   4  23
TORSDOF 8
ENDMDL
MODEL 5
REMARK VINA RESULT:    -7.224      2.004      3.369
REMARK INTER + INTRA:         -11.557
REMARK INTER:                 -10.580
REMARK INTRA:                  -0.978
REMARK UNBOUND:                -1.166
REMARK  Name = 
REMARK  9 active torsions:
REMARK  status: ('A' for Active; 'I' for Inactive)
REMARK    1  A    between atoms: C_1  and  O_2
REMARK    2  A    between atoms: O_2  and  C_3
REMARK    3  A    between atoms: C_10  and  C_11
REMARK    4  A    between atoms: N_13  and  C_14
REMARK    5  A    between atoms: C_14  and  C_15
REMARK    6  A    between atoms: C_18  and  C_19
REMARK    7  A    between atoms: C_19  and  O_20
REMARK    8  A    between atoms: C_19  and  C_21
REMARK    9  A    between atoms: C_21  and  N_22
REMARK                            x       y       z     vdW  Elec       q    Type
REMARK                         _______ _______ _______ _____ _____    ______ ____
ROOT
ATOM      1  C   UNL     1      46.689   4.034  13.898  0.00  0.00    +0.000 A 
ATOM      2  C   UNL     1      45.988   3.128  13.094  0.00  0.00    +0.000 A 
ATOM      3  C   UNL     1      45.286   3.567  11.959  0.00  0.00    +0.000 A 
ATOM      4  C   UNL     1      45.279   4.921  11.591  0.00  0.00    +0.000 A 
ATOM      5  C   UNL     1      45.991   5.824  12.398  0.00  0.00    +0.000 A 
ATOM      6  C   UNL     1      46.676   5.388  13.540  0.00  0.00    +0.000 A 
ENDROOT
BRANCH   1   7
ATOM      7  C   UNL     1      47.498   3.563  15.086  0.00  0.00    +0.000 C 
BRANCH   7  10
ATOM      8  C   UNL     1      47.604   4.594  17.337  0.00  0.00    +0.000 C 
ATOM      9  O   UNL     1      47.175   3.569  17.867  0.00  0.00    +0.000 OA
ATOM     10  N   UNL     1      47.794   4.661  15.984  0.00  0.00    +0.000 N 
ATOM     11  H   UNL     1      48.199   5.492  15.574  0.00  0.00    +0.000 HD
BRANCH   8  19
ATOM     12  C   UNL     1      49.329   7.499  16.672  0.00  0.00    +0.000 A 
ATOM     13  N   UNL     1      49.854   8.741  16.650  0.00  0.00    +0.000 NA
ATOM     14  C   UNL     1      49.711   9.506  17.732  0.00  0.00    +0.000 A 
ATOM     15  N   UNL     1      49.108   9.176  18.871  0.00  0.00    +0.000 NA
ATOM     16  C   UNL     1      48.591   7.933  18.849  0.00  0.00    +0.000 A 
ATOM     17  S   UNL     1      47.795   7.334  20.223  0.00  0.00    +0.000 S 
ATOM     18  C   UNL     1      47.446   5.866  19.443  0.00  0.00    +0.000 A 
ATOM     19  C   UNL     1      47.908   5.799  18.132  0.00  0.00    +0.000 A 
ATOM     20  C   UNL     1      48.625   7.026  17.796  0.00  0.00    +0.000 A 
BRANCH  12  22
ATOM     21  C   UNL     1      50.099   7.355  14.454  0.00  0.00    +0.000 C 
ATOM     22  O   UNL     1      49.514   6.688  15.573  0.00  0.00    +0.000 OA
ENDBRANCH  12  22
ENDBRANCH   8  19
ENDBRANCH   7  10
ENDBRANCH   1   7
BRANCH   4  23
ATOM     23  C   UNL     1      44.534   5.377  10.344  0.00  0.00    +0.000 C 
BRANCH  23  24
ATOM     24  O   UNL     1      43.285   5.956  10.740  0.00  0.00    +0.000 OA
ATOM     25  H   UNL     1      42.818   5.307  11.290  0.00  0.00    +0.000 HD
ENDBRANCH  23  24
BRANCH  23  26
ATOM     26  C   UNL     1      44.331   4.233   9.312  0.00  0.00    +0.000 C 
BRANCH  26  27
ATOM     27  N   UNL     1      45.176   4.406   8.115  0.00  0.00    +0.000 N 
ATOM     28  C   UNL     1      45.878   3.251   7.725  0.00  0.00    +0.000 A 
ATOM     29  C   UNL     1      46.683   3.309   6.603  0.00  0.00    +0.000 A 
ATOM     30  C   UNL     1      47.355   2.156   6.255  0.00  0.00    +0.000 A 
ATOM     31  N   UNL     1      47.253   1.005   6.939  0.00  0.00    +0.000 NA
ATOM     32  C   UNL     1      46.431   1.040   7.994  0.00  0.00    +0.000 A 
ATOM     33  N   UNL     1      45.730   2.106   8.418  0.00  0.00    +0.000 NA
ATOM     34  H   UNL     1      45.825   5.181   8.205  0.00  0.00    +0.000 HD
ENDBRANCH  26  27
ENDBRANCH  23  26
ENDBRANCH   4  23
TORSDOF 8
ENDMDL
MODEL 6
REMARK VINA RESULT:    -7.028      4.736      9.318
REMARK INTER + INTRA:         -11.275
REMARK INTER:                 -10.471
REMARK INTRA:                  -0.803
REMARK UNBOUND:                -1.166
REMARK  Name = 
REMARK  9 active torsions:
REMARK  status: ('A' for Active; 'I' for Inactive)
REMARK    1  A    between atoms: C_1  and  O_2
REMARK    2  A    between atoms: O_2  and  C_3
REMARK    3  A    between atoms: C_10  and  C_11
REMARK    4  A    between atoms: N_13  and  C_14
REMARK    5  A    between atoms: C_14  and  C_15
REMARK    6  A    between atoms: C_18  and  C_19
REMARK    7  A    between atoms: C_19  and  O_20
REMARK    8  A    between atoms: C_19  and  C_21
REMARK    9  A    between atoms: C_21  and  N_22
REMARK                            x       y       z     vdW  Elec       q    Type
REMARK                         _______ _______ _______ _____ _____    ______ ____
ROOT
ATOM      1  C   UNL     1      48.669   3.354  17.187  0.00  0.00    +0.000 A 
ATOM      2  C   UNL     1      49.386   2.179  16.932  0.00  0.00    +0.000 A 
ATOM      3  C   UNL     1      50.759   2.098  17.215  0.00  0.00    +0.000 A 
ATOM      4  C   UNL     1      51.448   3.185  17.774  0.00  0.00    +0.000 A 
ATOM      5  C   UNL     1      50.721   4.358  18.035  0.00  0.00    +0.000 A 
ATOM      6  C   UNL     1      49.355   4.445  17.735  0.00  0.00    +0.000 A 
ENDROOT
BRANCH   1   7
ATOM      7  C   UNL     1      47.178   3.429  16.944  0.00  0.00    +0.000 C 
BRANCH   7  10
ATOM      8  C   UNL     1      46.954   4.178  14.592  0.00  0.00    +0.000 C 
ATOM      9  O   UNL     1      47.301   3.076  14.168  0.00  0.00    +0.000 OA
ATOM     10  N   UNL     1      46.865   4.422  15.935  0.00  0.00    +0.000 N 
ATOM     11  H   UNL     1      46.525   5.316  16.263  0.00  0.00    +0.000 HD
BRANCH   8  19
ATOM     12  C   UNL     1      44.231   4.940  12.626  0.00  0.00    +0.000 A 
ATOM     13  N   UNL     1      43.283   5.514  11.857  0.00  0.00    +0.000 NA
ATOM     14  C   UNL     1      43.545   6.704  11.316  0.00  0.00    +0.000 A 
ATOM     15  N   UNL     1      44.667   7.406  11.434  0.00  0.00    +0.000 NA
ATOM     16  C   UNL     1      45.583   6.803  12.216  0.00  0.00    +0.000 A 
ATOM     17  S   UNL     1      47.087   7.548  12.471  0.00  0.00    +0.000 S 
ATOM     18  C   UNL     1      47.595   6.290  13.491  0.00  0.00    +0.000 A 
ATOM     19  C   UNL     1      46.644   5.290  13.673  0.00  0.00    +0.000 A 
ATOM     20  C   UNL     1      45.456   5.586  12.876  0.00  0.00    +0.000 A 
BRANCH  12  22
ATOM     21  C   UNL     1      43.494   2.748  12.194  0.00  0.00    +0.000 C 
ATOM     22  O   UNL     1      43.982   3.689  13.151  0.00  0.00    +0.000 OA
ENDBRANCH  12  22
ENDBRANCH   8  19
ENDBRANCH   7  10
ENDBRANCH   1   7
BRANCH   4  23
ATOM     23  C   UNL     1      52.931   3.073  18.098  0.00  0.00    +0.000 C 
BRANCH  23  24
ATOM     24  O   UNL     1      53.590   4.267  17.658  0.00  0.00    +0.000 OA
ATOM     25  H   UNL     1      53.749   4.183  16.704  0.00  0.00    +0.000 HD
ENDBRANCH  23  24
BRANCH  23  26
ATOM     26  C   UNL     1      53.587   1.802  17.489  0.00  0.00    +0.000 C 
BRANCH  26  27
ATOM     27  N   UNL     1      53.664   0.695  18.461  0.00  0.00    +0.000 N 
ATOM     28  C   UNL     1      54.186  -0.503  17.939  0.00  0.00    +0.000 A 
ATOM     29  C   UNL     1      54.315  -1.593  18.780  0.00  0.00    +0.000 A 
ATOM     30  C   UNL     1      54.829  -2.748  18.229  0.00  0.00    +0.000 A 
ATOM     31  N   UNL     1      55.211  -2.851  16.946  0.00  0.00    +0.000 NA
ATOM     32  C   UNL     1      55.072  -1.737  16.220  0.00  0.00    +0.000 A 
ATOM     33  N   UNL     1      54.585  -0.562  16.655  0.00  0.00    +0.000 NA
ATOM     34  H   UNL     1      52.773   0.507  18.910  0.00  0.00    +0.000 HD
ENDBRANCH  26  27
ENDBRANCH  23  26
ENDBRANCH   4  23
TORSDOF 8
ENDMDL
MODEL 7
REMARK VINA RESULT:    -6.881      3.132      5.120
REMARK INTER + INTRA:         -11.064
REMARK INTER:                  -9.797
REMARK INTRA:                  -1.267
REMARK UNBOUND:                -1.166
REMARK  Name = 
REMARK  9 active torsions:
REMARK  status: ('A' for Active; 'I' for Inactive)
REMARK    1  A    between atoms: C_1  and  O_2
REMARK    2  A    between atoms: O_2  and  C_3
REMARK    3  A    between atoms: C_10  and  C_11
REMARK    4  A    between atoms: N_13  and  C_14
REMARK    5  A    between atoms: C_14  and  C_15
REMARK    6  A    between atoms: C_18  and  C_19
REMARK    7  A    between atoms: C_19  and  O_20
REMARK    8  A    between atoms: C_19  and  C_21
REMARK    9  A    between atoms: C_21  and  N_22
REMARK                            x       y       z     vdW  Elec       q    Type
REMARK                         _______ _______ _______ _____ _____    ______ ____
ROOT
ATOM      1  C   UNL     1      47.584   4.533  16.064  0.00  0.00    +0.000 A 
ATOM      2  C   UNL     1      46.778   4.043  15.030  0.00  0.00    +0.000 A 
ATOM      3  C   UNL     1      46.665   4.739  13.815  0.00  0.00    +0.000 A 
ATOM      4  C   UNL     1      47.366   5.935  13.598  0.00  0.00    +0.000 A 
ATOM      5  C   UNL     1      48.178   6.417  14.637  0.00  0.00    +0.000 A 
ATOM      6  C   UNL     1      48.276   5.733  15.856  0.00  0.00    +0.000 A 
ENDROOT
BRANCH   1   7
ATOM      7  C   UNL     1      47.761   3.760  17.352  0.00  0.00    +0.000 C 
BRANCH   7  10
ATOM      8  C   UNL     1      49.864   2.496  17.003  0.00  0.00    +0.000 C 
ATOM      9  O   UNL     1      49.328   1.760  16.173  0.00  0.00    +0.000 OA
ATOM     10  N   UNL     1      49.162   3.499  17.614  0.00  0.00    +0.000 N 
ATOM     11  H   UNL     1      49.633   4.127  18.251  0.00  0.00    +0.000 HD
BRANCH   8  19
ATOM     12  C   UNL     1      52.387   4.675  17.864  0.00  0.00    +0.000 A 
ATOM     13  N   UNL     1      53.502   5.283  18.319  0.00  0.00    +0.000 NA
ATOM     14  C   UNL     1      54.540   4.521  18.663  0.00  0.00    +0.000 A 
ATOM     15  N   UNL     1      54.616   3.196  18.596  0.00  0.00    +0.000 NA
ATOM     16  C   UNL     1      53.481   2.627  18.145  0.00  0.00    +0.000 A 
ATOM     17  S   UNL     1      53.399   0.940  17.979  0.00  0.00    +0.000 S 
ATOM     18  C   UNL     1      51.789   1.021  17.445  0.00  0.00    +0.000 A 
ATOM     19  C   UNL     1      51.275   2.312  17.392  0.00  0.00    +0.000 A 
ATOM     20  C   UNL     1      52.307   3.273  17.776  0.00  0.00    +0.000 A 
BRANCH  12  22
ATOM     21  C   UNL     1      51.073   6.572  18.325  0.00  0.00    +0.000 C 
ATOM     22  O   UNL     1      51.327   5.461  17.464  0.00  0.00    +0.000 OA
ENDBRANCH  12  22
ENDBRANCH   8  19
ENDBRANCH   7  10
ENDBRANCH   1   7
BRANCH   4  23
ATOM     23  C   UNL     1      47.252   6.664  12.266  0.00  0.00    +0.000 C 
BRANCH  23  24
ATOM     24  O   UNL     1      47.617   8.036  12.459  0.00  0.00    +0.000 OA
ATOM     25  H   UNL     1      48.321   8.247  11.824  0.00  0.00    +0.000 HD
ENDBRANCH  23  24
BRANCH  23  26
ATOM     26  C   UNL     1      45.841   6.534  11.627  0.00  0.00    +0.000 C 
BRANCH  26  27
ATOM     27  N   UNL     1      45.904   6.082  10.224  0.00  0.00    +0.000 N 
ATOM     28  C   UNL     1      45.311   4.827   9.989  0.00  0.00    +0.000 A 
ATOM     29  C   UNL     1      45.305   4.327   8.701  0.00  0.00    +0.000 A 
ATOM     30  C   UNL     1      44.715   3.095   8.513  0.00  0.00    +0.000 A 
ATOM     31  N   UNL     1      44.151   2.385   9.503  0.00  0.00    +0.000 NA
ATOM     32  C   UNL     1      44.184   2.963  10.709  0.00  0.00    +0.000 A 
ATOM     33  N   UNL     1      44.730   4.156  11.001  0.00  0.00    +0.000 NA
ATOM     34  H   UNL     1      46.850   6.082   9.857  0.00  0.00    +0.000 HD
ENDBRANCH  26  27
ENDBRANCH  23  26
ENDBRANCH   4  23
TORSDOF 8
ENDMDL
MODEL 8
REMARK VINA RESULT:    -6.746      2.687      3.924
REMARK INTER + INTRA:         -10.869
REMARK INTER:                  -9.915
REMARK INTRA:                  -0.954
REMARK UNBOUND:                -1.166
REMARK  Name = 
REMARK  9 active torsions:
REMARK  status: ('A' for Active; 'I' for Inactive)
REMARK    1  A    between atoms: C_1  and  O_2
REMARK    2  A    between atoms: O_2  and  C_3
REMARK    3  A    between atoms: C_10  and  C_11
REMARK    4  A    between atoms: N_13  and  C_14
REMARK    5  A    between atoms: C_14  and  C_15
REMARK    6  A    between atoms: C_18  and  C_19
REMARK    7  A    between atoms: C_19  and  O_20
REMARK    8  A    between atoms: C_19  and  C_21
REMARK    9  A    between atoms: C_21  and  N_22
REMARK                            x       y       z     vdW  Elec       q    Type
REMARK                         _______ _______ _______ _____ _____    ______ ____
ROOT
ATOM      1  C   UNL     1      46.646   6.659  13.255  0.00  0.00    +0.000 A 
ATOM      2  C   UNL     1      46.933   5.293  13.370  0.00  0.00    +0.000 A 
ATOM      3  C   UNL     1      46.022   4.326  12.915  0.00  0.00    +0.000 A 
ATOM      4  C   UNL     1      44.806   4.699  12.320  0.00  0.00    +0.000 A 
ATOM      5  C   UNL     1      44.528   6.071  12.201  0.00  0.00    +0.000 A 
ATOM      6  C   UNL     1      45.429   7.035  12.672  0.00  0.00    +0.000 A 
ENDROOT
BRANCH   1   7
ATOM      7  C   UNL     1      47.647   7.707  13.685  0.00  0.00    +0.000 C 
BRANCH   7  10
ATOM      8  C   UNL     1      49.540   7.756  15.284  0.00  0.00    +0.000 C 
ATOM      9  O   UNL     1      49.278   8.912  15.617  0.00  0.00    +0.000 OA
ATOM     10  N   UNL     1      48.783   7.101  14.351  0.00  0.00    +0.000 N 
ATOM     11  H   UNL     1      48.980   6.134  14.132  0.00  0.00    +0.000 HD
BRANCH   8  19
ATOM     12  C   UNL     1      52.950   8.082  14.930  0.00  0.00    +0.000 A 
ATOM     13  N   UNL     1      54.293   8.050  15.046  0.00  0.00    +0.000 NA
ATOM     14  C   UNL     1      54.834   7.172  15.891  0.00  0.00    +0.000 A 
ATOM     15  N   UNL     1      54.189   6.286  16.643  0.00  0.00    +0.000 NA
ATOM     16  C   UNL     1      52.850   6.355  16.505  0.00  0.00    +0.000 A 
ATOM     17  S   UNL     1      51.862   5.288  17.380  0.00  0.00    +0.000 S 
ATOM     18  C   UNL     1      50.454   5.982  16.733  0.00  0.00    +0.000 A 
ATOM     19  C   UNL     1      50.694   7.036  15.857  0.00  0.00    +0.000 A 
ATOM     20  C   UNL     1      52.133   7.229  15.696  0.00  0.00    +0.000 A 
BRANCH  12  22
ATOM     21  C   UNL     1      52.324   8.447  12.692  0.00  0.00    +0.000 C 
ATOM     22  O   UNL     1      52.389   8.957  14.024  0.00  0.00    +0.000 OA
ENDBRANCH  12  22
ENDBRANCH   8  19
ENDBRANCH   7  10
ENDBRANCH   1   7
BRANCH   4  23
ATOM     23  C   UNL     1      43.841   3.639  11.810  0.00  0.00    +0.000 C 
BRANCH  23  24
ATOM     24  O   UNL     1      44.141   2.395  12.453  0.00  0.00    +0.000 OA
ATOM     25  H   UNL     1      44.677   2.589  13.240  0.00  0.00    +0.000 HD
ENDBRANCH  23  24
BRANCH  23  26
ATOM     26  C   UNL     1      43.861   3.501  10.262  0.00  0.00    +0.000 C 
BRANCH  26  27
ATOM     27  N   UNL     1      44.500   2.245   9.822  0.00  0.00    +0.000 N 
ATOM     28  C   UNL     1      45.443   2.402   8.791  0.00  0.00    +0.000 A 
ATOM     29  C   UNL     1      46.108   1.284   8.323  0.00  0.00    +0.000 A 
ATOM     30  C   UNL     1      47.024   1.479   7.312  0.00  0.00    +0.000 A 
ATOM     31  N   UNL     1      47.297   2.683   6.783  0.00  0.00    +0.000 NA
ATOM     32  C   UNL     1      46.623   3.707   7.317  0.00  0.00    +0.000 A 
ATOM     33  N   UNL     1      45.712   3.628   8.303  0.00  0.00    +0.000 NA
ATOM     34  H   UNL     1      43.823   1.537   9.556  0.00  0.00    +0.000 HD
ENDBRANCH  26  27
ENDBRANCH  23  26
ENDBRANCH   4  23
TORSDOF 8
ENDMDL
MODEL 9
REMARK VINA RESULT:    -6.503      3.698      9.087
REMARK INTER + INTRA:         -10.520
REMARK INTER:                  -9.297
REMARK INTRA:                  -1.223
REMARK UNBOUND:                -1.166
REMARK  Name = 
REMARK  9 active torsions:
REMARK  status: ('A' for Active; 'I' for Inactive)
REMARK    1  A    between atoms: C_1  and  O_2
REMARK    2  A    between atoms: O_2  and  C_3
REMARK    3  A    between atoms: C_10  and  C_11
REMARK    4  A    between atoms: N_13  and  C_14
REMARK    5  A    between atoms: C_14  and  C_15
REMARK    6  A    between atoms: C_18  and  C_19
REMARK    7  A    between atoms: C_19  and  O_20
REMARK    8  A    between atoms: C_19  and  C_21
REMARK    9  A    between atoms: C_21  and  N_22
REMARK                            x       y       z     vdW  Elec       q    Type
REMARK                         _______ _______ _______ _____ _____    ______ ____
ROOT
ATOM      1  C   UNL     1      48.687   3.263  17.442  0.00  0.00    +0.000 A 
ATOM      2  C   UNL     1      49.285   4.340  18.105  0.00  0.00    +0.000 A 
ATOM      3  C   UNL     1      50.664   4.345  18.373  0.00  0.00    +0.000 A 
ATOM      4  C   UNL     1      51.482   3.277  17.972  0.00  0.00    +0.000 A 
ATOM      5  C   UNL     1      50.877   2.203  17.300  0.00  0.00    +0.000 A 
ATOM      6  C   UNL     1      49.498   2.191  17.049  0.00  0.00    +0.000 A 
ENDROOT
BRANCH   1   7
ATOM      7  C   UNL     1      47.215   3.277  17.094  0.00  0.00    +0.000 C 
BRANCH   7  10
ATOM      8  C   UNL     1      47.086   4.176  14.788  0.00  0.00    +0.000 C 
ATOM      9  O   UNL     1      47.498   3.118  14.313  0.00  0.00    +0.000 OA
ATOM     10  N   UNL     1      46.916   4.324  16.138  0.00  0.00    +0.000 N 
ATOM     11  H   UNL     1      46.523   5.181  16.504  0.00  0.00    +0.000 HD
BRANCH   8  19
ATOM     12  C   UNL     1      44.580   4.855  12.525  0.00  0.00    +0.000 A 
ATOM     13  N   UNL     1      43.686   5.405  11.678  0.00  0.00    +0.000 NA
ATOM     14  C   UNL     1      43.885   6.661  11.279  0.00  0.00    +0.000 A 
ATOM     15  N   UNL     1      44.899   7.455  11.613  0.00  0.00    +0.000 NA
ATOM     16  C   UNL     1      45.763   6.872  12.465  0.00  0.00    +0.000 A 
ATOM     17  S   UNL     1      47.129   7.731  12.991  0.00  0.00    +0.000 S 
ATOM     18  C   UNL     1      47.631   6.436  13.967  0.00  0.00    +0.000 A 
ATOM     19  C   UNL     1      46.780   5.335  13.928  0.00  0.00    +0.000 A 
ATOM     20  C   UNL     1      45.683   5.590  12.998  0.00  0.00    +0.000 A 
BRANCH  12  22
ATOM     21  C   UNL     1      43.490   2.818  12.077  0.00  0.00    +0.000 C 
ATOM     22  O   UNL     1      44.403   3.541  12.904  0.00  0.00    +0.000 OA
ENDBRANCH  12  22
ENDBRANCH   8  19
ENDBRANCH   7  10
ENDBRANCH   1   7
BRANCH   4  23
ATOM     23  C   UNL     1      52.979   3.308  18.248  0.00  0.00    +0.000 C 
BRANCH  23  24
ATOM     24  O   UNL     1      53.185   3.526  19.649  0.00  0.00    +0.000 OA
ATOM     25  H   UNL     1      53.768   2.821  19.975  0.00  0.00    +0.000 HD
ENDBRANCH  23  24
BRANCH  23  26
ATOM     26  C   UNL     1      53.728   4.366  17.389  0.00  0.00    +0.000 C 
BRANCH  26  27
ATOM     27  N   UNL     1      53.850   5.662  18.084  0.00  0.00    +0.000 N 
ATOM     28  C   UNL     1      53.281   6.748  17.394  0.00  0.00    +0.000 A 
ATOM     29  C   UNL     1      53.330   8.002  17.974  0.00  0.00    +0.000 A 
ATOM     30  C   UNL     1      52.762   9.040  17.266  0.00  0.00    +0.000 A 
ATOM     31  N   UNL     1      52.168   8.884  16.072  0.00  0.00    +0.000 NA
ATOM     32  C   UNL     1      52.148   7.631  15.605  0.00  0.00    +0.000 A 
ATOM     33  N   UNL     1      52.669   6.550  16.212  0.00  0.00    +0.000 NA
ATOM     34  H   UNL     1      54.810   5.884  18.329  0.00  0.00    +0.000 HD
ENDBRANCH  26  27
ENDBRANCH  23  26
ENDBRANCH   4  23
TORSDOF 8
ENDMDL
