MODEL 1
REMARK VINA RESULT:    -7.960      0.000      0.000
REMARK INTER + INTRA:         -12.512
REMARK INTER:                 -11.916
REMARK INTRA:                  -0.596
REMARK UNBOUND:                -0.596
REMARK  Name = 
REMARK  9 active torsions:
REMARK  status: ('A' for Active; 'I' for Inactive)
REMARK    1  A    between atoms: N_1  and  C_2
REMARK    2  A    between atoms: C_2  and  C_3
REMARK    3  A    between atoms: C_3  and  O_4
REMARK    4  A    between atoms: O_4  and  C_5
REMARK    5  A    between atoms: C_5  and  C_6
REMARK    6  A    between atoms: C_9  and  C_10
REMARK    7  A    between atoms: C_10  and  O_11
REMARK    8  A    between atoms: O_11  and  C_12
REMARK    9  A    between atoms: C_15  and  C_16
REMARK                            x       y       z     vdW  Elec       q    Type
REMARK                         _______ _______ _______ _____ _____    ______ ____
ROOT
ATOM      1  C   UNL     1      46.773   4.584  13.311  0.00  0.00    +0.000 C 
ATOM      2  C   UNL     1      45.835   3.530  12.698  0.00  0.00    +0.000 C 
ATOM      3  C   UNL     1      44.359   3.902  12.838  0.00  0.00    +0.000 C 
ATOM      4  C   UNL     1      44.043   5.286  12.254  0.00  0.00    +0.000 C 
ATOM      5  C   UNL     1      44.978   6.356  12.842  0.00  0.00    +0.000 C 
ATOM      6  C   UNL     1      46.459   5.982  12.761  0.00  0.00    +0.000 C 
ENDROOT
BRANCH   1   7
ATOM      7  C   UNL     1      46.754   4.542  14.849  0.00  0.00    +0.000 C 
BRANCH   7   8
ATOM      8  O   UNL     1      47.495   3.392  15.261  0.00  0.00    +0.000 OA
BRANCH   8   9
ATOM      9  C   UNL     1      47.592   3.282  16.683  0.00  0.00    +0.000 C 
BRANCH   9  10
ATOM     10  C   UNL     1      48.967   2.696  17.035  0.00  0.00    +0.000 C 
BRANCH  10  11
ATOM     11  N   UNL     1      49.440   1.775  15.996  0.00  0.00    +0.000 NA
ATOM     12  H   UNL     1      48.645   1.281  15.596  0.00  0.00    +0.000 HD
ATOM     13  H   UNL     1      50.015   1.066  16.460  0.00  0.00    +0.000 HD
ENDBRANCH  10  11
ENDBRANCH   9  10
ENDBRANCH   8   9
ENDBRANCH   7   8
ENDBRANCH   1   7
BRANCH   4  14
ATOM     14  C   UNL     1      44.093   5.293  10.715  0.00  0.00    +0.000 C 
BRANCH  14  15
ATOM     15  O   UNL     1      43.794   3.980  10.221  0.00  0.00    +0.000 OA
BRANCH  15  16
ATOM     16  C   UNL     1      44.706   3.557   9.276  0.00  0.00    +0.000 A 
ATOM     17  C   UNL     1      45.063   2.223   9.285  0.00  0.00    +0.000 A 
ATOM     18  C   UNL     1      45.966   1.776   8.324  0.00  0.00    +0.000 A 
ATOM     19  C   UNL     1      46.452   2.699   7.412  0.00  0.00    +0.000 A 
ATOM     20  N   UNL     1      46.089   4.005   7.432  0.00  0.00    +0.000 NA
ATOM     21  N   UNL     1      45.208   4.434   8.375  0.00  0.00    +0.000 NA
BRANCH  19  22
ATOM     22  C   UNL     1      47.403   2.301   6.336  0.00  0.00    +0.000 C 
ATOM     23  N   UNL     1      47.483   3.154   5.266  0.00  0.00    +0.000 N 
ATOM     24  O   UNL     1      48.068   1.277   6.396  0.00  0.00    +0.000 OA
ATOM     25  H   UNL     1      46.920   3.994   5.227  0.00  0.00    +0.000 HD
ATOM     26  H   UNL     1      48.103   2.928   4.500  0.00  0.00    +0.000 HD
ENDBRANCH  19  22
ENDBRANCH  15  16
ENDBRANCH  14  15
ENDBRANCH   4  14
TORSDOF 9
ENDMDL
MODEL 2
REMARK VINA RESULT:    -7.339      2.827      3.738
REMARK INTER + INTRA:         -11.583
REMARK INTER:                 -10.814
REMARK INTRA:                  -0.768
REMARK UNBOUND:                -0.596
REMARK  Name = 
REMARK  9 active torsions:
REMARK  status: ('A' for Active; 'I' for Inactive)
REMARK    1  A    between atoms: N_1  and  C_2
REMARK    2  A    between atoms: C_2  and  C_3
REMARK    3  A    between atoms: C_3  and  O_4
REMARK    4  A    between atoms: O_4  and  C_5
REMARK    5  A    between atoms: C_5  and  C_6
REMARK    6  A    between atoms: C_9  and  C_10
REMARK    7  A    between atoms: C_10  and  O_11
REMARK    8  A    between atoms: O_11  and  C_12
REMARK    9  A    between atoms: C_15  and  C_16
REMARK                            x       y       z     vdW  Elec       q    Type
REMARK                         _______ _______ _______ _____ _____    ______ ____
ROOT
ATOM      1  C   UNL     1      46.905   5.999  12.352  0.00  0.00    +0.000 C 
ATOM      2  C   UNL     1      46.287   4.847  13.162  0.00  0.00    +0.000 C 
ATOM      3  C   UNL     1      44.781   5.012  13.368  0.00  0.00    +0.000 C 
ATOM      4  C   UNL     1      44.023   5.186  12.043  0.00  0.00    +0.000 C 
ATOM      5  C   UNL     1      44.633   6.324  11.208  0.00  0.00    +0.000 C 
ATOM      6  C   UNL     1      46.148   6.209  11.034  0.00  0.00    +0.000 C 
ENDROOT
BRANCH   1   7
ATOM      7  C   UNL     1      47.009   7.290  13.180  0.00  0.00    +0.000 C 
BRANCH   7   8
ATOM      8  O   UNL     1      47.427   8.338  12.302  0.00  0.00    +0.000 OA
BRANCH   8   9
ATOM      9  C   UNL     1      46.943   9.620  12.708  0.00  0.00    +0.000 C 
BRANCH   9  10
ATOM     10  C   UNL     1      45.713   9.970  11.858  0.00  0.00    +0.000 C 
BRANCH  10  11
ATOM     11  N   UNL     1      44.473   9.856  12.636  0.00  0.00    +0.000 NA
ATOM     12  H   UNL     1      44.463   8.962  13.122  0.00  0.00    +0.000 HD
ATOM     13  H   UNL     1      43.699   9.828  11.966  0.00  0.00    +0.000 HD
ENDBRANCH  10  11
ENDBRANCH   9  10
ENDBRANCH   8   9
ENDBRANCH   7   8
ENDBRANCH   1   7
BRANCH   4  14
ATOM     14  C   UNL     1      43.960   3.877  11.234  0.00  0.00    +0.000 C 
BRANCH  14  15
ATOM     15  O   UNL     1      43.713   4.179   9.854  0.00  0.00    +0.000 OA
BRANCH  15  16
ATOM     16  C   UNL     1      44.701   3.686   9.027  0.00  0.00    +0.000 A 
ATOM     17  C   UNL     1      45.056   2.360   9.176  0.00  0.00    +0.000 A 
ATOM     18  C   UNL     1      46.036   1.842   8.333  0.00  0.00    +0.000 A 
ATOM     19  C   UNL     1      46.596   2.690   7.391  0.00  0.00    +0.000 A 
ATOM     20  N   UNL     1      46.232   3.991   7.273  0.00  0.00    +0.000 NA
ATOM     21  N   UNL     1      45.275   4.489   8.101  0.00  0.00    +0.000 NA
BRANCH  19  22
ATOM     22  C   UNL     1      47.634   2.212   6.434  0.00  0.00    +0.000 C 
ATOM     23  N   UNL     1      47.794   2.967   5.302  0.00  0.00    +0.000 N 
ATOM     24  O   UNL     1      48.299   1.207   6.639  0.00  0.00    +0.000 OA
ATOM     25  H   UNL     1      47.230   3.793   5.143  0.00  0.00    +0.000 HD
ATOM     26  H   UNL     1      48.475   2.683   4.611  0.00  0.00    +0.000 HD
ENDBRANCH  19  22
ENDBRANCH  15  16
ENDBRANCH  14  15
ENDBRANCH   4  14
TORSDOF 9
ENDMDL
MODEL 3
REMARK VINA RESULT:    -6.990      1.797      1.901
REMARK INTER + INTRA:         -11.059
REMARK INTER:                 -10.589
REMARK INTRA:                  -0.470
REMARK UNBOUND:                -0.596
REMARK  Name = 
REMARK  9 active torsions:
REMARK  status: ('A' for Active; 'I' for Inactive)
REMARK    1  A    between atoms: N_1  and  C_2
REMARK    2  A    between atoms: C_2  and  C_3
REMARK    3  A    between atoms: C_3  and  O_4
REMARK    4  A    between atoms: O_4  and  C_5
REMARK    5  A    between atoms: C_5  and  C_6
REMARK    6  A    between atoms: C_9  and  C_10
REMARK    7  A    between atoms: C_10  and  O_11
REMARK    8  A    between atoms: O_11  and  C_12
REMARK    9  A    between atoms: C_15  and  C_16
REMARK                            x       y       z     vdW  Elec       q    Type
REMARK                         _______ _______ _______ _____ _____    ______ ____
ROOT
ATOM      1  C   UNL     1      46.833   5.416  12.591  0.00  0.00    +0.000 C 
ATOM      2  C   UNL     1      46.000   4.246  13.142  0.00  0.00    +0.000 C 
ATOM      3  C   UNL     1      44.532   4.616  13.355  0.00  0.00    +0.000 C 
ATOM      4  C   UNL     1      43.876   5.172  12.082  0.00  0.00    +0.000 C 
ATOM      5  C   UNL     1      44.699   6.335  11.505  0.00  0.00    +0.000 C 
ATOM      6  C   UNL     1      46.183   6.006  11.333  0.00  0.00    +0.000 C 
ENDROOT
BRANCH   1   7
ATOM      7  C   UNL     1      47.102   6.482  13.666  0.00  0.00    +0.000 C 
BRANCH   7   8
ATOM      8  O   UNL     1      48.500   6.458  13.963  0.00  0.00    +0.000 OA
BRANCH   8   9
ATOM      9  C   UNL     1      48.847   7.325  15.044  0.00  0.00    +0.000 C 
BRANCH   9  10
ATOM     10  C   UNL     1      49.850   6.599  15.952  0.00  0.00    +0.000 C 
BRANCH  10  11
ATOM     11  N   UNL     1      49.279   5.363  16.500  0.00  0.00    +0.000 NA
ATOM     12  H   UNL     1      48.942   5.538  17.445  0.00  0.00    +0.000 HD
ATOM     13  H   UNL     1      50.047   4.691  16.590  0.00  0.00    +0.000 HD
ENDBRANCH  10  11
ENDBRANCH   9  10
ENDBRANCH   8   9
ENDBRANCH   7   8
ENDBRANCH   1   7
BRANCH   4  14
ATOM     14  C   UNL     1      43.643   4.079  11.023  0.00  0.00    +0.000 C 
BRANCH  14  15
ATOM     15  O   UNL     1      43.772   4.647   9.713  0.00  0.00    +0.000 OA
BRANCH  15  16
ATOM     16  C   UNL     1      44.742   4.015   8.963  0.00  0.00    +0.000 A 
ATOM     17  C   UNL     1      44.867   2.647   9.102  0.00  0.00    +0.000 A 
ATOM     18  C   UNL     1      45.827   1.992   8.335  0.00  0.00    +0.000 A 
ATOM     19  C   UNL     1      46.601   2.755   7.474  0.00  0.00    +0.000 A 
ATOM     20  N   UNL     1      46.460   4.099   7.364  0.00  0.00    +0.000 NA
ATOM     21  N   UNL     1      45.521   4.731   8.118  0.00  0.00    +0.000 NA
BRANCH  19  22
ATOM     22  C   UNL     1      47.634   2.131   6.600  0.00  0.00    +0.000 C 
ATOM     23  N   UNL     1      47.984   2.848   5.485  0.00  0.00    +0.000 N 
ATOM     24  O   UNL     1      48.139   1.047   6.854  0.00  0.00    +0.000 OA
ATOM     25  H   UNL     1      47.551   3.741   5.284  0.00  0.00    +0.000 HD
ATOM     26  H   UNL     1      48.671   2.468   4.849  0.00  0.00    +0.000 HD
ENDBRANCH  19  22
ENDBRANCH  15  16
ENDBRANCH  14  15
ENDBRANCH   4  14
TORSDOF 9
ENDMDL
MODEL 4
REMARK VINA RESULT:    -6.370      2.035      2.505
REMARK INTER + INTRA:         -10.131
REMARK INTER:                 -10.125
REMARK INTRA:                  -0.007
REMARK UNBOUND:                -0.596
REMARK  Name = 
REMARK  9 active torsions:
REMARK  status: ('A' for Active; 'I' for Inactive)
REMARK    1  A    between atoms: N_1  and  C_2
REMARK    2  A    between atoms: C_2  and  C_3
REMARK    3  A    between atoms: C_3  and  O_4
REMARK    4  A    between atoms: O_4  and  C_5
REMARK    5  A    between atoms: C_5  and  C_6
REMARK    6  A    between atoms: C_9  and  C_10
REMARK    7  A    between atoms: C_10  and  O_11
REMARK    8  A    between atoms: O_11  and  C_12
REMARK    9  A    between atoms: C_15  and  C_16
REMARK                            x       y       z     vdW  Elec       q    Type
REMARK                         _______ _______ _______ _____ _____    ______ ____
ROOT
ATOM      1  C   UNL     1      46.405   6.732  13.319  0.00  0.00    +0.000 C 
ATOM      2  C   UNL     1      45.961   7.254  11.942  0.00  0.00    +0.000 C 
ATOM      3  C   UNL     1      46.140   6.218  10.833  0.00  0.00    +0.000 C 
ATOM      4  C   UNL     1      45.426   4.894  11.144  0.00  0.00    +0.000 C 
ATOM      5  C   UNL     1      45.844   4.359  12.524  0.00  0.00    +0.000 C 
ATOM      6  C   UNL     1      45.725   5.395  13.643  0.00  0.00    +0.000 C 
ENDROOT
BRANCH   1   7
ATOM      7  C   UNL     1      47.937   6.652  13.434  0.00  0.00    +0.000 C 
BRANCH   7   8
ATOM      8  O   UNL     1      48.247   5.924  14.624  0.00  0.00    +0.000 OA
BRANCH   8   9
ATOM      9  C   UNL     1      49.071   6.667  15.524  0.00  0.00    +0.000 C 
BRANCH   9  10
ATOM     10  C   UNL     1      49.463   5.754  16.695  0.00  0.00    +0.000 C 
BRANCH  10  11
ATOM     11  N   UNL     1      50.918   5.583  16.779  0.00  0.00    +0.000 NA
ATOM     12  H   UNL     1      51.132   4.854  17.457  0.00  0.00    +0.000 HD
ATOM     13  H   UNL     1      51.302   6.451  17.161  0.00  0.00    +0.000 HD
ENDBRANCH  10  11
ENDBRANCH   9  10
ENDBRANCH   8   9
ENDBRANCH   7   8
ENDBRANCH   1   7
BRANCH   4  14
ATOM     14  C   UNL     1      43.896   5.021  11.040  0.00  0.00    +0.000 C 
BRANCH  14  15
ATOM     15  O   UNL     1      43.468   4.600   9.737  0.00  0.00    +0.000 OA
BRANCH  15  16
ATOM     16  C   UNL     1      44.349   3.709   9.160  0.00  0.00    +0.000 A 
ATOM     17  C   UNL     1      45.141   4.173   8.128  0.00  0.00    +0.000 A 
ATOM     18  C   UNL     1      46.051   3.291   7.549  0.00  0.00    +0.000 A 
ATOM     19  C   UNL     1      46.108   1.999   8.047  0.00  0.00    +0.000 A 
ATOM     20  N   UNL     1      45.312   1.571   9.057  0.00  0.00    +0.000 NA
ATOM     21  N   UNL     1      44.425   2.437   9.615  0.00  0.00    +0.000 NA
BRANCH  19  22
ATOM     22  C   UNL     1      47.069   0.999   7.502  0.00  0.00    +0.000 C 
ATOM     23  N   UNL     1      48.145   1.513   6.825  0.00  0.00    +0.000 N 
ATOM     24  O   UNL     1      46.912  -0.205   7.645  0.00  0.00    +0.000 OA
ATOM     25  H   UNL     1      48.257   2.513   6.709  0.00  0.00    +0.000 HD
ATOM     26  H   UNL     1      48.823   0.881   6.423  0.00  0.00    +0.000 HD
ENDBRANCH  19  22
ENDBRANCH  15  16
ENDBRANCH  14  15
ENDBRANCH   4  14
TORSDOF 9
ENDMDL
MODEL 5
REMARK VINA RESULT:    -6.022      3.026      3.907
REMARK INTER + INTRA:          -9.611
REMARK INTER:                  -8.978
REMARK INTRA:                  -0.633
REMARK UNBOUND:                -0.596
REMARK  Name = 
REMARK  9 active torsions:
REMARK  status: ('A' for Active; 'I' for Inactive)
REMARK    1  A    between atoms: N_1  and  C_2
REMARK    2  A    between atoms: C_2  and  C_3
REMARK    3  A    between atoms: C_3  and  O_4
REMARK    4  A    between atoms: O_4  and  C_5
REMARK    5  A    between atoms: C_5  and  C_6
REMARK    6  A    between atoms: C_9  and  C_10
REMARK    7  A    between atoms: C_10  and  O_11
REMARK    8  A    between atoms: O_11  and  C_12
REMARK    9  A    between atoms: C_15  and  C_16
REMARK                            x       y       z     vdW  Elec       q    Type
REMARK                         _______ _______ _______ _____ _____    ______ ____
ROOT
ATOM      1  C   UNL     1      46.330   7.984  13.267  0.00  0.00    +0.000 C 
ATOM      2  C   UNL     1      44.891   8.049  12.726  0.00  0.00    +0.000 C 
ATOM      3  C   UNL     1      44.809   7.743  11.231  0.00  0.00    +0.000 C 
ATOM      4  C   UNL     1      45.442   6.390  10.872  0.00  0.00    +0.000 C 
ATOM      5  C   UNL     1      46.877   6.296  11.416  0.00  0.00    +0.000 C 
ATOM      6  C   UNL     1      46.993   6.650  12.899  0.00  0.00    +0.000 C 
ENDROOT
BRANCH   1   7
ATOM      7  C   UNL     1      47.164   9.196  12.821  0.00  0.00    +0.000 C 
BRANCH   7   8
ATOM      8  O   UNL     1      48.540   8.887  13.055  0.00  0.00    +0.000 OA
BRANCH   8   9
ATOM      9  C   UNL     1      49.416   9.567  12.153  0.00  0.00    +0.000 C 
BRANCH   9  10
ATOM     10  C   UNL     1      50.251   8.521  11.401  0.00  0.00    +0.000 C 
BRANCH  10  11
ATOM     11  N   UNL     1      50.472   7.322  12.217  0.00  0.00    +0.000 NA
ATOM     12  H   UNL     1      49.879   7.364  13.044  0.00  0.00    +0.000 HD
ATOM     13  H   UNL     1      51.438   7.360  12.554  0.00  0.00    +0.000 HD
ENDBRANCH  10  11
ENDBRANCH   9  10
ENDBRANCH   8   9
ENDBRANCH   7   8
ENDBRANCH   1   7
BRANCH   4  14
ATOM     14  C   UNL     1      44.588   5.203  11.354  0.00  0.00    +0.000 C 
BRANCH  14  15
ATOM     15  O   UNL     1      43.881   4.638  10.242  0.00  0.00    +0.000 OA
BRANCH  15  16
ATOM     16  C   UNL     1      44.680   3.810   9.481  0.00  0.00    +0.000 A 
ATOM     17  C   UNL     1      45.323   4.367   8.393  0.00  0.00    +0.000 A 
ATOM     18  C   UNL     1      46.151   3.549   7.628  0.00  0.00    +0.000 A 
ATOM     19  C   UNL     1      46.281   2.222   8.007  0.00  0.00    +0.000 A 
ATOM     20  N   UNL     1      45.631   1.702   9.077  0.00  0.00    +0.000 NA
ATOM     21  N   UNL     1      44.823   2.507   9.818  0.00  0.00    +0.000 NA
BRANCH  19  22
ATOM     22  C   UNL     1      47.165   1.284   7.258  0.00  0.00    +0.000 C 
ATOM     23  N   UNL     1      48.301   1.834   6.723  0.00  0.00    +0.000 N 
ATOM     24  O   UNL     1      46.896   0.099   7.124  0.00  0.00    +0.000 OA
ATOM     25  H   UNL     1      48.506   2.819   6.837  0.00  0.00    +0.000 HD
ATOM     26  H   UNL     1      48.932   1.247   6.195  0.00  0.00    +0.000 HD
ENDBRANCH  19  22
ENDBRANCH  15  16
ENDBRANCH  14  15
ENDBRANCH   4  14
TORSDOF 9
ENDMDL
MODEL 6
REMARK VINA RESULT:    -5.996      2.903      3.400
REMARK INTER + INTRA:          -9.572
REMARK INTER:                  -8.952
REMARK INTRA:                  -0.620
REMARK UNBOUND:                -0.596
REMARK  Name = 
REMARK  9 active torsions:
REMARK  status: ('A' for Active; 'I' for Inactive)
REMARK    1  A    between atoms: N_1  and  C_2
REMARK    2  A    between atoms: C_2  and  C_3
REMARK    3  A    between atoms: C_3  and  O_4
REMARK    4  A    between atoms: O_4  and  C_5
REMARK    5  A    between atoms: C_5  and  C_6
REMARK    6  A    between atoms: C_9  and  C_10
REMARK    7  A    between atoms: C_10  and  O_11
REMARK    8  A    between atoms: O_11  and  C_12
REMARK    9  A    between atoms: C_15  and  C_16
REMARK                            x       y       z     vdW  Elec       q    Type
REMARK                         _______ _______ _______ _____ _____    ______ ____
ROOT
ATOM      1  C   UNL     1      47.760   8.412  12.511  0.00  0.00    +0.000 C 
ATOM      2  C   UNL     1      48.011   7.005  11.943  0.00  0.00    +0.000 C 
ATOM      3  C   UNL     1      47.019   5.970  12.473  0.00  0.00    +0.000 C 
ATOM      4  C   UNL     1      45.558   6.378  12.233  0.00  0.00    +0.000 C 
ATOM      5  C   UNL     1      45.287   7.789  12.780  0.00  0.00    +0.000 C 
ATOM      6  C   UNL     1      46.299   8.833  12.306  0.00  0.00    +0.000 C 
ENDROOT
BRANCH   1   7
ATOM      7  C   UNL     1      48.201   8.523  13.980  0.00  0.00    +0.000 C 
BRANCH   7   8
ATOM      8  O   UNL     1      49.110   9.621  14.080  0.00  0.00    +0.000 OA
BRANCH   8   9
ATOM      9  C   UNL     1      50.168   9.375  15.008  0.00  0.00    +0.000 C 
BRANCH   9  10
ATOM     10  C   UNL     1      50.597   7.906  14.884  0.00  0.00    +0.000 C 
BRANCH  10  11
ATOM     11  N   UNL     1      51.840   7.773  14.117  0.00  0.00    +0.000 NA
ATOM     12  H   UNL     1      51.777   8.340  13.273  0.00  0.00    +0.000 HD
ATOM     13  H   UNL     1      51.899   6.800  13.805  0.00  0.00    +0.000 HD
ENDBRANCH  10  11
ENDBRANCH   9  10
ENDBRANCH   8   9
ENDBRANCH   7   8
ENDBRANCH   1   7
BRANCH   4  14
ATOM     14  C   UNL     1      45.162   6.275  10.749  0.00  0.00    +0.000 C 
BRANCH  14  15
ATOM     15  O   UNL     1      44.539   5.006  10.506  0.00  0.00    +0.000 OA
BRANCH  15  16
ATOM     16  C   UNL     1      45.180   4.290   9.516  0.00  0.00    +0.000 A 
ATOM     17  C   UNL     1      45.058   2.914   9.542  0.00  0.00    +0.000 A 
ATOM     18  C   UNL     1      45.680   2.179   8.536  0.00  0.00    +0.000 A 
ATOM     19  C   UNL     1      46.384   2.874   7.565  0.00  0.00    +0.000 A 
ATOM     20  N   UNL     1      46.492   4.226   7.570  0.00  0.00    +0.000 NA
ATOM     21  N   UNL     1      45.882   4.936   8.556  0.00  0.00    +0.000 NA
BRANCH  19  22
ATOM     22  C   UNL     1      47.059   2.167   6.440  0.00  0.00    +0.000 C 
ATOM     23  N   UNL     1      47.436   2.954   5.383  0.00  0.00    +0.000 N 
ATOM     24  O   UNL     1      47.262   0.962   6.453  0.00  0.00    +0.000 OA
ATOM     25  H   UNL     1      47.254   3.950   5.384  0.00  0.00    +0.000 HD
ATOM     26  H   UNL     1      47.888   2.526   4.586  0.00  0.00    +0.000 HD
ENDBRANCH  19  22
ENDBRANCH  15  16
ENDBRANCH  14  15
ENDBRANCH   4  14
TORSDOF 9
ENDMDL
MODEL 7
REMARK VINA RESULT:    -5.615      3.880      8.775
REMARK INTER + INTRA:          -9.002
REMARK INTER:                  -8.412
REMARK INTRA:                  -0.590
REMARK UNBOUND:                -0.596
REMARK  Name = 
REMARK  9 active torsions:
REMARK  status: ('A' for Active; 'I' for Inactive)
REMARK    1  A    between atoms: N_1  and  C_2
REMARK    2  A    between atoms: C_2  and  C_3
REMARK    3  A    between atoms: C_3  and  O_4
REMARK    4  A    between atoms: O_4  and  C_5
REMARK    5  A    between atoms: C_5  and  C_6
REMARK    6  A    between atoms: C_9  and  C_10
REMARK    7  A    between atoms: C_10  and  O_11
REMARK    8  A    between atoms: O_11  and  C_12
REMARK    9  A    between atoms: C_15  and  C_16
REMARK                            x       y       z     vdW  Elec       q    Type
REMARK                         _______ _______ _______ _____ _____    ______ ____
ROOT
ATOM      1  C   UNL     1      45.200   6.456  12.269  0.00  0.00    +0.000 C 
ATOM      2  C   UNL     1      45.747   5.585  13.413  0.00  0.00    +0.000 C 
ATOM      3  C   UNL     1      47.194   5.148  13.182  0.00  0.00    +0.000 C 
ATOM      4  C   UNL     1      48.134   6.337  12.934  0.00  0.00    +0.000 C 
ATOM      5  C   UNL     1      47.600   7.231  11.803  0.00  0.00    +0.000 C 
ATOM      6  C   UNL     1      46.136   7.637  11.985  0.00  0.00    +0.000 C 
ENDROOT
BRANCH   1   7
ATOM      7  C   UNL     1      44.905   5.626  11.008  0.00  0.00    +0.000 C 
BRANCH   7   8
ATOM      8  O   UNL     1      43.486   5.522  10.877  0.00  0.00    +0.000 OA
BRANCH   8   9
ATOM      9  C   UNL     1      42.942   4.441  11.637  0.00  0.00    +0.000 C 
BRANCH   9  10
ATOM     10  C   UNL     1      43.764   3.177  11.347  0.00  0.00    +0.000 C 
BRANCH  10  11
ATOM     11  N   UNL     1      42.995   1.959  11.630  0.00  0.00    +0.000 NA
ATOM     12  H   UNL     1      42.537   1.644  10.777  0.00  0.00    +0.000 HD
ATOM     13  H   UNL     1      42.246   2.220  12.277  0.00  0.00    +0.000 HD
ENDBRANCH  10  11
ENDBRANCH   9  10
ENDBRANCH   8   9
ENDBRANCH   7   8
ENDBRANCH   1   7
BRANCH   4  14
ATOM     14  C   UNL     1      48.386   7.155  14.214  0.00  0.00    +0.000 C 
BRANCH  14  15
ATOM     15  O   UNL     1      49.524   6.623  14.906  0.00  0.00    +0.000 OA
BRANCH  15  16
ATOM     16  C   UNL     1      49.229   6.276  16.208  0.00  0.00    +0.000 A 
ATOM     17  C   UNL     1      48.799   7.279  17.054  0.00  0.00    +0.000 A 
ATOM     18  C   UNL     1      48.476   6.941  18.366  0.00  0.00    +0.000 A 
ATOM     19  C   UNL     1      48.604   5.614  18.744  0.00  0.00    +0.000 A 
ATOM     20  N   UNL     1      49.036   4.651  17.892  0.00  0.00    +0.000 NA
ATOM     21  N   UNL     1      49.351   4.990  16.613  0.00  0.00    +0.000 NA
BRANCH  19  22
ATOM     22  C   UNL     1      48.257   5.161  20.120  0.00  0.00    +0.000 C 
ATOM     23  N   UNL     1      48.572   3.861  20.418  0.00  0.00    +0.000 N 
ATOM     24  O   UNL     1      47.721   5.898  20.936  0.00  0.00    +0.000 OA
ATOM     25  H   UNL     1      49.010   3.261  19.730  0.00  0.00    +0.000 HD
ATOM     26  H   UNL     1      48.349   3.496  21.334  0.00  0.00    +0.000 HD
ENDBRANCH  19  22
ENDBRANCH  15  16
ENDBRANCH  14  15
ENDBRANCH   4  14
TORSDOF 9
ENDMDL
MODEL 8
REMARK VINA RESULT:    -5.525      2.412      8.538
REMARK INTER + INTRA:          -8.867
REMARK INTER:                  -8.981
REMARK INTRA:                   0.114
REMARK UNBOUND:                -0.596
REMARK  Name = 
REMARK  9 active torsions:
REMARK  status: ('A' for Active; 'I' for Inactive)
REMARK    1  A    between atoms: N_1  and  C_2
REMARK    2  A    between atoms: C_2  and  C_3
REMARK    3  A    between atoms: C_3  and  O_4
REMARK    4  A    between atoms: O_4  and  C_5
REMARK    5  A    between atoms: C_5  and  C_6
REMARK    6  A    between atoms: C_9  and  C_10
REMARK    7  A    between atoms: C_10  and  O_11
REMARK    8  A    between atoms: O_11  and  C_12
REMARK    9  A    between atoms: C_15  and  C_16
REMARK                            x       y       z     vdW  Elec       q    Type
REMARK                         _______ _______ _______ _____ _____    ______ ____
ROOT
ATOM      1  C   UNL     1      43.679   5.516  12.250  0.00  0.00    +0.000 C 
ATOM      2  C   UNL     1      43.883   4.175  12.975  0.00  0.00    +0.000 C 
ATOM      3  C   UNL     1      45.230   3.529  12.653  0.00  0.00    +0.000 C 
ATOM      4  C   UNL     1      46.414   4.464  12.940  0.00  0.00    +0.000 C 
ATOM      5  C   UNL     1      46.225   5.818  12.236  0.00  0.00    +0.000 C 
ATOM      6  C   UNL     1      44.862   6.459  12.500  0.00  0.00    +0.000 C 
ENDROOT
BRANCH   1   7
ATOM      7  C   UNL     1      43.394   5.318  10.751  0.00  0.00    +0.000 C 
BRANCH   7   8
ATOM      8  O   UNL     1      44.036   4.108  10.342  0.00  0.00    +0.000 OA
BRANCH   8   9
ATOM      9  C   UNL     1      44.555   4.184   9.013  0.00  0.00    +0.000 C 
BRANCH   9  10
ATOM     10  C   UNL     1      45.053   2.792   8.602  0.00  0.00    +0.000 C 
BRANCH  10  11
ATOM     11  N   UNL     1      44.569   1.755   9.520  0.00  0.00    +0.000 NA
ATOM     12  H   UNL     1      45.141   1.758  10.363  0.00  0.00    +0.000 HD
ATOM     13  H   UNL     1      44.731   0.851   9.067  0.00  0.00    +0.000 HD
ENDBRANCH  10  11
ENDBRANCH   9  10
ENDBRANCH   8   9
ENDBRANCH   7   8
ENDBRANCH   1   7
BRANCH   4  14
ATOM     14  C   UNL     1      46.652   4.654  14.449  0.00  0.00    +0.000 C 
BRANCH  14  15
ATOM     15  O   UNL     1      47.267   3.476  14.989  0.00  0.00    +0.000 OA
BRANCH  15  16
ATOM     16  C   UNL     1      47.704   3.661  16.284  0.00  0.00    +0.000 A 
ATOM     17  C   UNL     1      48.669   2.796  16.763  0.00  0.00    +0.000 A 
ATOM     18  C   UNL     1      49.136   2.984  18.061  0.00  0.00    +0.000 A 
ATOM     19  C   UNL     1      48.606   4.032  18.796  0.00  0.00    +0.000 A 
ATOM     20  N   UNL     1      47.655   4.862  18.301  0.00  0.00    +0.000 NA
ATOM     21  N   UNL     1      47.202   4.670  17.033  0.00  0.00    +0.000 NA
BRANCH  19  22
ATOM     22  C   UNL     1      49.067   4.319  20.184  0.00  0.00    +0.000 C 
ATOM     23  N   UNL     1      50.407   4.573  20.326  0.00  0.00    +0.000 N 
ATOM     24  O   UNL     1      48.304   4.324  21.139  0.00  0.00    +0.000 OA
ATOM     25  H   UNL     1      51.027   4.557  19.526  0.00  0.00    +0.000 HD
ATOM     26  H   UNL     1      50.778   4.762  21.247  0.00  0.00    +0.000 HD
ENDBRANCH  19  22
ENDBRANCH  15  16
ENDBRANCH  14  15
ENDBRANCH   4  14
TORSDOF 9
ENDMDL
MODEL 9
REMARK VINA RESULT:    -5.395      3.216      5.937
REMARK INTER + INTRA:          -8.672
REMARK INTER:                  -8.182
REMARK INTRA:                  -0.490
REMARK UNBOUND:                -0.596
REMARK  Name = 
REMARK  9 active torsions:
REMARK  status: ('A' for Active; 'I' for Inactive)
REMARK    1  A    between atoms: N_1  and  C_2
REMARK    2  A    between atoms: C_2  and  C_3
REMARK    3  A    between atoms: C_3  and  O_4
REMARK    4  A    between atoms: O_4  and  C_5
REMARK    5  A    between atoms: C_5  and  C_6
REMARK    6  A    between atoms: C_9  and  C_10
REMARK    7  A    between atoms: C_10  and  O_11
REMARK    8  A    between atoms: O_11  and  C_12
REMARK    9  A    between atoms: C_15  and  C_16
REMARK                            x       y       z     vdW  Elec       q    Type
REMARK                         _______ _______ _______ _____ _____    ______ ____
ROOT
ATOM      1  C   UNL     1      50.735   4.237  17.897  0.00  0.00    +0.000 C 
ATOM      2  C   UNL     1      49.861   2.972  17.929  0.00  0.00    +0.000 C 
ATOM      3  C   UNL     1      48.400   3.274  18.263  0.00  0.00    +0.000 C 
ATOM      4  C   UNL     1      47.783   4.313  17.316  0.00  0.00    +0.000 C 
ATOM      5  C   UNL     1      48.648   5.583  17.256  0.00  0.00    +0.000 C 
ATOM      6  C   UNL     1      50.126   5.301  16.976  0.00  0.00    +0.000 C 
ENDROOT
BRANCH   1   7
ATOM      7  C   UNL     1      51.014   4.775  19.311  0.00  0.00    +0.000 C 
BRANCH   7   8
ATOM      8  O   UNL     1      52.251   4.214  19.754  0.00  0.00    +0.000 OA
BRANCH   8   9
ATOM      9  C   UNL     1      53.192   4.050  18.691  0.00  0.00    +0.000 C 
BRANCH   9  10
ATOM     10  C   UNL     1      53.941   2.726  18.901  0.00  0.00    +0.000 C 
BRANCH  10  11
ATOM     11  N   UNL     1      54.179   2.463  20.325  0.00  0.00    +0.000 NA
ATOM     12  H   UNL     1      53.556   3.044  20.882  0.00  0.00    +0.000 HD
ATOM     13  H   UNL     1      55.130   2.779  20.534  0.00  0.00    +0.000 HD
ENDBRANCH  10  11
ENDBRANCH   9  10
ENDBRANCH   8   9
ENDBRANCH   7   8
ENDBRANCH   1   7
BRANCH   4  14
ATOM     14  C   UNL     1      47.539   3.743  15.907  0.00  0.00    +0.000 C 
BRANCH  14  15
ATOM     15  O   UNL     1      47.536   4.812  14.951  0.00  0.00    +0.000 OA
BRANCH  15  16
ATOM     16  C   UNL     1      46.649   4.588  13.919  0.00  0.00    +0.000 A 
ATOM     17  C   UNL     1      46.133   5.693  13.269  0.00  0.00    +0.000 A 
ATOM     18  C   UNL     1      45.253   5.483  12.211  0.00  0.00    +0.000 A 
ATOM     19  C   UNL     1      44.947   4.174  11.871  0.00  0.00    +0.000 A 
ATOM     20  N   UNL     1      45.464   3.109  12.533  0.00  0.00    +0.000 NA
ATOM     21  N   UNL     1      46.322   3.323  13.566  0.00  0.00    +0.000 NA
BRANCH  19  22
ATOM     22  C   UNL     1      44.034   3.860  10.737  0.00  0.00    +0.000 C 
ATOM     23  N   UNL     1      43.823   4.876   9.841  0.00  0.00    +0.000 N 
ATOM     24  O   UNL     1      43.500   2.767  10.610  0.00  0.00    +0.000 OA
ATOM     25  H   UNL     1      44.267   5.778   9.964  0.00  0.00    +0.000 HD
ATOM     26  H   UNL     1      43.202   4.723   9.058  0.00  0.00    +0.000 HD
ENDBRANCH  19  22
ENDBRANCH  15  16
ENDBRANCH  14  15
ENDBRANCH   4  14
TORSDOF 9
ENDMDL
