MODEL 1
REMARK VINA RESULT:    -6.680      0.000      0.000
REMARK INTER + INTRA:         -10.632
REMARK INTER:                  -9.805
REMARK INTRA:                  -0.827
REMARK UNBOUND:                -0.827
REMARK  Name = 
REMARK  10 active torsions:
REMARK  status: ('A' for Active; 'I' for Inactive)
REMARK    1  A    between atoms: C_1  and  C_2
REMARK    2  A    between atoms: C_2  and  C_3
REMARK    3  A    between atoms: C_3  and  N_4
REMARK    4  A    between atoms: C_5  and  C_7
REMARK    5  A    between atoms: C_10  and  N_11
REMARK    6  A    between atoms: N_11  and  C_12
REMARK    7  A    between atoms: C_12  and  C_13
REMARK    8  A    between atoms: C_13  and  C_14
REMARK    9  A    between atoms: C_13  and  C_15
REMARK   10  A    between atoms: C_19  and  C_20
REMARK                            x       y       z     vdW  Elec       q    Type
REMARK                         _______ _______ _______ _____ _____    ______ ____
ROOT
ATOM      1  C   UNL     1      44.806   3.527  10.556  0.00  0.00    +0.000 A 
ATOM      2  C   UNL     1      44.836   3.296  11.924  0.00  0.00    +0.000 A 
ATOM      3  N   UNL     1      44.958   4.299  12.838  0.00  0.00    +0.000 NA
ATOM      4  C   UNL     1      45.036   5.551  12.347  0.00  0.00    +0.000 A 
ATOM      5  C   UNL     1      44.928   5.772  10.965  0.00  0.00    +0.000 A 
ATOM      6  N   UNL     1      44.834   4.783  10.033  0.00  0.00    +0.000 NA
ENDROOT
BRANCH   1   8
ATOM      7  N   UNL     1      45.981   2.158   8.928  0.00  0.00    +0.000 N 
ATOM      8  C   UNL     1      44.802   2.373   9.612  0.00  0.00    +0.000 C 
ATOM      9  O   UNL     1      43.805   1.663   9.497  0.00  0.00    +0.000 OA
ATOM     10  H   UNL     1      46.741   2.811   9.100  0.00  0.00    +0.000 HD
BRANCH   7  11
ATOM     11  C   UNL     1      46.142   1.080   7.973  0.00  0.00    +0.000 C 
BRANCH  11  13
ATOM     12  C   UNL     1      46.869   2.733   6.188  0.00  0.00    +0.000 C 
ATOM     13  C   UNL     1      47.153   1.405   6.876  0.00  0.00    +0.000 C 
ENDBRANCH  11  13
ENDBRANCH   7  11
ENDBRANCH   1   8
BRANCH   4  14
ATOM     14  N   UNL     1      45.171   6.654  13.211  0.00  0.00    +0.000 N 
ATOM     15  H   UNL     1      45.194   6.275  14.157  0.00  0.00    +0.000 HD
BRANCH  14  16
ATOM     16  C   UNL     1      46.341   7.505  12.929  0.00  0.00    +0.000 C 
BRANCH  16  17
ATOM     17  C   UNL     1      47.627   6.650  12.866  0.00  0.00    +0.000 C 
ATOM     18  C   UNL     1      48.752   7.370  12.110  0.00  0.00    +0.000 C 
BRANCH  17  19
ATOM     19  C   UNL     1      48.131   6.276  14.252  0.00  0.00    +0.000 A 
ATOM     20  C   UNL     1      49.103   7.040  14.877  0.00  0.00    +0.000 A 
ATOM     21  C   UNL     1      49.409   6.710  16.180  0.00  0.00    +0.000 A 
ATOM     22  N   UNL     1      48.830   5.695  16.845  0.00  0.00    +0.000 NA
ATOM     23  C   UNL     1      47.917   4.992  16.151  0.00  0.00    +0.000 A 
ATOM     24  N   UNL     1      47.535   5.237  14.879  0.00  0.00    +0.000 NA
BRANCH  23  25
ATOM     25  C   UNL     1      47.280   3.894  16.831  0.00  0.00    +0.000 C 
ATOM     26  N   UNL     1      46.765   3.002  17.378  0.00  0.00    +0.000 NA
ENDBRANCH  23  25
ENDBRANCH  17  19
ENDBRANCH  16  17
ENDBRANCH  14  16
ENDBRANCH   4  14
TORSDOF 8
ENDMDL
MODEL 2
REMARK VINA RESULT:    -6.567      1.888      2.679
REMARK INTER + INTRA:         -10.466
REMARK INTER:                  -9.705
REMARK INTRA:                  -0.761
REMARK UNBOUND:                -0.827
REMARK  Name = 
REMARK  10 active torsions:
REMARK  status: ('A' for Active; 'I' for Inactive)
REMARK    1  A    between atoms: C_1  and  C_2
REMARK    2  A    between atoms: C_2  and  C_3
REMARK    3  A    between atoms: C_3  and  N_4
REMARK    4  A    between atoms: C_5  and  C_7
REMARK    5  A    between atoms: C_10  and  N_11
REMARK    6  A    between atoms: N_11  and  C_12
REMARK    7  A    between atoms: C_12  and  C_13
REMARK    8  A    between atoms: C_13  and  C_14
REMARK    9  A    between atoms: C_13  and  C_15
REMARK   10  A    between atoms: C_19  and  C_20
REMARK                            x       y       z     vdW  Elec       q    Type
REMARK                         _______ _______ _______ _____ _____    ______ ____
ROOT
ATOM      1  C   UNL     1      45.261   4.451  11.545  0.00  0.00    +0.000 A 
ATOM      2  C   UNL     1      45.348   3.619  12.651  0.00  0.00    +0.000 A 
ATOM      3  N   UNL     1      46.028   3.963  13.780  0.00  0.00    +0.000 NA
ATOM      4  C   UNL     1      46.612   5.177  13.781  0.00  0.00    +0.000 A 
ATOM      5  C   UNL     1      46.449   6.036  12.683  0.00  0.00    +0.000 A 
ATOM      6  N   UNL     1      45.799   5.702  11.534  0.00  0.00    +0.000 NA
ENDROOT
BRANCH   1   8
ATOM      7  N   UNL     1      45.377   4.040   9.153  0.00  0.00    +0.000 N 
ATOM      8  C   UNL     1      44.612   3.956  10.297  0.00  0.00    +0.000 C 
ATOM      9  O   UNL     1      43.477   3.484  10.328  0.00  0.00    +0.000 OA
ATOM     10  H   UNL     1      46.302   4.452   9.244  0.00  0.00    +0.000 HD
BRANCH   7  11
ATOM     11  C   UNL     1      44.895   3.603   7.858  0.00  0.00    +0.000 C 
BRANCH  11  13
ATOM     12  C   UNL     1      46.815   2.027   7.328  0.00  0.00    +0.000 C 
ATOM     13  C   UNL     1      46.024   3.252   6.891  0.00  0.00    +0.000 C 
ENDBRANCH  11  13
ENDBRANCH   7  11
ENDBRANCH   1   8
BRANCH   4  14
ATOM     14  N   UNL     1      47.343   5.621  14.899  0.00  0.00    +0.000 N 
ATOM     15  H   UNL     1      47.769   4.792  15.311  0.00  0.00    +0.000 HD
BRANCH  14  16
ATOM     16  C   UNL     1      48.344   6.661  14.595  0.00  0.00    +0.000 C 
BRANCH  16  17
ATOM     17  C   UNL     1      49.129   7.043  15.869  0.00  0.00    +0.000 C 
ATOM     18  C   UNL     1      48.617   8.354  16.480  0.00  0.00    +0.000 C 
BRANCH  17  19
ATOM     19  C   UNL     1      49.062   5.951  16.929  0.00  0.00    +0.000 A 
ATOM     20  C   UNL     1      48.324   6.138  18.085  0.00  0.00    +0.000 A 
ATOM     21  C   UNL     1      48.210   5.054  18.930  0.00  0.00    +0.000 A 
ATOM     22  N   UNL     1      48.783   3.862  18.691  0.00  0.00    +0.000 NA
ATOM     23  C   UNL     1      49.502   3.781  17.557  0.00  0.00    +0.000 A 
ATOM     24  N   UNL     1      49.669   4.774  16.656  0.00  0.00    +0.000 NA
BRANCH  23  25
ATOM     25  C   UNL     1      50.136   2.519  17.271  0.00  0.00    +0.000 C 
ATOM     26  N   UNL     1      50.651   1.500  17.037  0.00  0.00    +0.000 NA
ENDBRANCH  23  25
ENDBRANCH  17  19
ENDBRANCH  16  17
ENDBRANCH  14  16
ENDBRANCH   4  14
TORSDOF 8
ENDMDL
MODEL 3
REMARK VINA RESULT:    -6.245      2.844      8.390
REMARK INTER + INTRA:          -9.993
REMARK INTER:                  -9.444
REMARK INTRA:                  -0.549
REMARK UNBOUND:                -0.827
REMARK  Name = 
REMARK  10 active torsions:
REMARK  status: ('A' for Active; 'I' for Inactive)
REMARK    1  A    between atoms: C_1  and  C_2
REMARK    2  A    between atoms: C_2  and  C_3
REMARK    3  A    between atoms: C_3  and  N_4
REMARK    4  A    between atoms: C_5  and  C_7
REMARK    5  A    between atoms: C_10  and  N_11
REMARK    6  A    between atoms: N_11  and  C_12
REMARK    7  A    between atoms: C_12  and  C_13
REMARK    8  A    between atoms: C_13  and  C_14
REMARK    9  A    between atoms: C_13  and  C_15
REMARK   10  A    between atoms: C_19  and  C_20
REMARK                            x       y       z     vdW  Elec       q    Type
REMARK                         _______ _______ _______ _____ _____    ______ ____
ROOT
ATOM      1  C   UNL     1      48.138   5.150  15.991  0.00  0.00    +0.000 A 
ATOM      2  C   UNL     1      47.318   4.047  15.803  0.00  0.00    +0.000 A 
ATOM      3  N   UNL     1      46.572   3.866  14.678  0.00  0.00    +0.000 NA
ATOM      4  C   UNL     1      46.678   4.817  13.730  0.00  0.00    +0.000 A 
ATOM      5  C   UNL     1      47.570   5.887  13.904  0.00  0.00    +0.000 A 
ATOM      6  N   UNL     1      48.303   6.102  15.031  0.00  0.00    +0.000 NA
ENDROOT
BRANCH   1   8
ATOM      7  N   UNL     1      48.596   6.561  17.916  0.00  0.00    +0.000 N 
ATOM      8  C   UNL     1      48.823   5.348  17.300  0.00  0.00    +0.000 C 
ATOM      9  O   UNL     1      49.516   4.454  17.784  0.00  0.00    +0.000 OA
ATOM     10  H   UNL     1      48.007   7.227  17.422  0.00  0.00    +0.000 HD
BRANCH   7  11
ATOM     11  C   UNL     1      49.187   6.911  19.191  0.00  0.00    +0.000 C 
BRANCH  11  13
ATOM     12  C   UNL     1      47.425   8.737  19.084  0.00  0.00    +0.000 C 
ATOM     13  C   UNL     1      48.743   8.283  19.696  0.00  0.00    +0.000 C 
ENDBRANCH  11  13
ENDBRANCH   7  11
ENDBRANCH   1   8
BRANCH   4  14
ATOM     14  N   UNL     1      45.942   4.723  12.533  0.00  0.00    +0.000 N 
ATOM     15  H   UNL     1      46.608   4.866  11.775  0.00  0.00    +0.000 HD
BRANCH  14  16
ATOM     16  C   UNL     1      45.195   3.461  12.380  0.00  0.00    +0.000 C 
BRANCH  16  17
ATOM     17  C   UNL     1      44.196   3.566  11.206  0.00  0.00    +0.000 C 
ATOM     18  C   UNL     1      43.425   4.893  11.233  0.00  0.00    +0.000 C 
BRANCH  17  19
ATOM     19  C   UNL     1      44.885   3.428   9.856  0.00  0.00    +0.000 A 
ATOM     20  C   UNL     1      45.171   4.549   9.095  0.00  0.00    +0.000 A 
ATOM     21  C   UNL     1      45.911   4.349   7.949  0.00  0.00    +0.000 A 
ATOM     22  N   UNL     1      46.341   3.141   7.544  0.00  0.00    +0.000 NA
ATOM     23  C   UNL     1      45.994   2.107   8.332  0.00  0.00    +0.000 A 
ATOM     24  N   UNL     1      45.284   2.193   9.478  0.00  0.00    +0.000 NA
BRANCH  23  25
ATOM     25  C   UNL     1      46.434   0.797   7.926  0.00  0.00    +0.000 C 
ATOM     26  N   UNL     1      46.794  -0.262   7.598  0.00  0.00    +0.000 NA
ENDBRANCH  23  25
ENDBRANCH  17  19
ENDBRANCH  16  17
ENDBRANCH  14  16
ENDBRANCH   4  14
TORSDOF 8
ENDMDL
MODEL 4
REMARK VINA RESULT:    -6.075      1.771      3.015
REMARK INTER + INTRA:          -9.744
REMARK INTER:                  -8.803
REMARK INTRA:                  -0.941
REMARK UNBOUND:                -0.827
REMARK  Name = 
REMARK  10 active torsions:
REMARK  status: ('A' for Active; 'I' for Inactive)
REMARK    1  A    between atoms: C_1  and  C_2
REMARK    2  A    between atoms: C_2  and  C_3
REMARK    3  A    between atoms: C_3  and  N_4
REMARK    4  A    between atoms: C_5  and  C_7
REMARK    5  A    between atoms: C_10  and  N_11
REMARK    6  A    between atoms: N_11  and  C_12
REMARK    7  A    between atoms: C_12  and  C_13
REMARK    8  A    between atoms: C_13  and  C_14
REMARK    9  A    between atoms: C_13  and  C_15
REMARK   10  A    between atoms: C_19  and  C_20
REMARK                            x       y       z     vdW  Elec       q    Type
REMARK                         _______ _______ _______ _____ _____    ______ ____
ROOT
ATOM      1  C   UNL     1      45.475   6.272  11.513  0.00  0.00    +0.000 A 
ATOM      2  C   UNL     1      44.977   7.549  11.729  0.00  0.00    +0.000 A 
ATOM      3  N   UNL     1      45.499   8.396  12.659  0.00  0.00    +0.000 NA
ATOM      4  C   UNL     1      46.550   7.936  13.365  0.00  0.00    +0.000 A 
ATOM      5  C   UNL     1      47.088   6.671  13.081  0.00  0.00    +0.000 A 
ATOM      6  N   UNL     1      46.565   5.798  12.176  0.00  0.00    +0.000 NA
ENDROOT
BRANCH   1   8
ATOM      7  N   UNL     1      45.433   5.091   9.390  0.00  0.00    +0.000 N 
ATOM      8  C   UNL     1      44.772   5.354  10.572  0.00  0.00    +0.000 C 
ATOM      9  O   UNL     1      43.688   4.859  10.873  0.00  0.00    +0.000 OA
ATOM     10  H   UNL     1      46.324   5.559   9.244  0.00  0.00    +0.000 HD
BRANCH   7  11
ATOM     11  C   UNL     1      44.887   4.221   8.368  0.00  0.00    +0.000 C 
BRANCH  11  13
ATOM     12  C   UNL     1      44.807   1.792   9.103  0.00  0.00    +0.000 C 
ATOM     13  C   UNL     1      45.569   2.855   8.325  0.00  0.00    +0.000 C 
ENDBRANCH  11  13
ENDBRANCH   7  11
ENDBRANCH   1   8
BRANCH   4  14
ATOM     14  N   UNL     1      47.155   8.734  14.354  0.00  0.00    +0.000 N 
ATOM     15  H   UNL     1      46.746   8.450  15.242  0.00  0.00    +0.000 HD
BRANCH  14  16
ATOM     16  C   UNL     1      48.628   8.657  14.376  0.00  0.00    +0.000 C 
BRANCH  16  17
ATOM     17  C   UNL     1      49.141   8.569  15.831  0.00  0.00    +0.000 C 
ATOM     18  C   UNL     1      48.132   9.159  16.825  0.00  0.00    +0.000 C 
BRANCH  17  19
ATOM     19  C   UNL     1      49.450   7.136  16.241  0.00  0.00    +0.000 A 
ATOM     20  C   UNL     1      50.745   6.757  16.550  0.00  0.00    +0.000 A 
ATOM     21  C   UNL     1      50.918   5.479  17.037  0.00  0.00    +0.000 A 
ATOM     22  N   UNL     1      49.911   4.605  17.204  0.00  0.00    +0.000 NA
ATOM     23  C   UNL     1      48.691   5.051  16.855  0.00  0.00    +0.000 A 
ATOM     24  N   UNL     1      48.409   6.285  16.380  0.00  0.00    +0.000 NA
BRANCH  23  25
ATOM     25  C   UNL     1      47.587   4.140  17.017  0.00  0.00    +0.000 C 
ATOM     26  N   UNL     1      46.692   3.404  17.146  0.00  0.00    +0.000 NA
ENDBRANCH  23  25
ENDBRANCH  17  19
ENDBRANCH  16  17
ENDBRANCH  14  16
ENDBRANCH   4  14
TORSDOF 8
ENDMDL
MODEL 5
REMARK VINA RESULT:    -6.073      2.773      7.293
REMARK INTER + INTRA:          -9.741
REMARK INTER:                  -9.251
REMARK INTRA:                  -0.490
REMARK UNBOUND:                -0.827
REMARK  Name = 
REMARK  10 active torsions:
REMARK  status: ('A' for Active; 'I' for Inactive)
REMARK    1  A    between atoms: C_1  and  C_2
REMARK    2  A    between atoms: C_2  and  C_3
REMARK    3  A    between atoms: C_3  and  N_4
REMARK    4  A    between atoms: C_5  and  C_7
REMARK    5  A    between atoms: C_10  and  N_11
REMARK    6  A    between atoms: N_11  and  C_12
REMARK    7  A    between atoms: C_12  and  C_13
REMARK    8  A    between atoms: C_13  and  C_14
REMARK    9  A    between atoms: C_13  and  C_15
REMARK   10  A    between atoms: C_19  and  C_20
REMARK                            x       y       z     vdW  Elec       q    Type
REMARK                         _______ _______ _______ _____ _____    ______ ____
ROOT
ATOM      1  C   UNL     1      47.400   6.907  13.348  0.00  0.00    +0.000 A 
ATOM      2  C   UNL     1      46.496   7.757  12.729  0.00  0.00    +0.000 A 
ATOM      3  N   UNL     1      45.212   7.396  12.454  0.00  0.00    +0.000 NA
ATOM      4  C   UNL     1      44.847   6.155  12.830  0.00  0.00    +0.000 A 
ATOM      5  C   UNL     1      45.751   5.335  13.524  0.00  0.00    +0.000 A 
ATOM      6  N   UNL     1      47.046   5.666  13.783  0.00  0.00    +0.000 NA
ENDROOT
BRANCH   1   8
ATOM      7  N   UNL     1      49.210   8.411  12.744  0.00  0.00    +0.000 N 
ATOM      8  C   UNL     1      48.824   7.324  13.499  0.00  0.00    +0.000 C 
ATOM      9  O   UNL     1      49.570   6.732  14.278  0.00  0.00    +0.000 OA
ATOM     10  H   UNL     1      48.510   8.821  12.131  0.00  0.00    +0.000 HD
BRANCH   7  11
ATOM     11  C   UNL     1      50.558   8.942  12.774  0.00  0.00    +0.000 C 
BRANCH  11  13
ATOM     12  C   UNL     1      49.483  10.487  11.069  0.00  0.00    +0.000 C 
ATOM     13  C   UNL     1      50.747  10.137  11.842  0.00  0.00    +0.000 C 
ENDBRANCH  11  13
ENDBRANCH   7  11
ENDBRANCH   1   8
BRANCH   4  14
ATOM     14  N   UNL     1      43.542   5.685  12.585  0.00  0.00    +0.000 N 
ATOM     15  H   UNL     1      42.924   6.488  12.690  0.00  0.00    +0.000 HD
BRANCH  14  16
ATOM     16  C   UNL     1      43.373   5.026  11.276  0.00  0.00    +0.000 C 
BRANCH  16  17
ATOM     17  C   UNL     1      44.206   3.727  11.215  0.00  0.00    +0.000 C 
ATOM     18  C   UNL     1      43.342   2.485  11.477  0.00  0.00    +0.000 C 
BRANCH  17  19
ATOM     19  C   UNL     1      44.908   3.561   9.875  0.00  0.00    +0.000 A 
ATOM     20  C   UNL     1      45.246   4.669   9.117  0.00  0.00    +0.000 A 
ATOM     21  C   UNL     1      45.993   4.439   7.981  0.00  0.00    +0.000 A 
ATOM     22  N   UNL     1      46.382   3.215   7.583  0.00  0.00    +0.000 NA
ATOM     23  C   UNL     1      45.986   2.196   8.367  0.00  0.00    +0.000 A 
ATOM     24  N   UNL     1      45.264   2.311   9.503  0.00  0.00    +0.000 NA
BRANCH  23  25
ATOM     25  C   UNL     1      46.381   0.869   7.968  0.00  0.00    +0.000 C 
ATOM     26  N   UNL     1      46.697  -0.205   7.643  0.00  0.00    +0.000 NA
ENDBRANCH  23  25
ENDBRANCH  17  19
ENDBRANCH  16  17
ENDBRANCH  14  16
ENDBRANCH   4  14
TORSDOF 8
ENDMDL
MODEL 6
REMARK VINA RESULT:    -5.996      3.764      8.331
REMARK INTER + INTRA:          -9.628
REMARK INTER:                  -9.117
REMARK INTRA:                  -0.511
REMARK UNBOUND:                -0.827
REMARK  Name = 
REMARK  10 active torsions:
REMARK  status: ('A' for Active; 'I' for Inactive)
REMARK    1  A    between atoms: C_1  and  C_2
REMARK    2  A    between atoms: C_2  and  C_3
REMARK    3  A    between atoms: C_3  and  N_4
REMARK    4  A    between atoms: C_5  and  C_7
REMARK    5  A    between atoms: C_10  and  N_11
REMARK    6  A    between atoms: N_11  and  C_12
REMARK    7  A    between atoms: C_12  and  C_13
REMARK    8  A    between atoms: C_13  and  C_14
REMARK    9  A    between atoms: C_13  and  C_15
REMARK   10  A    between atoms: C_19  and  C_20
REMARK                            x       y       z     vdW  Elec       q    Type
REMARK                         _______ _______ _______ _____ _____    ______ ____
ROOT
ATOM      1  C   UNL     1      49.491   4.297  17.543  0.00  0.00    +0.000 A 
ATOM      2  C   UNL     1      49.326   5.417  16.741  0.00  0.00    +0.000 A 
ATOM      3  N   UNL     1      48.322   5.527  15.827  0.00  0.00    +0.000 NA
ATOM      4  C   UNL     1      47.470   4.487  15.745  0.00  0.00    +0.000 A 
ATOM      5  C   UNL     1      47.607   3.396  16.617  0.00  0.00    +0.000 A 
ATOM      6  N   UNL     1      48.619   3.252  17.517  0.00  0.00    +0.000 NA
ENDROOT
BRANCH   1   8
ATOM      7  N   UNL     1      51.760   3.503  17.899  0.00  0.00    +0.000 N 
ATOM      8  C   UNL     1      50.687   4.191  18.427  0.00  0.00    +0.000 C 
ATOM      9  O   UNL     1      50.693   4.719  19.538  0.00  0.00    +0.000 OA
ATOM     10  H   UNL     1      51.642   3.104  16.971  0.00  0.00    +0.000 HD
BRANCH   7  11
ATOM     11  C   UNL     1      52.997   3.309  18.628  0.00  0.00    +0.000 C 
BRANCH  11  13
ATOM     12  C   UNL     1      52.713   0.938  17.763  0.00  0.00    +0.000 C 
ATOM     13  C   UNL     1      53.682   1.985  18.294  0.00  0.00    +0.000 C 
ENDBRANCH  11  13
ENDBRANCH   7  11
ENDBRANCH   1   8
BRANCH   4  14
ATOM     14  N   UNL     1      46.404   4.504  14.826  0.00  0.00    +0.000 N 
ATOM     15  H   UNL     1      45.563   4.702  15.367  0.00  0.00    +0.000 HD
BRANCH  14  16
ATOM     16  C   UNL     1      46.579   5.454  13.712  0.00  0.00    +0.000 C 
BRANCH  16  17
ATOM     17  C   UNL     1      45.214   5.791  13.072  0.00  0.00    +0.000 C 
ATOM     18  C   UNL     1      45.242   7.149  12.358  0.00  0.00    +0.000 C 
BRANCH  17  19
ATOM     19  C   UNL     1      44.771   4.726  12.078  0.00  0.00    +0.000 A 
ATOM     20  C   UNL     1      43.831   3.775  12.439  0.00  0.00    +0.000 A 
ATOM     21  C   UNL     1      43.390   2.930  11.443  0.00  0.00    +0.000 A 
ATOM     22  N   UNL     1      43.834   2.980  10.175  0.00  0.00    +0.000 NA
ATOM     23  C   UNL     1      44.765   3.918   9.923  0.00  0.00    +0.000 A 
ATOM     24  N   UNL     1      45.256   4.802  10.819  0.00  0.00    +0.000 NA
BRANCH  23  25
ATOM     25  C   UNL     1      45.267   3.998   8.575  0.00  0.00    +0.000 C 
ATOM     26  N   UNL     1      45.673   4.066   7.484  0.00  0.00    +0.000 NA
ENDBRANCH  23  25
ENDBRANCH  17  19
ENDBRANCH  16  17
ENDBRANCH  14  16
ENDBRANCH   4  14
TORSDOF 8
ENDMDL
MODEL 7
REMARK VINA RESULT:    -5.925      2.696      7.589
REMARK INTER + INTRA:          -9.524
REMARK INTER:                  -9.130
REMARK INTRA:                  -0.394
REMARK UNBOUND:                -0.827
REMARK  Name = 
REMARK  10 active torsions:
REMARK  status: ('A' for Active; 'I' for Inactive)
REMARK    1  A    between atoms: C_1  and  C_2
REMARK    2  A    between atoms: C_2  and  C_3
REMARK    3  A    between atoms: C_3  and  N_4
REMARK    4  A    between atoms: C_5  and  C_7
REMARK    5  A    between atoms: C_10  and  N_11
REMARK    6  A    between atoms: N_11  and  C_12
REMARK    7  A    between atoms: C_12  and  C_13
REMARK    8  A    between atoms: C_13  and  C_14
REMARK    9  A    between atoms: C_13  and  C_15
REMARK   10  A    between atoms: C_19  and  C_20
REMARK                            x       y       z     vdW  Elec       q    Type
REMARK                         _______ _______ _______ _____ _____    ______ ____
ROOT
ATOM      1  C   UNL     1      47.417   6.971  13.367  0.00  0.00    +0.000 A 
ATOM      2  C   UNL     1      46.503   7.839  12.789  0.00  0.00    +0.000 A 
ATOM      3  N   UNL     1      45.222   7.477  12.502  0.00  0.00    +0.000 NA
ATOM      4  C   UNL     1      44.869   6.217  12.824  0.00  0.00    +0.000 A 
ATOM      5  C   UNL     1      45.784   5.377  13.479  0.00  0.00    +0.000 A 
ATOM      6  N   UNL     1      47.077   5.709  13.748  0.00  0.00    +0.000 NA
ENDROOT
BRANCH   1   8
ATOM      7  N   UNL     1      49.414   7.091  14.747  0.00  0.00    +0.000 N 
ATOM      8  C   UNL     1      48.837   7.395  13.531  0.00  0.00    +0.000 C 
ATOM      9  O   UNL     1      49.434   7.952  12.612  0.00  0.00    +0.000 OA
ATOM     10  H   UNL     1      48.824   6.631  15.436  0.00  0.00    +0.000 HD
BRANCH   7  11
ATOM     11  C   UNL     1      50.784   7.434  15.068  0.00  0.00    +0.000 C 
BRANCH  11  13
ATOM     12  C   UNL     1      52.701   6.706  16.566  0.00  0.00    +0.000 C 
ATOM     13  C   UNL     1      51.205   6.962  16.459  0.00  0.00    +0.000 C 
ENDBRANCH  11  13
ENDBRANCH   7  11
ENDBRANCH   1   8
BRANCH   4  14
ATOM     14  N   UNL     1      43.569   5.746  12.562  0.00  0.00    +0.000 N 
ATOM     15  H   UNL     1      42.947   6.546  12.670  0.00  0.00    +0.000 HD
BRANCH  14  16
ATOM     16  C   UNL     1      43.413   5.100  11.246  0.00  0.00    +0.000 C 
BRANCH  16  17
ATOM     17  C   UNL     1      44.224   3.786  11.191  0.00  0.00    +0.000 C 
ATOM     18  C   UNL     1      43.340   2.561  11.458  0.00  0.00    +0.000 C 
BRANCH  17  19
ATOM     19  C   UNL     1      44.922   3.602   9.851  0.00  0.00    +0.000 A 
ATOM     20  C   UNL     1      45.250   4.699   9.072  0.00  0.00    +0.000 A 
ATOM     21  C   UNL     1      45.995   4.454   7.938  0.00  0.00    +0.000 A 
ATOM     22  N   UNL     1      46.391   3.226   7.559  0.00  0.00    +0.000 NA
ATOM     23  C   UNL     1      46.004   2.219   8.362  0.00  0.00    +0.000 A 
ATOM     24  N   UNL     1      45.286   2.348   9.499  0.00  0.00    +0.000 NA
BRANCH  23  25
ATOM     25  C   UNL     1      46.407   0.888   7.985  0.00  0.00    +0.000 C 
ATOM     26  N   UNL     1      46.729  -0.189   7.678  0.00  0.00    +0.000 NA
ENDBRANCH  23  25
ENDBRANCH  17  19
ENDBRANCH  16  17
ENDBRANCH  14  16
ENDBRANCH   4  14
TORSDOF 8
ENDMDL
MODEL 8
REMARK VINA RESULT:    -5.867      2.761      8.120
REMARK INTER + INTRA:          -9.439
REMARK INTER:                  -8.831
REMARK INTRA:                  -0.608
REMARK UNBOUND:                -0.827
REMARK  Name = 
REMARK  10 active torsions:
REMARK  status: ('A' for Active; 'I' for Inactive)
REMARK    1  A    between atoms: C_1  and  C_2
REMARK    2  A    between atoms: C_2  and  C_3
REMARK    3  A    between atoms: C_3  and  N_4
REMARK    4  A    between atoms: C_5  and  C_7
REMARK    5  A    between atoms: C_10  and  N_11
REMARK    6  A    between atoms: N_11  and  C_12
REMARK    7  A    between atoms: C_12  and  C_13
REMARK    8  A    between atoms: C_13  and  C_14
REMARK    9  A    between atoms: C_13  and  C_15
REMARK   10  A    between atoms: C_19  and  C_20
REMARK                            x       y       z     vdW  Elec       q    Type
REMARK                         _______ _______ _______ _____ _____    ______ ____
ROOT
ATOM      1  C   UNL     1      47.965   4.879  15.686  0.00  0.00    +0.000 A 
ATOM      2  C   UNL     1      47.866   6.004  14.881  0.00  0.00    +0.000 A 
ATOM      3  N   UNL     1      47.183   6.011  13.703  0.00  0.00    +0.000 NA
ATOM      4  C   UNL     1      46.583   4.857  13.353  0.00  0.00    +0.000 A 
ATOM      5  C   UNL     1      46.629   3.751  14.215  0.00  0.00    +0.000 A 
ATOM      6  N   UNL     1      47.330   3.713  15.382  0.00  0.00    +0.000 NA
ENDROOT
BRANCH   1   8
ATOM      7  N   UNL     1      49.759   5.933  16.940  0.00  0.00    +0.000 N 
ATOM      8  C   UNL     1      48.838   4.908  16.895  0.00  0.00    +0.000 C 
ATOM      9  O   UNL     1      48.698   4.074  17.787  0.00  0.00    +0.000 OA
ATOM     10  H   UNL     1      49.789   6.564  16.144  0.00  0.00    +0.000 HD
BRANCH   7  11
ATOM     11  C   UNL     1      50.682   6.104  18.045  0.00  0.00    +0.000 C 
BRANCH  11  13
ATOM     12  C   UNL     1      52.211   4.093  18.307  0.00  0.00    +0.000 C 
ATOM     13  C   UNL     1      52.060   5.508  17.765  0.00  0.00    +0.000 C 
ENDBRANCH  11  13
ENDBRANCH   7  11
ENDBRANCH   1   8
BRANCH   4  14
ATOM     14  N   UNL     1      45.857   4.762  12.150  0.00  0.00    +0.000 N 
ATOM     15  H   UNL     1      46.540   4.834  11.397  0.00  0.00    +0.000 HD
BRANCH  14  16
ATOM     16  C   UNL     1      45.035   3.543  12.034  0.00  0.00    +0.000 C 
BRANCH  16  17
ATOM     17  C   UNL     1      44.152   3.608  10.768  0.00  0.00    +0.000 C 
ATOM     18  C   UNL     1      43.429   4.957  10.648  0.00  0.00    +0.000 C 
BRANCH  17  19
ATOM     19  C   UNL     1      44.956   3.370   9.498  0.00  0.00    +0.000 A 
ATOM     20  C   UNL     1      45.386   4.437   8.727  0.00  0.00    +0.000 A 
ATOM     21  C   UNL     1      46.218   4.142   7.668  0.00  0.00    +0.000 A 
ATOM     22  N   UNL     1      46.605   2.894   7.353  0.00  0.00    +0.000 NA
ATOM     23  C   UNL     1      46.119   1.918   8.141  0.00  0.00    +0.000 A 
ATOM     24  N   UNL     1      45.309   2.097   9.208  0.00  0.00    +0.000 NA
BRANCH  23  25
ATOM     25  C   UNL     1      46.510   0.567   7.830  0.00  0.00    +0.000 C 
ATOM     26  N   UNL     1      46.829  -0.525   7.577  0.00  0.00    +0.000 NA
ENDBRANCH  23  25
ENDBRANCH  17  19
ENDBRANCH  16  17
ENDBRANCH  14  16
ENDBRANCH   4  14
TORSDOF 8
ENDMDL
MODEL 9
REMARK VINA RESULT:    -5.809      2.174      3.807
REMARK INTER + INTRA:          -9.353
REMARK INTER:                  -8.530
REMARK INTRA:                  -0.822
REMARK UNBOUND:                -0.827
REMARK  Name = 
REMARK  10 active torsions:
REMARK  status: ('A' for Active; 'I' for Inactive)
REMARK    1  A    between atoms: C_1  and  C_2
REMARK    2  A    between atoms: C_2  and  C_3
REMARK    3  A    between atoms: C_3  and  N_4
REMARK    4  A    between atoms: C_5  and  C_7
REMARK    5  A    between atoms: C_10  and  N_11
REMARK    6  A    between atoms: N_11  and  C_12
REMARK    7  A    between atoms: C_12  and  C_13
REMARK    8  A    between atoms: C_13  and  C_14
REMARK    9  A    between atoms: C_13  and  C_15
REMARK   10  A    between atoms: C_19  and  C_20
REMARK                            x       y       z     vdW  Elec       q    Type
REMARK                         _______ _______ _______ _____ _____    ______ ____
ROOT
ATOM      1  C   UNL     1      46.030   4.714  13.077  0.00  0.00    +0.000 A 
ATOM      2  C   UNL     1      46.615   5.753  12.369  0.00  0.00    +0.000 A 
ATOM      3  N   UNL     1      47.596   6.540  12.890  0.00  0.00    +0.000 NA
ATOM      4  C   UNL     1      47.993   6.251  14.145  0.00  0.00    +0.000 A 
ATOM      5  C   UNL     1      47.444   5.148  14.818  0.00  0.00    +0.000 A 
ATOM      6  N   UNL     1      46.442   4.367  14.327  0.00  0.00    +0.000 NA
ENDROOT
BRANCH   1   8
ATOM      7  N   UNL     1      45.012   3.599  11.173  0.00  0.00    +0.000 N 
ATOM      8  C   UNL     1      44.872   3.980  12.491  0.00  0.00    +0.000 C 
ATOM      9  O   UNL     1      43.884   3.721  13.176  0.00  0.00    +0.000 OA
ATOM     10  H   UNL     1      45.872   3.870  10.702  0.00  0.00    +0.000 HD
BRANCH   7  11
ATOM     11  C   UNL     1      43.980   2.879  10.455  0.00  0.00    +0.000 C 
BRANCH  11  13
ATOM     12  C   UNL     1      44.966   3.571   8.220  0.00  0.00    +0.000 C 
ATOM     13  C   UNL     1      44.427   2.427   9.066  0.00  0.00    +0.000 C 
ENDBRANCH  11  13
ENDBRANCH   7  11
ENDBRANCH   1   8
BRANCH   4  14
ATOM     14  N   UNL     1      48.997   7.011  14.773  0.00  0.00    +0.000 N 
ATOM     15  H   UNL     1      49.312   7.694  14.087  0.00  0.00    +0.000 HD
BRANCH  14  16
ATOM     16  C   UNL     1      48.573   7.650  16.033  0.00  0.00    +0.000 C 
BRANCH  16  17
ATOM     17  C   UNL     1      49.614   7.390  17.146  0.00  0.00    +0.000 C 
ATOM     18  C   UNL     1      49.576   8.481  18.224  0.00  0.00    +0.000 C 
BRANCH  17  19
ATOM     19  C   UNL     1      49.410   6.037  17.812  0.00  0.00    +0.000 A 
ATOM     20  C   UNL     1      48.836   5.951  19.069  0.00  0.00    +0.000 A 
ATOM     21  C   UNL     1      48.568   4.685  19.544  0.00  0.00    +0.000 A 
ATOM     22  N   UNL     1      48.849   3.561  18.862  0.00  0.00    +0.000 NA
ATOM     23  C   UNL     1      49.429   3.740  17.662  0.00  0.00    +0.000 A 
ATOM     24  N   UNL     1      49.723   4.932  17.098  0.00  0.00    +0.000 NA
BRANCH  23  25
ATOM     25  C   UNL     1      49.748   2.556  16.904  0.00  0.00    +0.000 C 
ATOM     26  N   UNL     1      50.007   1.597  16.295  0.00  0.00    +0.000 NA
ENDBRANCH  23  25
ENDBRANCH  17  19
ENDBRANCH  16  17
ENDBRANCH  14  16
ENDBRANCH   4  14
TORSDOF 8
ENDMDL
