MODEL 1
REMARK VINA RESULT:    -6.974      0.000      0.000
REMARK INTER + INTRA:          -9.950
REMARK INTER:                  -9.421
REMARK INTRA:                  -0.529
REMARK UNBOUND:                -0.529
REMARK  Name = 
REMARK  9 active torsions:
REMARK  status: ('A' for Active; 'I' for Inactive)
REMARK    1  A    between atoms: C_1  and  O_2
REMARK    2  A    between atoms: O_2  and  C_3
REMARK    3  A    between atoms: N_9  and  C_10
REMARK    4  A    between atoms: C_10  and  C_11
REMARK    5  A    between atoms: C_14  and  C_15
REMARK    6  A    between atoms: C_15  and  C_16
REMARK    7  A    between atoms: C_16  and  N_17
REMARK    8  A    between atoms: N_17  and  C_18
REMARK    9  A    between atoms: N_17  and  C_19
REMARK                            x       y       z     vdW  Elec       q    Type
REMARK                         _______ _______ _______ _____ _____    ______ ____
ROOT
ATOM      1  C   UNL     1      44.610   6.561  11.434  0.00  0.00    +0.000 C 
ENDROOT
BRANCH   1   8
ATOM      2  C   UNL     1      45.771   3.730   8.043  0.00  0.00    +0.000 A 
ATOM      3  C   UNL     1      45.259   2.446   8.208  0.00  0.00    +0.000 A 
ATOM      4  C   UNL     1      44.492   2.127   9.336  0.00  0.00    +0.000 A 
ATOM      5  C   UNL     1      44.222   3.116  10.300  0.00  0.00    +0.000 A 
ATOM      6  C   UNL     1      43.509   3.111  11.528  0.00  0.00    +0.000 A 
ATOM      7  C   UNL     1      43.577   4.379  12.056  0.00  0.00    +0.000 A 
ATOM      8  N   UNL     1      44.286   5.167  11.179  0.00  0.00    +0.000 N 
ATOM      9  C   UNL     1      44.735   4.405  10.116  0.00  0.00    +0.000 A 
ATOM     10  C   UNL     1      45.546   4.718   9.010  0.00  0.00    +0.000 A 
BRANCH   2  12
ATOM     11  C   UNL     1      46.776   3.112   5.999  0.00  0.00    +0.000 C 
ATOM     12  O   UNL     1      46.542   4.123   6.978  0.00  0.00    +0.000 OA
ENDBRANCH   2  12
ENDBRANCH   1   8
BRANCH   1  13
ATOM     13  C   UNL     1      45.776   6.754  12.365  0.00  0.00    +0.000 A 
ATOM     14  C   UNL     1      46.069   7.996  12.931  0.00  0.00    +0.000 A 
ATOM     15  C   UNL     1      47.269   8.185  13.615  0.00  0.00    +0.000 A 
ATOM     16  C   UNL     1      48.150   7.115  13.730  0.00  0.00    +0.000 A 
ATOM     17  N   UNL     1      47.848   5.877  13.268  0.00  0.00    +0.000 NA
ATOM     18  C   UNL     1      46.673   5.721  12.618  0.00  0.00    +0.000 A 
BRANCH  16  19
ATOM     19  C   UNL     1      49.556   7.325  14.240  0.00  0.00    +0.000 C 
BRANCH  19  20
ATOM     20  C   UNL     1      49.572   7.170  15.774  0.00  0.00    +0.000 C 
BRANCH  20  21
ATOM     21  N   UNL     1      49.750   5.787  16.265  0.00  0.00    +0.000 NA
ATOM     22  C   UNL     1      50.933   5.659  17.119  0.00  0.00    +0.000 C 
ATOM     23  C   UNL     1      48.559   5.386  17.027  0.00  0.00    +0.000 C 
ENDBRANCH  20  21
ENDBRANCH  19  20
ENDBRANCH  16  19
ENDBRANCH   1  13
TORSDOF 6
ENDMDL
MODEL 2
REMARK VINA RESULT:    -6.579      2.855      7.356
REMARK INTER + INTRA:          -9.417
REMARK INTER:                  -8.760
REMARK INTRA:                  -0.657
REMARK UNBOUND:                -0.529
REMARK  Name = 
REMARK  9 active torsions:
REMARK  status: ('A' for Active; 'I' for Inactive)
REMARK    1  A    between atoms: C_1  and  O_2
REMARK    2  A    between atoms: O_2  and  C_3
REMARK    3  A    between atoms: N_9  and  C_10
REMARK    4  A    between atoms: C_10  and  C_11
REMARK    5  A    between atoms: C_14  and  C_15
REMARK    6  A    between atoms: C_15  and  C_16
REMARK    7  A    between atoms: C_16  and  N_17
REMARK    8  A    between atoms: N_17  and  C_18
REMARK    9  A    between atoms: N_17  and  C_19
REMARK                            x       y       z     vdW  Elec       q    Type
REMARK                         _______ _______ _______ _____ _____    ______ ____
ROOT
ATOM      1  C   UNL     1      46.096   5.855  13.172  0.00  0.00    +0.000 C 
ENDROOT
BRANCH   1   8
ATOM      2  C   UNL     1      45.615  10.251  12.025  0.00  0.00    +0.000 A 
ATOM      3  C   UNL     1      46.820  10.855  11.674  0.00  0.00    +0.000 A 
ATOM      4  C   UNL     1      48.016  10.129  11.713  0.00  0.00    +0.000 A 
ATOM      5  C   UNL     1      48.000   8.774  12.092  0.00  0.00    +0.000 A 
ATOM      6  C   UNL     1      49.013   7.791  12.243  0.00  0.00    +0.000 A 
ATOM      7  C   UNL     1      48.408   6.624  12.645  0.00  0.00    +0.000 A 
ATOM      8  N   UNL     1      47.054   6.852  12.721  0.00  0.00    +0.000 N 
ATOM      9  C   UNL     1      46.781   8.177  12.433  0.00  0.00    +0.000 A 
ATOM     10  C   UNL     1      45.583   8.914  12.443  0.00  0.00    +0.000 A 
BRANCH   2  12
ATOM     11  C   UNL     1      43.431  10.347  11.138  0.00  0.00    +0.000 C 
ATOM     12  O   UNL     1      44.402  10.892  12.030  0.00  0.00    +0.000 OA
ENDBRANCH   2  12
ENDBRANCH   1   8
BRANCH   1  13
ATOM     13  C   UNL     1      45.523   5.016  12.062  0.00  0.00    +0.000 A 
ATOM     14  C   UNL     1      45.148   3.686  12.264  0.00  0.00    +0.000 A 
ATOM     15  C   UNL     1      44.820   2.882  11.173  0.00  0.00    +0.000 A 
ATOM     16  C   UNL     1      44.863   3.433   9.897  0.00  0.00    +0.000 A 
ATOM     17  N   UNL     1      45.135   4.745   9.685  0.00  0.00    +0.000 NA
ATOM     18  C   UNL     1      45.440   5.502  10.762  0.00  0.00    +0.000 A 
BRANCH  16  19
ATOM     19  C   UNL     1      44.758   2.555   8.673  0.00  0.00    +0.000 C 
BRANCH  19  20
ATOM     20  C   UNL     1      45.844   2.963   7.656  0.00  0.00    +0.000 C 
BRANCH  20  21
ATOM     21  N   UNL     1      47.056   2.116   7.658  0.00  0.00    +0.000 NA
ATOM     22  C   UNL     1      46.724   0.689   7.669  0.00  0.00    +0.000 C 
ATOM     23  C   UNL     1      47.858   2.415   6.463  0.00  0.00    +0.000 C 
ENDBRANCH  20  21
ENDBRANCH  19  20
ENDBRANCH  16  19
ENDBRANCH   1  13
TORSDOF 6
ENDMDL
MODEL 3
REMARK VINA RESULT:    -6.347      1.434      2.063
REMARK INTER + INTRA:          -9.103
REMARK INTER:                  -8.449
REMARK INTRA:                  -0.654
REMARK UNBOUND:                -0.529
REMARK  Name = 
REMARK  9 active torsions:
REMARK  status: ('A' for Active; 'I' for Inactive)
REMARK    1  A    between atoms: C_1  and  O_2
REMARK    2  A    between atoms: O_2  and  C_3
REMARK    3  A    between atoms: N_9  and  C_10
REMARK    4  A    between atoms: C_10  and  C_11
REMARK    5  A    between atoms: C_14  and  C_15
REMARK    6  A    between atoms: C_15  and  C_16
REMARK    7  A    between atoms: C_16  and  N_17
REMARK    8  A    between atoms: N_17  and  C_18
REMARK    9  A    between atoms: N_17  and  C_19
REMARK                            x       y       z     vdW  Elec       q    Type
REMARK                         _______ _______ _______ _____ _____    ______ ____
ROOT
ATOM      1  C   UNL     1      44.397   6.857  11.374  0.00  0.00    +0.000 C 
ENDROOT
BRANCH   1   8
ATOM      2  C   UNL     1      45.606   3.752   8.249  0.00  0.00    +0.000 A 
ATOM      3  C   UNL     1      45.131   2.476   8.540  0.00  0.00    +0.000 A 
ATOM      4  C   UNL     1      44.383   2.244   9.701  0.00  0.00    +0.000 A 
ATOM      5  C   UNL     1      44.095   3.311  10.572  0.00  0.00    +0.000 A 
ATOM      6  C   UNL     1      43.394   3.402  11.803  0.00  0.00    +0.000 A 
ATOM      7  C   UNL     1      43.431   4.716  12.209  0.00  0.00    +0.000 A 
ATOM      8  N   UNL     1      44.110   5.436  11.254  0.00  0.00    +0.000 N 
ATOM      9  C   UNL     1      44.570   4.590  10.262  0.00  0.00    +0.000 A 
ATOM     10  C   UNL     1      45.362   4.820   9.123  0.00  0.00    +0.000 A 
BRANCH   2  12
ATOM     11  C   UNL     1      47.309   3.072   6.764  0.00  0.00    +0.000 C 
ATOM     12  O   UNL     1      46.356   4.064   7.144  0.00  0.00    +0.000 OA
ENDBRANCH   2  12
ENDBRANCH   1   8
BRANCH   1  13
ATOM     13  C   UNL     1      45.648   7.160  12.153  0.00  0.00    +0.000 A 
ATOM     14  C   UNL     1      46.669   6.219  12.302  0.00  0.00    +0.000 A 
ATOM     15  C   UNL     1      47.711   6.457  13.197  0.00  0.00    +0.000 A 
ATOM     16  C   UNL     1      47.716   7.647  13.919  0.00  0.00    +0.000 A 
ATOM     17  N   UNL     1      46.787   8.614  13.723  0.00  0.00    +0.000 NA
ATOM     18  C   UNL     1      45.794   8.359  12.843  0.00  0.00    +0.000 A 
BRANCH  16  19
ATOM     19  C   UNL     1      48.674   7.848  15.068  0.00  0.00    +0.000 C 
BRANCH  19  20
ATOM     20  C   UNL     1      50.082   7.376  14.649  0.00  0.00    +0.000 C 
BRANCH  20  21
ATOM     21  N   UNL     1      51.010   8.452  14.244  0.00  0.00    +0.000 NA
ATOM     22  C   UNL     1      51.093   8.583  12.788  0.00  0.00    +0.000 C 
ATOM     23  C   UNL     1      50.554   9.727  14.818  0.00  0.00    +0.000 C 
ENDBRANCH  20  21
ENDBRANCH  19  20
ENDBRANCH  16  19
ENDBRANCH   1  13
TORSDOF 6
ENDMDL
MODEL 4
REMARK VINA RESULT:    -6.230      2.861      7.273
REMARK INTER + INTRA:          -8.944
REMARK INTER:                  -8.376
REMARK INTRA:                  -0.568
REMARK UNBOUND:                -0.529
REMARK  Name = 
REMARK  9 active torsions:
REMARK  status: ('A' for Active; 'I' for Inactive)
REMARK    1  A    between atoms: C_1  and  O_2
REMARK    2  A    between atoms: O_2  and  C_3
REMARK    3  A    between atoms: N_9  and  C_10
REMARK    4  A    between atoms: C_10  and  C_11
REMARK    5  A    between atoms: C_14  and  C_15
REMARK    6  A    between atoms: C_15  and  C_16
REMARK    7  A    between atoms: C_16  and  N_17
REMARK    8  A    between atoms: N_17  and  C_18
REMARK    9  A    between atoms: N_17  and  C_19
REMARK                            x       y       z     vdW  Elec       q    Type
REMARK                         _______ _______ _______ _____ _____    ______ ____
ROOT
ATOM      1  C   UNL     1      46.234   6.166  13.054  0.00  0.00    +0.000 C 
ENDROOT
BRANCH   1   8
ATOM      2  C   UNL     1      49.853   8.521  11.564  0.00  0.00    +0.000 A 
ATOM      3  C   UNL     1      49.572   9.867  11.342  0.00  0.00    +0.000 A 
ATOM      4  C   UNL     1      48.281  10.367  11.558  0.00  0.00    +0.000 A 
ATOM      5  C   UNL     1      47.266   9.508  12.018  0.00  0.00    +0.000 A 
ATOM      6  C   UNL     1      45.890   9.695  12.313  0.00  0.00    +0.000 A 
ATOM      7  C   UNL     1      45.383   8.486  12.730  0.00  0.00    +0.000 A 
ATOM      8  N   UNL     1      46.410   7.571  12.725  0.00  0.00    +0.000 N 
ATOM      9  C   UNL     1      47.566   8.160  12.246  0.00  0.00    +0.000 A 
ATOM     10  C   UNL     1      48.847   7.642  11.985  0.00  0.00    +0.000 A 
BRANCH   2  12
ATOM     11  C   UNL     1      52.193   8.737  11.787  0.00  0.00    +0.000 C 
ATOM     12  O   UNL     1      51.083   7.946  11.364  0.00  0.00    +0.000 OA
ENDBRANCH   2  12
ENDBRANCH   1   8
BRANCH   1  13
ATOM     13  C   UNL     1      45.628   5.352  11.942  0.00  0.00    +0.000 A 
ATOM     14  C   UNL     1      45.009   4.124  12.182  0.00  0.00    +0.000 A 
ATOM     15  C   UNL     1      44.648   3.305  11.113  0.00  0.00    +0.000 A 
ATOM     16  C   UNL     1      44.904   3.743   9.817  0.00  0.00    +0.000 A 
ATOM     17  N   UNL     1      45.419   4.970   9.558  0.00  0.00    +0.000 NA
ATOM     18  C   UNL     1      45.751   5.745  10.614  0.00  0.00    +0.000 A 
BRANCH  16  19
ATOM     19  C   UNL     1      44.761   2.804   8.644  0.00  0.00    +0.000 C 
BRANCH  19  20
ATOM     20  C   UNL     1      45.707   3.254   7.511  0.00  0.00    +0.000 C 
BRANCH  20  21
ATOM     21  N   UNL     1      46.941   2.453   7.369  0.00  0.00    +0.000 NA
ATOM     22  C   UNL     1      46.722   1.046   7.711  0.00  0.00    +0.000 C 
ATOM     23  C   UNL     1      47.420   2.544   5.982  0.00  0.00    +0.000 C 
ENDBRANCH  20  21
ENDBRANCH  19  20
ENDBRANCH  16  19
ENDBRANCH   1  13
TORSDOF 6
ENDMDL
MODEL 5
REMARK VINA RESULT:    -6.023      2.672      7.192
REMARK INTER + INTRA:          -8.664
REMARK INTER:                  -8.110
REMARK INTRA:                  -0.555
REMARK UNBOUND:                -0.529
REMARK  Name = 
REMARK  9 active torsions:
REMARK  status: ('A' for Active; 'I' for Inactive)
REMARK    1  A    between atoms: C_1  and  O_2
REMARK    2  A    between atoms: O_2  and  C_3
REMARK    3  A    between atoms: N_9  and  C_10
REMARK    4  A    between atoms: C_10  and  C_11
REMARK    5  A    between atoms: C_14  and  C_15
REMARK    6  A    between atoms: C_15  and  C_16
REMARK    7  A    between atoms: C_16  and  N_17
REMARK    8  A    between atoms: N_17  and  C_18
REMARK    9  A    between atoms: N_17  and  C_19
REMARK                            x       y       z     vdW  Elec       q    Type
REMARK                         _______ _______ _______ _____ _____    ______ ____
ROOT
ATOM      1  C   UNL     1      43.989   6.866  11.879  0.00  0.00    +0.000 C 
ENDROOT
BRANCH   1   8
ATOM      2  C   UNL     1      47.720   5.930  14.343  0.00  0.00    +0.000 A 
ATOM      3  C   UNL     1      48.556   7.033  14.503  0.00  0.00    +0.000 A 
ATOM      4  C   UNL     1      48.226   8.264  13.921  0.00  0.00    +0.000 A 
ATOM      5  C   UNL     1      47.035   8.392  13.183  0.00  0.00    +0.000 A 
ATOM      6  C   UNL     1      46.437   9.468  12.476  0.00  0.00    +0.000 A 
ATOM      7  C   UNL     1      45.257   9.011  11.938  0.00  0.00    +0.000 A 
ATOM      8  N   UNL     1      45.099   7.697  12.314  0.00  0.00    +0.000 N 
ATOM      9  C   UNL     1      46.200   7.278  13.039  0.00  0.00    +0.000 A 
ATOM     10  C   UNL     1      46.549   6.028  13.580  0.00  0.00    +0.000 A 
BRANCH   2  12
ATOM     11  C   UNL     1      47.136   3.644  14.369  0.00  0.00    +0.000 C 
ATOM     12  O   UNL     1      47.974   4.687  14.865  0.00  0.00    +0.000 OA
ENDBRANCH   2  12
ENDBRANCH   1   8
BRANCH   1  13
ATOM     13  C   UNL     1      44.400   5.707  11.013  0.00  0.00    +0.000 A 
ATOM     14  C   UNL     1      45.455   5.805  10.104  0.00  0.00    +0.000 A 
ATOM     15  C   UNL     1      45.671   4.787   9.176  0.00  0.00    +0.000 A 
ATOM     16  C   UNL     1      44.830   3.679   9.187  0.00  0.00    +0.000 A 
ATOM     17  N   UNL     1      43.858   3.520  10.118  0.00  0.00    +0.000 NA
ATOM     18  C   UNL     1      43.677   4.518  11.011  0.00  0.00    +0.000 A 
BRANCH  16  19
ATOM     19  C   UNL     1      44.864   2.674   8.061  0.00  0.00    +0.000 C 
BRANCH  19  20
ATOM     20  C   UNL     1      46.009   3.030   7.091  0.00  0.00    +0.000 C 
BRANCH  20  21
ATOM     21  N   UNL     1      47.223   2.195   7.219  0.00  0.00    +0.000 NA
ATOM     22  C   UNL     1      46.897   0.806   7.551  0.00  0.00    +0.000 C 
ATOM     23  C   UNL     1      47.967   2.226   5.952  0.00  0.00    +0.000 C 
ENDBRANCH  20  21
ENDBRANCH  19  20
ENDBRANCH  16  19
ENDBRANCH   1  13
TORSDOF 6
ENDMDL
MODEL 6
REMARK VINA RESULT:    -5.846      2.027      3.794
REMARK INTER + INTRA:          -8.426
REMARK INTER:                  -7.698
REMARK INTRA:                  -0.728
REMARK UNBOUND:                -0.529
REMARK  Name = 
REMARK  9 active torsions:
REMARK  status: ('A' for Active; 'I' for Inactive)
REMARK    1  A    between atoms: C_1  and  O_2
REMARK    2  A    between atoms: O_2  and  C_3
REMARK    3  A    between atoms: N_9  and  C_10
REMARK    4  A    between atoms: C_10  and  C_11
REMARK    5  A    between atoms: C_14  and  C_15
REMARK    6  A    between atoms: C_15  and  C_16
REMARK    7  A    between atoms: C_16  and  N_17
REMARK    8  A    between atoms: N_17  and  C_18
REMARK    9  A    between atoms: N_17  and  C_19
REMARK                            x       y       z     vdW  Elec       q    Type
REMARK                         _______ _______ _______ _____ _____    ______ ____
ROOT
ATOM      1  C   UNL     1      47.925   6.528  12.626  0.00  0.00    +0.000 C 
ENDROOT
BRANCH   1   8
ATOM      2  C   UNL     1      44.240   4.278  11.135  0.00  0.00    +0.000 A 
ATOM      3  C   UNL     1      43.157   5.117  10.884  0.00  0.00    +0.000 A 
ATOM      4  C   UNL     1      43.259   6.495  11.109  0.00  0.00    +0.000 A 
ATOM      5  C   UNL     1      44.470   7.040  11.575  0.00  0.00    +0.000 A 
ATOM      6  C   UNL     1      44.882   8.357  11.908  0.00  0.00    +0.000 A 
ATOM      7  C   UNL     1      46.194   8.294  12.316  0.00  0.00    +0.000 A 
ATOM      8  N   UNL     1      46.606   6.985  12.221  0.00  0.00    +0.000 N 
ATOM      9  C   UNL     1      45.553   6.186  11.815  0.00  0.00    +0.000 A 
ATOM     10  C   UNL     1      45.441   4.796  11.637  0.00  0.00    +0.000 A 
BRANCH   2  12
ATOM     11  C   UNL     1      44.471   2.482   9.622  0.00  0.00    +0.000 C 
ATOM     12  O   UNL     1      44.221   2.918  10.957  0.00  0.00    +0.000 OA
ENDBRANCH   2  12
ENDBRANCH   1   8
BRANCH   1  13
ATOM     13  C   UNL     1      48.047   6.253  14.100  0.00  0.00    +0.000 A 
ATOM     14  C   UNL     1      48.804   7.070  14.942  0.00  0.00    +0.000 A 
ATOM     15  C   UNL     1      49.065   6.671  16.252  0.00  0.00    +0.000 A 
ATOM     16  C   UNL     1      48.547   5.460  16.699  0.00  0.00    +0.000 A 
ATOM     17  N   UNL     1      47.734   4.694  15.930  0.00  0.00    +0.000 NA
ATOM     18  C   UNL     1      47.491   5.111  14.668  0.00  0.00    +0.000 A 
BRANCH  16  19
ATOM     19  C   UNL     1      48.996   4.867  18.013  0.00  0.00    +0.000 C 
BRANCH  19  20
ATOM     20  C   UNL     1      49.350   3.380  17.808  0.00  0.00    +0.000 C 
BRANCH  20  21
ATOM     21  N   UNL     1      50.653   3.128  17.155  0.00  0.00    +0.000 NA
ATOM     22  C   UNL     1      51.732   3.903  17.773  0.00  0.00    +0.000 C 
ATOM     23  C   UNL     1      50.973   1.696  17.248  0.00  0.00    +0.000 C 
ENDBRANCH  20  21
ENDBRANCH  19  20
ENDBRANCH  16  19
ENDBRANCH   1  13
TORSDOF 6
ENDMDL
MODEL 7
REMARK VINA RESULT:    -5.812      3.172      5.613
REMARK INTER + INTRA:          -8.380
REMARK INTER:                  -7.802
REMARK INTRA:                  -0.578
REMARK UNBOUND:                -0.529
REMARK  Name = 
REMARK  9 active torsions:
REMARK  status: ('A' for Active; 'I' for Inactive)
REMARK    1  A    between atoms: C_1  and  O_2
REMARK    2  A    between atoms: O_2  and  C_3
REMARK    3  A    between atoms: N_9  and  C_10
REMARK    4  A    between atoms: C_10  and  C_11
REMARK    5  A    between atoms: C_14  and  C_15
REMARK    6  A    between atoms: C_15  and  C_16
REMARK    7  A    between atoms: C_16  and  N_17
REMARK    8  A    between atoms: N_17  and  C_18
REMARK    9  A    between atoms: N_17  and  C_19
REMARK                            x       y       z     vdW  Elec       q    Type
REMARK                         _______ _______ _______ _____ _____    ______ ____
ROOT
ATOM      1  C   UNL     1      46.794   4.461  15.932  0.00  0.00    +0.000 C 
ENDROOT
BRANCH   1   8
ATOM      2  C   UNL     1      44.639   4.884  11.926  0.00  0.00    +0.000 A 
ATOM      3  C   UNL     1      45.317   5.705  11.029  0.00  0.00    +0.000 A 
ATOM      4  C   UNL     1      46.521   6.318  11.398  0.00  0.00    +0.000 A 
ATOM      5  C   UNL     1      47.058   6.089  12.678  0.00  0.00    +0.000 A 
ATOM      6  C   UNL     1      48.219   6.559  13.346  0.00  0.00    +0.000 A 
ATOM      7  C   UNL     1      48.236   5.998  14.602  0.00  0.00    +0.000 A 
ATOM      8  N   UNL     1      47.137   5.179  14.715  0.00  0.00    +0.000 N 
ATOM      9  C   UNL     1      46.370   5.254  13.567  0.00  0.00    +0.000 A 
ATOM     10  C   UNL     1      45.137   4.675  13.219  0.00  0.00    +0.000 A 
BRANCH   2  12
ATOM     11  C   UNL     1      43.465   2.840  11.811  0.00  0.00    +0.000 C 
ATOM     12  O   UNL     1      43.449   4.258  11.653  0.00  0.00    +0.000 OA
ENDBRANCH   2  12
ENDBRANCH   1   8
BRANCH   1  13
ATOM     13  C   UNL     1      47.919   3.629  16.485  0.00  0.00    +0.000 A 
ATOM     14  C   UNL     1      48.712   4.076  17.544  0.00  0.00    +0.000 A 
ATOM     15  C   UNL     1      49.868   3.378  17.891  0.00  0.00    +0.000 A 
ATOM     16  C   UNL     1      50.201   2.233  17.174  0.00  0.00    +0.000 A 
ATOM     17  N   UNL     1      49.399   1.730  16.203  0.00  0.00    +0.000 NA
ATOM     18  C   UNL     1      48.280   2.423  15.895  0.00  0.00    +0.000 A 
BRANCH  16  19
ATOM     19  C   UNL     1      51.553   1.584  17.341  0.00  0.00    +0.000 C 
BRANCH  19  20
ATOM     20  C   UNL     1      52.520   2.580  18.014  0.00  0.00    +0.000 C 
BRANCH  20  21
ATOM     21  N   UNL     1      53.904   2.092  18.189  0.00  0.00    +0.000 NA
ATOM     22  C   UNL     1      54.430   2.407  19.519  0.00  0.00    +0.000 C 
ATOM     23  C   UNL     1      53.933   0.636  17.991  0.00  0.00    +0.000 C 
ENDBRANCH  20  21
ENDBRANCH  19  20
ENDBRANCH  16  19
ENDBRANCH   1  13
TORSDOF 6
ENDMDL
MODEL 8
REMARK VINA RESULT:    -5.493      2.622      7.582
REMARK INTER + INTRA:          -7.949
REMARK INTER:                  -7.325
REMARK INTRA:                  -0.624
REMARK UNBOUND:                -0.529
REMARK  Name = 
REMARK  9 active torsions:
REMARK  status: ('A' for Active; 'I' for Inactive)
REMARK    1  A    between atoms: C_1  and  O_2
REMARK    2  A    between atoms: O_2  and  C_3
REMARK    3  A    between atoms: N_9  and  C_10
REMARK    4  A    between atoms: C_10  and  C_11
REMARK    5  A    between atoms: C_14  and  C_15
REMARK    6  A    between atoms: C_15  and  C_16
REMARK    7  A    between atoms: C_16  and  N_17
REMARK    8  A    between atoms: N_17  and  C_18
REMARK    9  A    between atoms: N_17  and  C_19
REMARK                            x       y       z     vdW  Elec       q    Type
REMARK                         _______ _______ _______ _____ _____    ______ ____
ROOT
ATOM      1  C   UNL     1      45.428   8.235  12.931  0.00  0.00    +0.000 C 
ENDROOT
BRANCH   1   8
ATOM      2  C   UNL     1      49.516   7.226  14.702  0.00  0.00    +0.000 A 
ATOM      3  C   UNL     1      50.524   8.081  14.264  0.00  0.00    +0.000 A 
ATOM      4  C   UNL     1      50.238   9.108  13.356  0.00  0.00    +0.000 A 
ATOM      5  C   UNL     1      48.920   9.290  12.898  0.00  0.00    +0.000 A 
ATOM      6  C   UNL     1      48.320  10.203  11.991  0.00  0.00    +0.000 A 
ATOM      7  C   UNL     1      46.979   9.907  11.925  0.00  0.00    +0.000 A 
ATOM      8  N   UNL     1      46.732   8.859  12.781  0.00  0.00    +0.000 N 
ATOM      9  C   UNL     1      47.915   8.429  13.355  0.00  0.00    +0.000 A 
ATOM     10  C   UNL     1      48.205   7.366  14.228  0.00  0.00    +0.000 A 
BRANCH   2  12
ATOM     11  C   UNL     1      49.531   6.516  16.953  0.00  0.00    +0.000 C 
ATOM     12  O   UNL     1      49.711   6.186  15.577  0.00  0.00    +0.000 OA
ENDBRANCH   2  12
ENDBRANCH   1   8
BRANCH   1  13
ATOM     13  C   UNL     1      45.296   6.922  12.208  0.00  0.00    +0.000 A 
ATOM     14  C   UNL     1      45.979   6.664  11.019  0.00  0.00    +0.000 A 
ATOM     15  C   UNL     1      45.674   5.527  10.271  0.00  0.00    +0.000 A 
ATOM     16  C   UNL     1      44.693   4.660  10.741  0.00  0.00    +0.000 A 
ATOM     17  N   UNL     1      44.081   4.841  11.937  0.00  0.00    +0.000 NA
ATOM     18  C   UNL     1      44.404   5.947  12.644  0.00  0.00    +0.000 A 
BRANCH  16  19
ATOM     19  C   UNL     1      44.154   3.557   9.863  0.00  0.00    +0.000 C 
BRANCH  19  20
ATOM     20  C   UNL     1      45.284   2.557   9.545  0.00  0.00    +0.000 C 
BRANCH  20  21
ATOM     21  N   UNL     1      45.495   2.283   8.107  0.00  0.00    +0.000 NA
ATOM     22  C   UNL     1      46.028   3.450   7.402  0.00  0.00    +0.000 C 
ATOM     23  C   UNL     1      46.433   1.161   7.961  0.00  0.00    +0.000 C 
ENDBRANCH  20  21
ENDBRANCH  19  20
ENDBRANCH  16  19
ENDBRANCH   1  13
TORSDOF 6
ENDMDL
MODEL 9
REMARK VINA RESULT:    -5.347      3.216      8.318
REMARK INTER + INTRA:          -7.751
REMARK INTER:                  -7.024
REMARK INTRA:                  -0.728
REMARK UNBOUND:                -0.529
REMARK  Name = 
REMARK  9 active torsions:
REMARK  status: ('A' for Active; 'I' for Inactive)
REMARK    1  A    between atoms: C_1  and  O_2
REMARK    2  A    between atoms: O_2  and  C_3
REMARK    3  A    between atoms: N_9  and  C_10
REMARK    4  A    between atoms: C_10  and  C_11
REMARK    5  A    between atoms: C_14  and  C_15
REMARK    6  A    between atoms: C_15  and  C_16
REMARK    7  A    between atoms: C_16  and  N_17
REMARK    8  A    between atoms: N_17  and  C_18
REMARK    9  A    between atoms: N_17  and  C_19
REMARK                            x       y       z     vdW  Elec       q    Type
REMARK                         _______ _______ _______ _____ _____    ______ ____
ROOT
ATOM      1  C   UNL     1      49.544   7.281  14.916  0.00  0.00    +0.000 C 
ENDROOT
BRANCH   1   8
ATOM      2  C   UNL     1      48.386   5.575  18.992  0.00  0.00    +0.000 A 
ATOM      3  C   UNL     1      47.766   6.511  19.816  0.00  0.00    +0.000 A 
ATOM      4  C   UNL     1      47.572   7.827  19.376  0.00  0.00    +0.000 A 
ATOM      5  C   UNL     1      47.990   8.201  18.085  0.00  0.00    +0.000 A 
ATOM      6  C   UNL     1      47.952   9.423  17.365  0.00  0.00    +0.000 A 
ATOM      7  C   UNL     1      48.511   9.198  16.129  0.00  0.00    +0.000 A 
ATOM      8  N   UNL     1      48.867   7.871  16.059  0.00  0.00    +0.000 N 
ATOM      9  C   UNL     1      48.602   7.247  17.264  0.00  0.00    +0.000 A 
ATOM     10  C   UNL     1      48.844   5.938  17.719  0.00  0.00    +0.000 A 
BRANCH   2  12
ATOM     11  C   UNL     1      48.374   3.311  18.326  0.00  0.00    +0.000 C 
ATOM     12  O   UNL     1      48.628   4.273  19.349  0.00  0.00    +0.000 OA
ENDBRANCH   2  12
ENDBRANCH   1   8
BRANCH   1  13
ATOM     13  C   UNL     1      48.614   6.850  13.814  0.00  0.00    +0.000 A 
ATOM     14  C   UNL     1      48.637   7.451  12.554  0.00  0.00    +0.000 A 
ATOM     15  C   UNL     1      47.629   7.173  11.632  0.00  0.00    +0.000 A 
ATOM     16  C   UNL     1      46.621   6.284  11.988  0.00  0.00    +0.000 A 
ATOM     17  N   UNL     1      46.628   5.619  13.169  0.00  0.00    +0.000 NA
ATOM     18  C   UNL     1      47.622   5.901  14.040  0.00  0.00    +0.000 A 
BRANCH  16  19
ATOM     19  C   UNL     1      45.386   6.135  11.132  0.00  0.00    +0.000 C 
BRANCH  19  20
ATOM     20  C   UNL     1      44.345   5.277  11.881  0.00  0.00    +0.000 C 
BRANCH  20  21
ATOM     21  N   UNL     1      43.533   4.387  11.025  0.00  0.00    +0.000 NA
ATOM     22  C   UNL     1      44.148   4.181   9.712  0.00  0.00    +0.000 C 
ATOM     23  C   UNL     1      43.375   3.086  11.692  0.00  0.00    +0.000 C 
ENDBRANCH  20  21
ENDBRANCH  19  20
ENDBRANCH  16  19
ENDBRANCH   1  13
TORSDOF 6
ENDMDL
