MODEL 1
REMARK VINA RESULT:    -7.502      0.000      0.000
REMARK INTER + INTRA:          -9.976
REMARK INTER:                  -9.256
REMARK INTRA:                  -0.720
REMARK UNBOUND:                -0.720
REMARK  Name = 
REMARK  6 active torsions:
REMARK  status: ('A' for Active; 'I' for Inactive)
REMARK    1  A    between atoms: C_1  and  C_2
REMARK    2  A    between atoms: C_2  and  C_3
REMARK    3  A    between atoms: C_2  and  C_4
REMARK    4  A    between atoms: C_2  and  C_18
REMARK    5  A    between atoms: C_4  and  N_5
REMARK    6  A    between atoms: C_10  and  C_11
REMARK                            x       y       z     vdW  Elec       q    Type
REMARK                         _______ _______ _______ _____ _____    ______ ____
ROOT
ATOM      1  N   UNL     1      45.163   6.491  10.682  0.00  0.00    +0.000 N 
ATOM      2  C   UNL     1      44.931   5.152  10.392  0.00  0.00    +0.000 A 
ATOM      3  N   UNL     1      44.088   4.457  11.166  0.00  0.00    +0.000 NA
ATOM      4  C   UNL     1      43.896   3.167  10.861  0.00  0.00    +0.000 A 
ATOM      5  C   UNL     1      44.504   2.548   9.802  0.00  0.00    +0.000 A 
ATOM      6  C   UNL     1      45.347   3.331   9.034  0.00  0.00    +0.000 A 
ATOM      7  N   UNL     1      45.576   4.631   9.337  0.00  0.00    +0.000 NA
ATOM      8  H   UNL     1      46.062   6.732  10.261  0.00  0.00    +0.000 HD
ENDROOT
BRANCH   6   9
ATOM      9  C   UNL     1      46.058   2.790   7.860  0.00  0.00    +0.000 A 
ATOM     10  C   UNL     1      46.239   3.526   6.676  0.00  0.00    +0.000 A 
ATOM     11  C   UNL     1      46.872   2.962   5.570  0.00  0.00    +0.000 A 
ATOM     12  C   UNL     1      47.325   1.660   5.671  0.00  0.00    +0.000 A 
ATOM     13  N   UNL     1      47.198   0.913   6.786  0.00  0.00    +0.000 NA
ATOM     14  C   UNL     1      46.580   1.496   7.848  0.00  0.00    +0.000 A 
ENDBRANCH   6   9
BRANCH   1  15
ATOM     15  C   UNL     1      45.146   6.784  12.115  0.00  0.00    +0.000 C 
BRANCH  15  17
ATOM     16  C   UNL     1      47.554   7.235  11.494  0.00  0.00    +0.000 C 
ATOM     17  C   UNL     1      46.541   7.222  12.657  0.00  0.00    +0.000 C 
ATOM     18  C   UNL     1      46.379   8.667  13.189  0.00  0.00    +0.000 C 
BRANCH  17  19
ATOM     19  C   UNL     1      47.038   6.311  13.788  0.00  0.00    +0.000 A 
ATOM     20  C   UNL     1      46.493   5.040  13.987  0.00  0.00    +0.000 A 
ATOM     21  C   UNL     1      46.957   4.250  15.037  0.00  0.00    +0.000 A 
ATOM     22  C   UNL     1      47.950   4.743  15.872  0.00  0.00    +0.000 A 
ATOM     23  C   UNL     1      48.444   6.007  15.617  0.00  0.00    +0.000 A 
ATOM     24  N   UNL     1      48.017   6.790  14.602  0.00  0.00    +0.000 NA
ENDBRANCH  17  19
ENDBRANCH  15  17
ENDBRANCH   1  15
TORSDOF 4
ENDMDL
MODEL 2
REMARK VINA RESULT:    -6.881      2.816      8.836
REMARK INTER + INTRA:          -9.211
REMARK INTER:                  -8.615
REMARK INTRA:                  -0.596
REMARK UNBOUND:                -0.720
REMARK  Name = 
REMARK  6 active torsions:
REMARK  status: ('A' for Active; 'I' for Inactive)
REMARK    1  A    between atoms: C_1  and  C_2
REMARK    2  A    between atoms: C_2  and  C_3
REMARK    3  A    between atoms: C_2  and  C_4
REMARK    4  A    between atoms: C_2  and  C_18
REMARK    5  A    between atoms: C_4  and  N_5
REMARK    6  A    between atoms: C_10  and  C_11
REMARK                            x       y       z     vdW  Elec       q    Type
REMARK                         _______ _______ _______ _____ _____    ______ ____
ROOT
ATOM      1  N   UNL     1      46.434   5.106  14.354  0.00  0.00    +0.000 N 
ATOM      2  C   UNL     1      47.144   4.396  15.315  0.00  0.00    +0.000 A 
ATOM      3  N   UNL     1      47.594   3.171  15.016  0.00  0.00    +0.000 NA
ATOM      4  C   UNL     1      48.267   2.514  15.971  0.00  0.00    +0.000 A 
ATOM      5  C   UNL     1      48.521   3.042  17.208  0.00  0.00    +0.000 A 
ATOM      6  C   UNL     1      48.043   4.319  17.440  0.00  0.00    +0.000 A 
ATOM      7  N   UNL     1      47.339   4.993  16.501  0.00  0.00    +0.000 NA
ATOM      8  H   UNL     1      45.876   5.800  14.853  0.00  0.00    +0.000 HD
ENDROOT
BRANCH   6   9
ATOM      9  C   UNL     1      48.255   5.007  18.728  0.00  0.00    +0.000 A 
ATOM     10  C   UNL     1      48.895   4.396  19.820  0.00  0.00    +0.000 A 
ATOM     11  C   UNL     1      49.032   5.063  21.036  0.00  0.00    +0.000 A 
ATOM     12  C   UNL     1      48.528   6.345  21.139  0.00  0.00    +0.000 A 
ATOM     13  N   UNL     1      47.923   6.989  20.121  0.00  0.00    +0.000 NA
ATOM     14  C   UNL     1      47.810   6.312  18.947  0.00  0.00    +0.000 A 
ENDBRANCH   6   9
BRANCH   1  15
ATOM     15  C   UNL     1      45.598   4.254  13.506  0.00  0.00    +0.000 C 
BRANCH  15  17
ATOM     16  C   UNL     1      43.281   5.055  12.891  0.00  0.00    +0.000 C 
ATOM     17  C   UNL     1      44.765   5.068  12.469  0.00  0.00    +0.000 C 
ATOM     18  C   UNL     1      45.284   6.525  12.527  0.00  0.00    +0.000 C 
BRANCH  17  19
ATOM     19  C   UNL     1      44.921   4.523  11.043  0.00  0.00    +0.000 A 
ATOM     20  C   UNL     1      45.549   5.273  10.045  0.00  0.00    +0.000 A 
ATOM     21  C   UNL     1      45.653   4.753   8.757  0.00  0.00    +0.000 A 
ATOM     22  C   UNL     1      45.126   3.499   8.485  0.00  0.00    +0.000 A 
ATOM     23  C   UNL     1      44.519   2.812   9.518  0.00  0.00    +0.000 A 
ATOM     24  N   UNL     1      44.410   3.291  10.777  0.00  0.00    +0.000 NA
ENDBRANCH  17  19
ENDBRANCH  15  17
ENDBRANCH   1  15
TORSDOF 4
ENDMDL
MODEL 3
REMARK VINA RESULT:    -6.686      2.159      7.936
REMARK INTER + INTRA:          -8.969
REMARK INTER:                  -8.316
REMARK INTRA:                  -0.653
REMARK UNBOUND:                -0.720
REMARK  Name = 
REMARK  6 active torsions:
REMARK  status: ('A' for Active; 'I' for Inactive)
REMARK    1  A    between atoms: C_1  and  C_2
REMARK    2  A    between atoms: C_2  and  C_3
REMARK    3  A    between atoms: C_2  and  C_4
REMARK    4  A    between atoms: C_2  and  C_18
REMARK    5  A    between atoms: C_4  and  N_5
REMARK    6  A    between atoms: C_10  and  C_11
REMARK                            x       y       z     vdW  Elec       q    Type
REMARK                         _______ _______ _______ _____ _____    ______ ____
ROOT
ATOM      1  N   UNL     1      46.518   4.995  13.053  0.00  0.00    +0.000 N 
ATOM      2  C   UNL     1      47.100   4.977  14.314  0.00  0.00    +0.000 A 
ATOM      3  N   UNL     1      46.723   4.034  15.189  0.00  0.00    +0.000 NA
ATOM      4  C   UNL     1      47.299   4.053  16.398  0.00  0.00    +0.000 A 
ATOM      5  C   UNL     1      48.249   4.969  16.762  0.00  0.00    +0.000 A 
ATOM      6  C   UNL     1      48.603   5.901  15.803  0.00  0.00    +0.000 A 
ATOM      7  N   UNL     1      48.018   5.918  14.583  0.00  0.00    +0.000 NA
ATOM      8  H   UNL     1      46.629   5.945  12.692  0.00  0.00    +0.000 HD
ENDROOT
BRANCH   6   9
ATOM      9  C   UNL     1      49.620   6.938  16.063  0.00  0.00    +0.000 A 
ATOM     10  C   UNL     1      49.891   7.431  17.351  0.00  0.00    +0.000 A 
ATOM     11  C   UNL     1      50.825   8.447  17.549  0.00  0.00    +0.000 A 
ATOM     12  C   UNL     1      51.484   8.952  16.445  0.00  0.00    +0.000 A 
ATOM     13  N   UNL     1      51.282   8.505  15.189  0.00  0.00    +0.000 NA
ATOM     14  C   UNL     1      50.368   7.510  15.032  0.00  0.00    +0.000 A 
ENDBRANCH   6   9
BRANCH   1  15
ATOM     15  C   UNL     1      45.114   4.583  13.057  0.00  0.00    +0.000 C 
BRANCH  15  17
ATOM     16  C   UNL     1      42.817   5.011  12.093  0.00  0.00    +0.000 C 
ATOM     17  C   UNL     1      44.331   5.099  11.811  0.00  0.00    +0.000 C 
ATOM     18  C   UNL     1      44.715   6.588  11.630  0.00  0.00    +0.000 C 
BRANCH  17  19
ATOM     19  C   UNL     1      44.683   4.318  10.537  0.00  0.00    +0.000 A 
ATOM     20  C   UNL     1      45.334   4.936   9.466  0.00  0.00    +0.000 A 
ATOM     21  C   UNL     1      45.620   4.199   8.319  0.00  0.00    +0.000 A 
ATOM     22  C   UNL     1      45.248   2.863   8.258  0.00  0.00    +0.000 A 
ATOM     23  C   UNL     1      44.608   2.317   9.353  0.00  0.00    +0.000 A 
ATOM     24  N   UNL     1      44.326   3.008  10.480  0.00  0.00    +0.000 NA
ENDBRANCH  17  19
ENDBRANCH  15  17
ENDBRANCH   1  15
TORSDOF 4
ENDMDL
MODEL 4
REMARK VINA RESULT:    -6.660      1.781      7.856
REMARK INTER + INTRA:          -8.937
REMARK INTER:                  -8.363
REMARK INTRA:                  -0.575
REMARK UNBOUND:                -0.720
REMARK  Name = 
REMARK  6 active torsions:
REMARK  status: ('A' for Active; 'I' for Inactive)
REMARK    1  A    between atoms: C_1  and  C_2
REMARK    2  A    between atoms: C_2  and  C_3
REMARK    3  A    between atoms: C_2  and  C_4
REMARK    4  A    between atoms: C_2  and  C_18
REMARK    5  A    between atoms: C_4  and  N_5
REMARK    6  A    between atoms: C_10  and  C_11
REMARK                            x       y       z     vdW  Elec       q    Type
REMARK                         _______ _______ _______ _____ _____    ______ ____
ROOT
ATOM      1  N   UNL     1      45.407   4.500  11.935  0.00  0.00    +0.000 N 
ATOM      2  C   UNL     1      46.303   5.199  12.735  0.00  0.00    +0.000 A 
ATOM      3  N   UNL     1      46.783   6.371  12.299  0.00  0.00    +0.000 NA
ATOM      4  C   UNL     1      47.650   7.013  13.094  0.00  0.00    +0.000 A 
ATOM      5  C   UNL     1      48.044   6.534  14.314  0.00  0.00    +0.000 A 
ATOM      6  C   UNL     1      47.494   5.328  14.708  0.00  0.00    +0.000 A 
ATOM      7  N   UNL     1      46.635   4.649  13.912  0.00  0.00    +0.000 NA
ATOM      8  H   UNL     1      45.453   3.522  12.228  0.00  0.00    +0.000 HD
ENDROOT
BRANCH   6   9
ATOM      9  C   UNL     1      47.828   4.706  16.004  0.00  0.00    +0.000 A 
ATOM     10  C   UNL     1      47.345   3.443  16.387  0.00  0.00    +0.000 A 
ATOM     11  C   UNL     1      47.642   2.912  17.641  0.00  0.00    +0.000 A 
ATOM     12  C   UNL     1      48.432   3.656  18.495  0.00  0.00    +0.000 A 
ATOM     13  N   UNL     1      48.941   4.863  18.175  0.00  0.00    +0.000 NA
ATOM     14  C   UNL     1      48.635   5.351  16.943  0.00  0.00    +0.000 A 
ENDBRANCH   6   9
BRANCH   1  15
ATOM     15  C   UNL     1      45.676   4.643  10.503  0.00  0.00    +0.000 C 
BRANCH  15  17
ATOM     16  C   UNL     1      44.154   2.626  10.559  0.00  0.00    +0.000 C 
ATOM     17  C   UNL     1      44.863   3.637   9.633  0.00  0.00    +0.000 C 
ATOM     18  C   UNL     1      43.787   4.463   8.886  0.00  0.00    +0.000 C 
BRANCH  17  19
ATOM     19  C   UNL     1      45.745   2.902   8.615  0.00  0.00    +0.000 A 
ATOM     20  C   UNL     1      46.410   3.594   7.599  0.00  0.00    +0.000 A 
ATOM     21  C   UNL     1      47.186   2.890   6.681  0.00  0.00    +0.000 A 
ATOM     22  C   UNL     1      47.282   1.510   6.789  0.00  0.00    +0.000 A 
ATOM     23  C   UNL     1      46.600   0.890   7.818  0.00  0.00    +0.000 A 
ATOM     24  N   UNL     1      45.846   1.550   8.724  0.00  0.00    +0.000 NA
ENDBRANCH  17  19
ENDBRANCH  15  17
ENDBRANCH   1  15
TORSDOF 4
ENDMDL
MODEL 5
REMARK VINA RESULT:    -6.540      2.106      4.089
REMARK INTER + INTRA:          -8.789
REMARK INTER:                  -7.910
REMARK INTRA:                  -0.879
REMARK UNBOUND:                -0.720
REMARK  Name = 
REMARK  6 active torsions:
REMARK  status: ('A' for Active; 'I' for Inactive)
REMARK    1  A    between atoms: C_1  and  C_2
REMARK    2  A    between atoms: C_2  and  C_3
REMARK    3  A    between atoms: C_2  and  C_4
REMARK    4  A    between atoms: C_2  and  C_18
REMARK    5  A    between atoms: C_4  and  N_5
REMARK    6  A    between atoms: C_10  and  C_11
REMARK                            x       y       z     vdW  Elec       q    Type
REMARK                         _______ _______ _______ _____ _____    ______ ____
ROOT
ATOM      1  N   UNL     1      48.259   7.102  13.695  0.00  0.00    +0.000 N 
ATOM      2  C   UNL     1      47.107   7.219  12.927  0.00  0.00    +0.000 A 
ATOM      3  N   UNL     1      46.396   8.352  12.993  0.00  0.00    +0.000 NA
ATOM      4  C   UNL     1      45.287   8.426  12.246  0.00  0.00    +0.000 A 
ATOM      5  C   UNL     1      44.869   7.415  11.422  0.00  0.00    +0.000 A 
ATOM      6  C   UNL     1      45.661   6.282  11.389  0.00  0.00    +0.000 A 
ATOM      7  N   UNL     1      46.773   6.174  12.154  0.00  0.00    +0.000 NA
ATOM      8  H   UNL     1      48.436   6.102  13.808  0.00  0.00    +0.000 HD
ENDROOT
BRANCH   6   9
ATOM      9  C   UNL     1      45.329   5.124  10.538  0.00  0.00    +0.000 A 
ATOM     10  C   UNL     1      45.650   5.069   9.170  0.00  0.00    +0.000 A 
ATOM     11  C   UNL     1      45.275   3.977   8.389  0.00  0.00    +0.000 A 
ATOM     12  C   UNL     1      44.584   2.946   8.996  0.00  0.00    +0.000 A 
ATOM     13  N   UNL     1      44.267   2.934  10.306  0.00  0.00    +0.000 NA
ATOM     14  C   UNL     1      44.652   4.011  11.041  0.00  0.00    +0.000 A 
ENDBRANCH   6   9
BRANCH   1  15
ATOM     15  C   UNL     1      48.164   7.779  14.989  0.00  0.00    +0.000 C 
BRANCH  15  17
ATOM     16  C   UNL     1      50.517   7.016  15.506  0.00  0.00    +0.000 C 
ATOM     17  C   UNL     1      49.087   7.142  16.072  0.00  0.00    +0.000 C 
ATOM     18  C   UNL     1      49.112   8.124  17.268  0.00  0.00    +0.000 C 
BRANCH  17  19
ATOM     19  C   UNL     1      48.575   5.773  16.541  0.00  0.00    +0.000 A 
ATOM     20  C   UNL     1      48.753   5.346  17.859  0.00  0.00    +0.000 A 
ATOM     21  C   UNL     1      48.292   4.088  18.242  0.00  0.00    +0.000 A 
ATOM     22  C   UNL     1      47.668   3.278  17.304  0.00  0.00    +0.000 A 
ATOM     23  C   UNL     1      47.525   3.763  16.019  0.00  0.00    +0.000 A 
ATOM     24  N   UNL     1      47.957   4.981  15.624  0.00  0.00    +0.000 NA
ENDBRANCH  17  19
ENDBRANCH  15  17
ENDBRANCH   1  15
TORSDOF 4
ENDMDL
MODEL 6
REMARK VINA RESULT:    -6.247      3.040      6.887
REMARK INTER + INTRA:          -8.428
REMARK INTER:                  -7.585
REMARK INTRA:                  -0.843
REMARK UNBOUND:                -0.720
REMARK  Name = 
REMARK  6 active torsions:
REMARK  status: ('A' for Active; 'I' for Inactive)
REMARK    1  A    between atoms: C_1  and  C_2
REMARK    2  A    between atoms: C_2  and  C_3
REMARK    3  A    between atoms: C_2  and  C_4
REMARK    4  A    between atoms: C_2  and  C_18
REMARK    5  A    between atoms: C_4  and  N_5
REMARK    6  A    between atoms: C_10  and  C_11
REMARK                            x       y       z     vdW  Elec       q    Type
REMARK                         _______ _______ _______ _____ _____    ______ ____
ROOT
ATOM      1  N   UNL     1      46.656   6.235  11.852  0.00  0.00    +0.000 N 
ATOM      2  C   UNL     1      47.422   7.390  11.955  0.00  0.00    +0.000 A 
ATOM      3  N   UNL     1      46.846   8.511  12.409  0.00  0.00    +0.000 NA
ATOM      4  C   UNL     1      47.613   9.606  12.487  0.00  0.00    +0.000 A 
ATOM      5  C   UNL     1      48.938   9.620  12.144  0.00  0.00    +0.000 A 
ATOM      6  C   UNL     1      49.471   8.423  11.701  0.00  0.00    +0.000 A 
ATOM      7  N   UNL     1      48.710   7.309  11.590  0.00  0.00    +0.000 NA
ATOM      8  H   UNL     1      47.122   5.633  11.169  0.00  0.00    +0.000 HD
ENDROOT
BRANCH   6   9
ATOM      9  C   UNL     1      50.887   8.298  11.308  0.00  0.00    +0.000 A 
ATOM     10  C   UNL     1      51.341   7.329  10.397  0.00  0.00    +0.000 A 
ATOM     11  C   UNL     1      52.695   7.211  10.089  0.00  0.00    +0.000 A 
ATOM     12  C   UNL     1      53.581   8.079  10.697  0.00  0.00    +0.000 A 
ATOM     13  N   UNL     1      53.203   9.042  11.562  0.00  0.00    +0.000 NA
ATOM     14  C   UNL     1      51.874   9.132  11.837  0.00  0.00    +0.000 A 
ENDBRANCH   6   9
BRANCH   1  15
ATOM     15  C   UNL     1      45.265   6.494  11.476  0.00  0.00    +0.000 C 
BRANCH  15  17
ATOM     16  C   UNL     1      44.547   4.425  12.738  0.00  0.00    +0.000 C 
ATOM     17  C   UNL     1      44.407   5.195  11.408  0.00  0.00    +0.000 C 
ATOM     18  C   UNL     1      42.933   5.643  11.249  0.00  0.00    +0.000 C 
BRANCH  17  19
ATOM     19  C   UNL     1      44.802   4.297  10.227  0.00  0.00    +0.000 A 
ATOM     20  C   UNL     1      44.512   2.930  10.227  0.00  0.00    +0.000 A 
ATOM     21  C   UNL     1      44.905   2.145   9.145  0.00  0.00    +0.000 A 
ATOM     22  C   UNL     1      45.582   2.734   8.087  0.00  0.00    +0.000 A 
ATOM     23  C   UNL     1      45.834   4.090   8.152  0.00  0.00    +0.000 A 
ATOM     24  N   UNL     1      45.458   4.875   9.186  0.00  0.00    +0.000 NA
ENDBRANCH  17  19
ENDBRANCH  15  17
ENDBRANCH   1  15
TORSDOF 4
ENDMDL
MODEL 7
REMARK VINA RESULT:    -6.152      3.591      6.063
REMARK INTER + INTRA:          -8.311
REMARK INTER:                  -7.411
REMARK INTRA:                  -0.900
REMARK UNBOUND:                -0.720
REMARK  Name = 
REMARK  6 active torsions:
REMARK  status: ('A' for Active; 'I' for Inactive)
REMARK    1  A    between atoms: C_1  and  C_2
REMARK    2  A    between atoms: C_2  and  C_3
REMARK    3  A    between atoms: C_2  and  C_4
REMARK    4  A    between atoms: C_2  and  C_18
REMARK    5  A    between atoms: C_4  and  N_5
REMARK    6  A    between atoms: C_10  and  C_11
REMARK                            x       y       z     vdW  Elec       q    Type
REMARK                         _______ _______ _______ _____ _____    ______ ____
ROOT
ATOM      1  N   UNL     1      46.717   4.529  15.284  0.00  0.00    +0.000 N 
ATOM      2  C   UNL     1      46.189   4.724  14.014  0.00  0.00    +0.000 A 
ATOM      3  N   UNL     1      45.897   3.656  13.261  0.00  0.00    +0.000 NA
ATOM      4  C   UNL     1      45.398   3.883  12.039  0.00  0.00    +0.000 A 
ATOM      5  C   UNL     1      45.163   5.138  11.546  0.00  0.00    +0.000 A 
ATOM      6  C   UNL     1      45.470   6.195  12.384  0.00  0.00    +0.000 A 
ATOM      7  N   UNL     1      45.999   5.991  13.614  0.00  0.00    +0.000 NA
ATOM      8  H   UNL     1      47.206   5.391  15.534  0.00  0.00    +0.000 HD
ENDROOT
BRANCH   6   9
ATOM      9  C   UNL     1      45.258   7.597  11.980  0.00  0.00    +0.000 A 
ATOM     10  C   UNL     1      46.118   8.639  12.369  0.00  0.00    +0.000 A 
ATOM     11  C   UNL     1      45.855   9.959  12.006  0.00  0.00    +0.000 A 
ATOM     12  C   UNL     1      44.730  10.217  11.248  0.00  0.00    +0.000 A 
ATOM     13  N   UNL     1      43.881   9.258  10.828  0.00  0.00    +0.000 NA
ATOM     14  C   UNL     1      44.169   7.980  11.195  0.00  0.00    +0.000 A 
ENDBRANCH   6   9
BRANCH   1  15
ATOM     15  C   UNL     1      47.601   3.366  15.371  0.00  0.00    +0.000 C 
BRANCH  15  17
ATOM     16  C   UNL     1      47.236   2.735  17.791  0.00  0.00    +0.000 C 
ATOM     17  C   UNL     1      48.280   3.228  16.767  0.00  0.00    +0.000 C 
ATOM     18  C   UNL     1      49.380   2.148  16.622  0.00  0.00    +0.000 C 
BRANCH  17  19
ATOM     19  C   UNL     1      48.912   4.545  17.240  0.00  0.00    +0.000 A 
ATOM     20  C   UNL     1      48.861   4.932  18.581  0.00  0.00    +0.000 A 
ATOM     21  C   UNL     1      49.428   6.144  18.968  0.00  0.00    +0.000 A 
ATOM     22  C   UNL     1      50.031   6.949  18.012  0.00  0.00    +0.000 A 
ATOM     23  C   UNL     1      50.046   6.504  16.705  0.00  0.00    +0.000 A 
ATOM     24  N   UNL     1      49.509   5.331  16.305  0.00  0.00    +0.000 NA
ENDBRANCH  17  19
ENDBRANCH  15  17
ENDBRANCH   1  15
TORSDOF 4
ENDMDL
MODEL 8
REMARK VINA RESULT:    -6.033      2.040      7.945
REMARK INTER + INTRA:          -8.164
REMARK INTER:                  -7.553
REMARK INTRA:                  -0.612
REMARK UNBOUND:                -0.720
REMARK  Name = 
REMARK  6 active torsions:
REMARK  status: ('A' for Active; 'I' for Inactive)
REMARK    1  A    between atoms: C_1  and  C_2
REMARK    2  A    between atoms: C_2  and  C_3
REMARK    3  A    between atoms: C_2  and  C_4
REMARK    4  A    between atoms: C_2  and  C_18
REMARK    5  A    between atoms: C_4  and  N_5
REMARK    6  A    between atoms: C_10  and  C_11
REMARK                            x       y       z     vdW  Elec       q    Type
REMARK                         _______ _______ _______ _____ _____    ______ ____
ROOT
ATOM      1  N   UNL     1      45.815   6.613  13.019  0.00  0.00    +0.000 N 
ATOM      2  C   UNL     1      47.150   6.911  13.268  0.00  0.00    +0.000 A 
ATOM      3  N   UNL     1      47.856   7.556  12.330  0.00  0.00    +0.000 NA
ATOM      4  C   UNL     1      49.141   7.819  12.602  0.00  0.00    +0.000 A 
ATOM      5  C   UNL     1      49.743   7.475  13.782  0.00  0.00    +0.000 A 
ATOM      6  C   UNL     1      48.950   6.829  14.712  0.00  0.00    +0.000 A 
ATOM      7  N   UNL     1      47.655   6.530  14.451  0.00  0.00    +0.000 NA
ATOM      8  H   UNL     1      45.569   5.834  13.633  0.00  0.00    +0.000 HD
ENDROOT
BRANCH   6   9
ATOM      9  C   UNL     1      49.472   6.411  16.027  0.00  0.00    +0.000 A 
ATOM     10  C   UNL     1      48.813   5.478  16.846  0.00  0.00    +0.000 A 
ATOM     11  C   UNL     1      49.314   5.147  18.104  0.00  0.00    +0.000 A 
ATOM     12  C   UNL     1      50.481   5.756  18.523  0.00  0.00    +0.000 A 
ATOM     13  N   UNL     1      51.167   6.642  17.774  0.00  0.00    +0.000 NA
ATOM     14  C   UNL     1      50.654   6.939  16.550  0.00  0.00    +0.000 A 
ENDBRANCH   6   9
BRANCH   1  15
ATOM     15  C   UNL     1      45.545   6.296  11.616  0.00  0.00    +0.000 C 
BRANCH  15  17
ATOM     16  C   UNL     1      44.700   4.185  12.718  0.00  0.00    +0.000 C 
ATOM     17  C   UNL     1      44.618   5.054  11.446  0.00  0.00    +0.000 C 
ATOM     18  C   UNL     1      43.174   5.594  11.307  0.00  0.00    +0.000 C 
BRANCH  17  19
ATOM     19  C   UNL     1      44.979   4.224  10.207  0.00  0.00    +0.000 A 
ATOM     20  C   UNL     1      45.617   4.803   9.107  0.00  0.00    +0.000 A 
ATOM     21  C   UNL     1      45.910   4.021   7.992  0.00  0.00    +0.000 A 
ATOM     22  C   UNL     1      45.558   2.678   7.992  0.00  0.00    +0.000 A 
ATOM     23  C   UNL     1      44.931   2.171   9.112  0.00  0.00    +0.000 A 
ATOM     24  N   UNL     1      44.641   2.907  10.208  0.00  0.00    +0.000 NA
ENDBRANCH  17  19
ENDBRANCH  15  17
ENDBRANCH   1  15
TORSDOF 4
ENDMDL
MODEL 9
REMARK VINA RESULT:    -5.667      3.513      6.346
REMARK INTER + INTRA:          -7.713
REMARK INTER:                  -7.027
REMARK INTRA:                  -0.686
REMARK UNBOUND:                -0.720
REMARK  Name = 
REMARK  6 active torsions:
REMARK  status: ('A' for Active; 'I' for Inactive)
REMARK    1  A    between atoms: C_1  and  C_2
REMARK    2  A    between atoms: C_2  and  C_3
REMARK    3  A    between atoms: C_2  and  C_4
REMARK    4  A    between atoms: C_2  and  C_18
REMARK    5  A    between atoms: C_4  and  N_5
REMARK    6  A    between atoms: C_10  and  C_11
REMARK                            x       y       z     vdW  Elec       q    Type
REMARK                         _______ _______ _______ _____ _____    ______ ____
ROOT
ATOM      1  N   UNL     1      47.876   4.231  16.440  0.00  0.00    +0.000 N 
ATOM      2  C   UNL     1      47.629   4.909  15.252  0.00  0.00    +0.000 A 
ATOM      3  N   UNL     1      48.481   5.866  14.862  0.00  0.00    +0.000 NA
ATOM      4  C   UNL     1      48.205   6.503  13.716  0.00  0.00    +0.000 A 
ATOM      5  C   UNL     1      47.118   6.210  12.938  0.00  0.00    +0.000 A 
ATOM      6  C   UNL     1      46.292   5.199  13.392  0.00  0.00    +0.000 A 
ATOM      7  N   UNL     1      46.535   4.557  14.559  0.00  0.00    +0.000 NA
ATOM      8  H   UNL     1      46.982   3.846  16.750  0.00  0.00    +0.000 HD
ENDROOT
BRANCH   6   9
ATOM      9  C   UNL     1      45.091   4.779  12.644  0.00  0.00    +0.000 A 
ATOM     10  C   UNL     1      44.869   3.448  12.249  0.00  0.00    +0.000 A 
ATOM     11  C   UNL     1      43.746   3.100  11.500  0.00  0.00    +0.000 A 
ATOM     12  C   UNL     1      42.852   4.097  11.162  0.00  0.00    +0.000 A 
ATOM     13  N   UNL     1      43.001   5.386  11.529  0.00  0.00    +0.000 NA
ATOM     14  C   UNL     1      44.105   5.690  12.263  0.00  0.00    +0.000 A 
ENDBRANCH   6   9
BRANCH   1  15
ATOM     15  C   UNL     1      48.483   5.074  17.471  0.00  0.00    +0.000 C 
BRANCH  15  17
ATOM     16  C   UNL     1      49.550   4.612  19.716  0.00  0.00    +0.000 C 
ATOM     17  C   UNL     1      49.674   4.375  18.196  0.00  0.00    +0.000 C 
ATOM     18  C   UNL     1      49.536   2.859  17.918  0.00  0.00    +0.000 C 
BRANCH  17  19
ATOM     19  C   UNL     1      51.035   4.869  17.687  0.00  0.00    +0.000 A 
ATOM     20  C   UNL     1      52.212   4.171  17.971  0.00  0.00    +0.000 A 
ATOM     21  C   UNL     1      53.431   4.662  17.508  0.00  0.00    +0.000 A 
ATOM     22  C   UNL     1      53.456   5.841  16.777  0.00  0.00    +0.000 A 
ATOM     23  C   UNL     1      52.256   6.479  16.533  0.00  0.00    +0.000 A 
ATOM     24  N   UNL     1      51.060   6.021  16.964  0.00  0.00    +0.000 NA
ENDBRANCH  17  19
ENDBRANCH  15  17
ENDBRANCH   1  15
TORSDOF 4
ENDMDL
