MODEL 1
REMARK VINA RESULT:    -7.976      0.000      0.000
REMARK INTER + INTRA:         -11.186
REMARK INTER:                 -10.540
REMARK INTRA:                  -0.646
REMARK UNBOUND:                -0.646
REMARK  Name = 
REMARK  6 active torsions:
REMARK  status: ('A' for Active; 'I' for Inactive)
REMARK    1  A    between atoms: N_1  and  C_2
REMARK    2  A    between atoms: C_2  and  C_3
REMARK    3  A    between atoms: C_3  and  C_4
REMARK    4  A    between atoms: C_7  and  C_8
REMARK    5  A    between atoms: C_8  and  N_9
REMARK    6  A    between atoms: C_14  and  C_15
REMARK                            x       y       z     vdW  Elec       q    Type
REMARK                         _______ _______ _______ _____ _____    ______ ____
ROOT
ATOM      1  N   UNL     1      44.533   4.634  11.847  0.00  0.00    +0.000 N 
ATOM      2  N   UNL     1      44.264   3.837  12.904  0.00  0.00    +0.000 NA
ATOM      3  N   UNL     1      45.171   4.092  13.840  0.00  0.00    +0.000 NA
ATOM      4  C   UNL     1      46.022   5.052  13.362  0.00  0.00    +0.000 A 
ATOM      5  C   UNL     1      47.164   5.626  13.944  0.00  0.00    +0.000 A 
ATOM      6  C   UNL     1      47.876   6.588  13.212  0.00  0.00    +0.000 A 
ATOM      7  C   UNL     1      47.432   6.968  11.930  0.00  0.00    +0.000 A 
ATOM      8  C   UNL     1      46.295   6.404  11.341  0.00  0.00    +0.000 A 
ATOM      9  C   UNL     1      45.620   5.435  12.087  0.00  0.00    +0.000 A 
ENDROOT
BRANCH   6  10
ATOM     10  C   UNL     1      49.118   7.238  13.721  0.00  0.00    +0.000 C 
ATOM     11  N   UNL     1      50.169   7.418  12.869  0.00  0.00    +0.000 N 
ATOM     12  O   UNL     1      49.208   7.615  14.885  0.00  0.00    +0.000 OA
ATOM     13  H   UNL     1      50.198   7.135  11.902  0.00  0.00    +0.000 HD
ATOM     14  H   UNL     1      50.992   7.863  13.251  0.00  0.00    +0.000 HD
ENDBRANCH   6  10
BRANCH   1  15
ATOM     15  C   UNL     1      43.837   4.428  10.590  0.00  0.00    +0.000 C 
BRANCH  15  19
ATOM     16  C   UNL     1      46.180   2.241   7.781  0.00  0.00    +0.000 A 
ATOM     17  C   UNL     1      46.062   3.616   7.607  0.00  0.00    +0.000 A 
ATOM     18  C   UNL     1      45.310   4.351   8.522  0.00  0.00    +0.000 A 
ATOM     19  C   UNL     1      44.676   3.697   9.582  0.00  0.00    +0.000 A 
ATOM     20  C   UNL     1      44.846   2.320   9.671  0.00  0.00    +0.000 A 
ATOM     21  N   UNL     1      45.581   1.588   8.805  0.00  0.00    +0.000 NA
BRANCH  16  22
ATOM     22  C   UNL     1      46.971   1.409   6.804  0.00  0.00    +0.000 C 
BRANCH  22  23
ATOM     23  C   UNL     1      48.274   2.107   6.410  0.00  0.00    +0.000 C 
BRANCH  23  24
ATOM     24  N   UNL     1      48.270   2.464   4.988  0.00  0.00    +0.000 NA
ATOM     25  H   UNL     1      47.901   3.410   4.886  0.00  0.00    +0.000 HD
ATOM     26  H   UNL     1      47.616   1.857   4.493  0.00  0.00    +0.000 HD
ENDBRANCH  23  24
ENDBRANCH  22  23
ENDBRANCH  16  22
ENDBRANCH  15  19
ENDBRANCH   1  15
TORSDOF 6
ENDMDL
MODEL 2
REMARK VINA RESULT:    -7.869      2.685      6.577
REMARK INTER + INTRA:         -11.045
REMARK INTER:                 -10.233
REMARK INTRA:                  -0.812
REMARK UNBOUND:                -0.646
REMARK  Name = 
REMARK  6 active torsions:
REMARK  status: ('A' for Active; 'I' for Inactive)
REMARK    1  A    between atoms: N_1  and  C_2
REMARK    2  A    between atoms: C_2  and  C_3
REMARK    3  A    between atoms: C_3  and  C_4
REMARK    4  A    between atoms: C_7  and  C_8
REMARK    5  A    between atoms: C_8  and  N_9
REMARK    6  A    between atoms: C_14  and  C_15
REMARK                            x       y       z     vdW  Elec       q    Type
REMARK                         _______ _______ _______ _____ _____    ______ ____
ROOT
ATOM      1  N   UNL     1      43.975   4.252  10.566  0.00  0.00    +0.000 N 
ATOM      2  N   UNL     1      43.391   3.117  11.007  0.00  0.00    +0.000 NA
ATOM      3  N   UNL     1      43.891   2.108  10.304  0.00  0.00    +0.000 NA
ATOM      4  C   UNL     1      44.791   2.616   9.405  0.00  0.00    +0.000 A 
ATOM      5  C   UNL     1      45.547   1.974   8.412  0.00  0.00    +0.000 A 
ATOM      6  C   UNL     1      46.387   2.752   7.602  0.00  0.00    +0.000 A 
ATOM      7  C   UNL     1      46.469   4.144   7.804  0.00  0.00    +0.000 A 
ATOM      8  C   UNL     1      45.721   4.795   8.792  0.00  0.00    +0.000 A 
ATOM      9  C   UNL     1      44.880   3.995   9.568  0.00  0.00    +0.000 A 
ENDROOT
BRANCH   6  10
ATOM     10  C   UNL     1      47.210   2.176   6.499  0.00  0.00    +0.000 C 
ATOM     11  N   UNL     1      47.334   2.873   5.332  0.00  0.00    +0.000 N 
ATOM     12  O   UNL     1      47.777   1.096   6.624  0.00  0.00    +0.000 OA
ATOM     13  H   UNL     1      46.902   3.761   5.127  0.00  0.00    +0.000 HD
ATOM     14  H   UNL     1      47.901   2.451   4.610  0.00  0.00    +0.000 HD
ENDBRANCH   6  10
BRANCH   1  15
ATOM     15  C   UNL     1      43.471   5.541  11.003  0.00  0.00    +0.000 C 
BRANCH  15  19
ATOM     16  C   UNL     1      46.479   7.745  13.066  0.00  0.00    +0.000 A 
ATOM     17  C   UNL     1      45.679   8.424  12.152  0.00  0.00    +0.000 A 
ATOM     18  C   UNL     1      44.682   7.723  11.476  0.00  0.00    +0.000 A 
ATOM     19  C   UNL     1      44.514   6.356  11.711  0.00  0.00    +0.000 A 
ATOM     20  C   UNL     1      45.364   5.762  12.637  0.00  0.00    +0.000 A 
ATOM     21  N   UNL     1      46.329   6.423  13.315  0.00  0.00    +0.000 NA
BRANCH  16  22
ATOM     22  C   UNL     1      47.579   8.464  13.805  0.00  0.00    +0.000 C 
BRANCH  22  23
ATOM     23  C   UNL     1      48.557   7.476  14.442  0.00  0.00    +0.000 C 
BRANCH  23  24
ATOM     24  N   UNL     1      49.335   6.772  13.418  0.00  0.00    +0.000 NA
ATOM     25  H   UNL     1      49.794   5.968  13.846  0.00  0.00    +0.000 HD
ATOM     26  H   UNL     1      50.087   7.380  13.093  0.00  0.00    +0.000 HD
ENDBRANCH  23  24
ENDBRANCH  22  23
ENDBRANCH  16  22
ENDBRANCH  15  19
ENDBRANCH   1  15
TORSDOF 6
ENDMDL
MODEL 3
REMARK VINA RESULT:    -7.824      1.512      1.748
REMARK INTER + INTRA:         -10.986
REMARK INTER:                 -10.441
REMARK INTRA:                  -0.545
REMARK UNBOUND:                -0.646
REMARK  Name = 
REMARK  6 active torsions:
REMARK  status: ('A' for Active; 'I' for Inactive)
REMARK    1  A    between atoms: N_1  and  C_2
REMARK    2  A    between atoms: C_2  and  C_3
REMARK    3  A    between atoms: C_3  and  C_4
REMARK    4  A    between atoms: C_7  and  C_8
REMARK    5  A    between atoms: C_8  and  N_9
REMARK    6  A    between atoms: C_14  and  C_15
REMARK                            x       y       z     vdW  Elec       q    Type
REMARK                         _______ _______ _______ _____ _____    ______ ____
ROOT
ATOM      1  N   UNL     1      45.240   4.558  12.581  0.00  0.00    +0.000 N 
ATOM      2  N   UNL     1      45.828   3.499  13.177  0.00  0.00    +0.000 NA
ATOM      3  N   UNL     1      46.850   3.956  13.891  0.00  0.00    +0.000 NA
ATOM      4  C   UNL     1      46.910   5.315  13.732  0.00  0.00    +0.000 A 
ATOM      5  C   UNL     1      47.829   6.249  14.236  0.00  0.00    +0.000 A 
ATOM      6  C   UNL     1      47.666   7.600  13.892  0.00  0.00    +0.000 A 
ATOM      7  C   UNL     1      46.590   7.993  13.071  0.00  0.00    +0.000 A 
ATOM      8  C   UNL     1      45.668   7.071  12.565  0.00  0.00    +0.000 A 
ATOM      9  C   UNL     1      45.869   5.732  12.909  0.00  0.00    +0.000 A 
ENDROOT
BRANCH   6  10
ATOM     10  C   UNL     1      48.600   8.671  14.346  0.00  0.00    +0.000 C 
ATOM     11  N   UNL     1      48.182   9.555  15.299  0.00  0.00    +0.000 N 
ATOM     12  O   UNL     1      49.732   8.767  13.883  0.00  0.00    +0.000 OA
ATOM     13  H   UNL     1      47.272   9.566  15.733  0.00  0.00    +0.000 HD
ATOM     14  H   UNL     1      48.844  10.264  15.581  0.00  0.00    +0.000 HD
ENDBRANCH   6  10
BRANCH   1  15
ATOM     15  C   UNL     1      44.223   4.345  11.567  0.00  0.00    +0.000 C 
BRANCH  15  19
ATOM     16  C   UNL     1      45.924   3.339   7.791  0.00  0.00    +0.000 A 
ATOM     17  C   UNL     1      45.372   2.316   8.556  0.00  0.00    +0.000 A 
ATOM     18  C   UNL     1      44.801   2.627   9.789  0.00  0.00    +0.000 A 
ATOM     19  C   UNL     1      44.806   3.948  10.242  0.00  0.00    +0.000 A 
ATOM     20  C   UNL     1      45.385   4.901   9.412  0.00  0.00    +0.000 A 
ATOM     21  N   UNL     1      45.934   4.627   8.207  0.00  0.00    +0.000 NA
BRANCH  16  22
ATOM     22  C   UNL     1      46.566   3.040   6.461  0.00  0.00    +0.000 C 
BRANCH  22  23
ATOM     23  C   UNL     1      47.988   2.507   6.639  0.00  0.00    +0.000 C 
BRANCH  23  24
ATOM     24  N   UNL     1      48.475   1.886   5.403  0.00  0.00    +0.000 NA
ATOM     25  H   UNL     1      47.735   1.920   4.702  0.00  0.00    +0.000 HD
ATOM     26  H   UNL     1      48.650   0.895   5.573  0.00  0.00    +0.000 HD
ENDBRANCH  23  24
ENDBRANCH  22  23
ENDBRANCH  16  22
ENDBRANCH  15  19
ENDBRANCH   1  15
TORSDOF 6
ENDMDL
MODEL 4
REMARK VINA RESULT:    -7.423      2.060      2.544
REMARK INTER + INTRA:         -10.456
REMARK INTER:                  -9.762
REMARK INTRA:                  -0.694
REMARK UNBOUND:                -0.646
REMARK  Name = 
REMARK  6 active torsions:
REMARK  status: ('A' for Active; 'I' for Inactive)
REMARK    1  A    between atoms: N_1  and  C_2
REMARK    2  A    between atoms: C_2  and  C_3
REMARK    3  A    between atoms: C_3  and  C_4
REMARK    4  A    between atoms: C_7  and  C_8
REMARK    5  A    between atoms: C_8  and  N_9
REMARK    6  A    between atoms: C_14  and  C_15
REMARK                            x       y       z     vdW  Elec       q    Type
REMARK                         _______ _______ _______ _____ _____    ______ ____
ROOT
ATOM      1  N   UNL     1      44.563   5.349  11.212  0.00  0.00    +0.000 N 
ATOM      2  N   UNL     1      44.396   6.682  11.346  0.00  0.00    +0.000 NA
ATOM      3  N   UNL     1      45.056   7.061  12.434  0.00  0.00    +0.000 NA
ATOM      4  C   UNL     1      45.635   5.953  12.993  0.00  0.00    +0.000 A 
ATOM      5  C   UNL     1      46.391   5.817  14.167  0.00  0.00    +0.000 A 
ATOM      6  C   UNL     1      46.850   4.540  14.523  0.00  0.00    +0.000 A 
ATOM      7  C   UNL     1      46.561   3.433  13.701  0.00  0.00    +0.000 A 
ATOM      8  C   UNL     1      45.809   3.557  12.527  0.00  0.00    +0.000 A 
ATOM      9  C   UNL     1      45.350   4.838  12.212  0.00  0.00    +0.000 A 
ENDROOT
BRANCH   6  10
ATOM     10  C   UNL     1      47.636   4.277  15.764  0.00  0.00    +0.000 C 
ATOM     11  N   UNL     1      47.834   5.296  16.651  0.00  0.00    +0.000 N 
ATOM     12  O   UNL     1      48.100   3.166  16.000  0.00  0.00    +0.000 OA
ATOM     13  H   UNL     1      47.504   6.242  16.544  0.00  0.00    +0.000 HD
ATOM     14  H   UNL     1      48.370   5.077  17.480  0.00  0.00    +0.000 HD
ENDBRANCH   6  10
BRANCH   1  15
ATOM     15  C   UNL     1      43.782   4.617  10.231  0.00  0.00    +0.000 C 
BRANCH  15  19
ATOM     16  C   UNL     1      46.238   2.126   7.797  0.00  0.00    +0.000 A 
ATOM     17  C   UNL     1      45.373   1.515   8.700  0.00  0.00    +0.000 A 
ATOM     18  C   UNL     1      44.554   2.312   9.497  0.00  0.00    +0.000 A 
ATOM     19  C   UNL     1      44.624   3.703   9.390  0.00  0.00    +0.000 A 
ATOM     20  C   UNL     1      45.522   4.224   8.465  0.00  0.00    +0.000 A 
ATOM     21  N   UNL     1      46.318   3.471   7.672  0.00  0.00    +0.000 NA
BRANCH  16  22
ATOM     22  C   UNL     1      47.153   1.299   6.930  0.00  0.00    +0.000 C 
BRANCH  22  23
ATOM     23  C   UNL     1      48.350   2.119   6.447  0.00  0.00    +0.000 C 
BRANCH  23  24
ATOM     24  N   UNL     1      48.050   2.789   5.178  0.00  0.00    +0.000 NA
ATOM     25  H   UNL     1      48.924   2.961   4.680  0.00  0.00    +0.000 HD
ATOM     26  H   UNL     1      47.656   3.709   5.371  0.00  0.00    +0.000 HD
ENDBRANCH  23  24
ENDBRANCH  22  23
ENDBRANCH  16  22
ENDBRANCH  15  19
ENDBRANCH   1  15
TORSDOF 6
ENDMDL
MODEL 5
REMARK VINA RESULT:    -6.599      3.183      6.914
REMARK INTER + INTRA:          -9.367
REMARK INTER:                  -8.591
REMARK INTRA:                  -0.776
REMARK UNBOUND:                -0.646
REMARK  Name = 
REMARK  6 active torsions:
REMARK  status: ('A' for Active; 'I' for Inactive)
REMARK    1  A    between atoms: N_1  and  C_2
REMARK    2  A    between atoms: C_2  and  C_3
REMARK    3  A    between atoms: C_3  and  C_4
REMARK    4  A    between atoms: C_7  and  C_8
REMARK    5  A    between atoms: C_8  and  N_9
REMARK    6  A    between atoms: C_14  and  C_15
REMARK                            x       y       z     vdW  Elec       q    Type
REMARK                         _______ _______ _______ _____ _____    ______ ____
ROOT
ATOM      1  N   UNL     1      44.908   4.666  10.425  0.00  0.00    +0.000 N 
ATOM      2  N   UNL     1      45.282   5.909  10.053  0.00  0.00    +0.000 NA
ATOM      3  N   UNL     1      45.972   5.800   8.924  0.00  0.00    +0.000 NA
ATOM      4  C   UNL     1      46.041   4.473   8.590  0.00  0.00    +0.000 A 
ATOM      5  C   UNL     1      46.693   3.837   7.523  0.00  0.00    +0.000 A 
ATOM      6  C   UNL     1      46.619   2.439   7.431  0.00  0.00    +0.000 A 
ATOM      7  C   UNL     1      45.890   1.708   8.389  0.00  0.00    +0.000 A 
ATOM      8  C   UNL     1      45.234   2.331   9.457  0.00  0.00    +0.000 A 
ATOM      9  C   UNL     1      45.344   3.722   9.531  0.00  0.00    +0.000 A 
ENDROOT
BRANCH   6  10
ATOM     10  C   UNL     1      47.299   1.660   6.356  0.00  0.00    +0.000 C 
ATOM     11  N   UNL     1      48.217   2.286   5.562  0.00  0.00    +0.000 N 
ATOM     12  O   UNL     1      47.051   0.472   6.177  0.00  0.00    +0.000 OA
ATOM     13  H   UNL     1      48.482   3.257   5.622  0.00  0.00    +0.000 HD
ATOM     14  H   UNL     1      48.656   1.724   4.847  0.00  0.00    +0.000 HD
ENDBRANCH   6  10
BRANCH   1  15
ATOM     15  C   UNL     1      44.321   4.449  11.735  0.00  0.00    +0.000 C 
BRANCH  15  19
ATOM     16  C   UNL     1      47.259   4.295  14.818  0.00  0.00    +0.000 A 
ATOM     17  C   UNL     1      46.684   5.527  14.520  0.00  0.00    +0.000 A 
ATOM     18  C   UNL     1      45.714   5.596  13.523  0.00  0.00    +0.000 A 
ATOM     19  C   UNL     1      45.347   4.438  12.831  0.00  0.00    +0.000 A 
ATOM     20  C   UNL     1      45.979   3.255  13.194  0.00  0.00    +0.000 A 
ATOM     21  N   UNL     1      46.913   3.160  14.167  0.00  0.00    +0.000 NA
BRANCH  16  22
ATOM     22  C   UNL     1      48.324   4.182  15.879  0.00  0.00    +0.000 C 
BRANCH  22  23
ATOM     23  C   UNL     1      48.271   2.821  16.575  0.00  0.00    +0.000 C 
BRANCH  23  24
ATOM     24  N   UNL     1      49.203   1.876  15.953  0.00  0.00    +0.000 NA
ATOM     25  H   UNL     1      49.331   2.133  14.974  0.00  0.00    +0.000 HD
ATOM     26  H   UNL     1      48.780   0.948  15.942  0.00  0.00    +0.000 HD
ENDBRANCH  23  24
ENDBRANCH  22  23
ENDBRANCH  16  22
ENDBRANCH  15  19
ENDBRANCH   1  15
TORSDOF 6
ENDMDL
MODEL 6
REMARK VINA RESULT:    -6.049      3.442      6.961
REMARK INTER + INTRA:          -8.640
REMARK INTER:                  -7.876
REMARK INTRA:                  -0.764
REMARK UNBOUND:                -0.646
REMARK  Name = 
REMARK  6 active torsions:
REMARK  status: ('A' for Active; 'I' for Inactive)
REMARK    1  A    between atoms: N_1  and  C_2
REMARK    2  A    between atoms: C_2  and  C_3
REMARK    3  A    between atoms: C_3  and  C_4
REMARK    4  A    between atoms: C_7  and  C_8
REMARK    5  A    between atoms: C_8  and  N_9
REMARK    6  A    between atoms: C_14  and  C_15
REMARK                            x       y       z     vdW  Elec       q    Type
REMARK                         _______ _______ _______ _____ _____    ______ ____
ROOT
ATOM      1  N   UNL     1      47.586   6.088  13.838  0.00  0.00    +0.000 N 
ATOM      2  N   UNL     1      47.854   5.190  14.811  0.00  0.00    +0.000 NA
ATOM      3  N   UNL     1      47.181   4.081  14.529  0.00  0.00    +0.000 NA
ATOM      4  C   UNL     1      46.476   4.288  13.373  0.00  0.00    +0.000 A 
ATOM      5  C   UNL     1      45.584   3.448  12.690  0.00  0.00    +0.000 A 
ATOM      6  C   UNL     1      44.973   3.929  11.522  0.00  0.00    +0.000 A 
ATOM      7  C   UNL     1      45.273   5.223  11.052  0.00  0.00    +0.000 A 
ATOM      8  C   UNL     1      46.162   6.069  11.725  0.00  0.00    +0.000 A 
ATOM      9  C   UNL     1      46.737   5.568  12.894  0.00  0.00    +0.000 A 
ENDROOT
BRANCH   6  10
ATOM     10  C   UNL     1      43.987   3.132  10.735  0.00  0.00    +0.000 C 
ATOM     11  N   UNL     1      44.152   3.022   9.384  0.00  0.00    +0.000 N 
ATOM     12  O   UNL     1      43.039   2.576  11.278  0.00  0.00    +0.000 OA
ATOM     13  H   UNL     1      44.889   3.448   8.844  0.00  0.00    +0.000 HD
ATOM     14  H   UNL     1      43.464   2.473   8.887  0.00  0.00    +0.000 HD
ENDBRANCH   6  10
BRANCH   1  15
ATOM     15  C   UNL     1      48.014   7.467  13.988  0.00  0.00    +0.000 C 
BRANCH  15  19
ATOM     16  C   UNL     1      51.723   8.288  12.058  0.00  0.00    +0.000 A 
ATOM     17  C   UNL     1      50.640   7.918  11.267  0.00  0.00    +0.000 A 
ATOM     18  C   UNL     1      49.415   7.656  11.879  0.00  0.00    +0.000 A 
ATOM     19  C   UNL     1      49.299   7.752  13.268  0.00  0.00    +0.000 A 
ATOM     20  C   UNL     1      50.437   8.123  13.975  0.00  0.00    +0.000 A 
ATOM     21  N   UNL     1      51.632   8.395  13.404  0.00  0.00    +0.000 NA
BRANCH  16  22
ATOM     22  C   UNL     1      53.068   8.563  11.435  0.00  0.00    +0.000 C 
BRANCH  22  23
ATOM     23  C   UNL     1      54.199   8.360  12.445  0.00  0.00    +0.000 C 
BRANCH  23  24
ATOM     24  N   UNL     1      54.347   6.943  12.791  0.00  0.00    +0.000 NA
ATOM     25  H   UNL     1      55.277   6.793  13.181  0.00  0.00    +0.000 HD
ATOM     26  H   UNL     1      54.312   6.386  11.937  0.00  0.00    +0.000 HD
ENDBRANCH  23  24
ENDBRANCH  22  23
ENDBRANCH  16  22
ENDBRANCH  15  19
ENDBRANCH   1  15
TORSDOF 6
ENDMDL
MODEL 7
REMARK VINA RESULT:    -5.883      4.850      6.980
REMARK INTER + INTRA:          -8.420
REMARK INTER:                  -7.622
REMARK INTRA:                  -0.798
REMARK UNBOUND:                -0.646
REMARK  Name = 
REMARK  6 active torsions:
REMARK  status: ('A' for Active; 'I' for Inactive)
REMARK    1  A    between atoms: N_1  and  C_2
REMARK    2  A    between atoms: C_2  and  C_3
REMARK    3  A    between atoms: C_3  and  C_4
REMARK    4  A    between atoms: C_7  and  C_8
REMARK    5  A    between atoms: C_8  and  N_9
REMARK    6  A    between atoms: C_14  and  C_15
REMARK                            x       y       z     vdW  Elec       q    Type
REMARK                         _______ _______ _______ _____ _____    ______ ____
ROOT
ATOM      1  N   UNL     1      48.432   3.132  16.746  0.00  0.00    +0.000 N 
ATOM      2  N   UNL     1      48.678   2.084  15.930  0.00  0.00    +0.000 NA
ATOM      3  N   UNL     1      49.925   1.688  16.151  0.00  0.00    +0.000 NA
ATOM      4  C   UNL     1      50.471   2.501  17.108  0.00  0.00    +0.000 A 
ATOM      5  C   UNL     1      51.765   2.524  17.650  0.00  0.00    +0.000 A 
ATOM      6  C   UNL     1      52.068   3.495  18.617  0.00  0.00    +0.000 A 
ATOM      7  C   UNL     1      51.079   4.409  19.032  0.00  0.00    +0.000 A 
ATOM      8  C   UNL     1      49.785   4.394  18.498  0.00  0.00    +0.000 A 
ATOM      9  C   UNL     1      49.522   3.428  17.524  0.00  0.00    +0.000 A 
ENDROOT
BRANCH   6  10
ATOM     10  C   UNL     1      53.418   3.629  19.237  0.00  0.00    +0.000 C 
ATOM     11  N   UNL     1      53.655   3.036  20.444  0.00  0.00    +0.000 N 
ATOM     12  O   UNL     1      54.315   4.256  18.682  0.00  0.00    +0.000 OA
ATOM     13  H   UNL     1      52.985   2.510  20.983  0.00  0.00    +0.000 HD
ATOM     14  H   UNL     1      54.582   3.149  20.830  0.00  0.00    +0.000 HD
ENDBRANCH   6  10
BRANCH   1  15
ATOM     15  C   UNL     1      47.219   3.911  16.577  0.00  0.00    +0.000 C 
BRANCH  15  19
ATOM     16  C   UNL     1      47.081   6.040  12.888  0.00  0.00    +0.000 A 
ATOM     17  C   UNL     1      47.967   6.479  13.866  0.00  0.00    +0.000 A 
ATOM     18  C   UNL     1      48.035   5.790  15.076  0.00  0.00    +0.000 A 
ATOM     19  C   UNL     1      47.206   4.686  15.291  0.00  0.00    +0.000 A 
ATOM     20  C   UNL     1      46.349   4.324  14.258  0.00  0.00    +0.000 A 
ATOM     21  N   UNL     1      46.274   4.969  13.072  0.00  0.00    +0.000 NA
BRANCH  16  22
ATOM     22  C   UNL     1      46.966   6.769  11.574  0.00  0.00    +0.000 C 
BRANCH  22  23
ATOM     23  C   UNL     1      45.539   6.703  11.026  0.00  0.00    +0.000 C 
BRANCH  23  24
ATOM     24  N   UNL     1      45.405   5.627  10.039  0.00  0.00    +0.000 NA
ATOM     25  H   UNL     1      45.679   5.983   9.123  0.00  0.00    +0.000 HD
ATOM     26  H   UNL     1      44.420   5.373   9.954  0.00  0.00    +0.000 HD
ENDBRANCH  23  24
ENDBRANCH  22  23
ENDBRANCH  16  22
ENDBRANCH  15  19
ENDBRANCH   1  15
TORSDOF 6
ENDMDL
MODEL 8
REMARK VINA RESULT:    -5.699      4.305      7.682
REMARK INTER + INTRA:          -8.178
REMARK INTER:                  -7.341
REMARK INTRA:                  -0.837
REMARK UNBOUND:                -0.646
REMARK  Name = 
REMARK  6 active torsions:
REMARK  status: ('A' for Active; 'I' for Inactive)
REMARK    1  A    between atoms: N_1  and  C_2
REMARK    2  A    between atoms: C_2  and  C_3
REMARK    3  A    between atoms: C_3  and  C_4
REMARK    4  A    between atoms: C_7  and  C_8
REMARK    5  A    between atoms: C_8  and  N_9
REMARK    6  A    between atoms: C_14  and  C_15
REMARK                            x       y       z     vdW  Elec       q    Type
REMARK                         _______ _______ _______ _____ _____    ______ ____
ROOT
ATOM      1  N   UNL     1      46.344   4.324  13.354  0.00  0.00    +0.000 N 
ATOM      2  N   UNL     1      45.234   3.555  13.323  0.00  0.00    +0.000 NA
ATOM      3  N   UNL     1      44.261   4.276  12.778  0.00  0.00    +0.000 NA
ATOM      4  C   UNL     1      44.764   5.513  12.472  0.00  0.00    +0.000 A 
ATOM      5  C   UNL     1      44.132   6.642  11.928  0.00  0.00    +0.000 A 
ATOM      6  C   UNL     1      44.890   7.806  11.737  0.00  0.00    +0.000 A 
ATOM      7  C   UNL     1      46.258   7.819  12.076  0.00  0.00    +0.000 A 
ATOM      8  C   UNL     1      46.899   6.700  12.618  0.00  0.00    +0.000 A 
ATOM      9  C   UNL     1      46.111   5.563  12.814  0.00  0.00    +0.000 A 
ENDROOT
BRANCH   6  10
ATOM     10  C   UNL     1      44.313   9.070  11.195  0.00  0.00    +0.000 C 
ATOM     11  N   UNL     1      43.052   9.052  10.672  0.00  0.00    +0.000 N 
ATOM     12  O   UNL     1      44.948  10.120  11.214  0.00  0.00    +0.000 OA
ATOM     13  H   UNL     1      42.456   8.243  10.600  0.00  0.00    +0.000 HD
ATOM     14  H   UNL     1      42.697   9.929  10.316  0.00  0.00    +0.000 HD
ENDBRANCH   6  10
BRANCH   1  15
ATOM     15  C   UNL     1      47.513   3.877  14.090  0.00  0.00    +0.000 C 
BRANCH  15  19
ATOM     16  C   UNL     1      47.588   5.347  18.089  0.00  0.00    +0.000 A 
ATOM     17  C   UNL     1      48.309   6.040  17.122  0.00  0.00    +0.000 A 
ATOM     18  C   UNL     1      48.288   5.581  15.806  0.00  0.00    +0.000 A 
ATOM     19  C   UNL     1      47.562   4.432  15.484  0.00  0.00    +0.000 A 
ATOM     20  C   UNL     1      46.878   3.803  16.518  0.00  0.00    +0.000 A 
ATOM     21  N   UNL     1      46.872   4.235  17.799  0.00  0.00    +0.000 NA
BRANCH  16  22
ATOM     22  C   UNL     1      47.600   5.801  19.526  0.00  0.00    +0.000 C 
BRANCH  22  23
ATOM     23  C   UNL     1      48.726   5.126  20.312  0.00  0.00    +0.000 C 
BRANCH  23  24
ATOM     24  N   UNL     1      48.377   3.742  20.645  0.00  0.00    +0.000 NA
ATOM     25  H   UNL     1      48.377   3.186  19.789  0.00  0.00    +0.000 HD
ATOM     26  H   UNL     1      47.419   3.713  20.993  0.00  0.00    +0.000 HD
ENDBRANCH  23  24
ENDBRANCH  22  23
ENDBRANCH  16  22
ENDBRANCH  15  19
ENDBRANCH   1  15
TORSDOF 6
ENDMDL
MODEL 9
REMARK VINA RESULT:    -5.400      3.692      7.867
REMARK INTER + INTRA:          -7.783
REMARK INTER:                  -7.058
REMARK INTRA:                  -0.724
REMARK UNBOUND:                -0.646
REMARK  Name = 
REMARK  6 active torsions:
REMARK  status: ('A' for Active; 'I' for Inactive)
REMARK    1  A    between atoms: N_1  and  C_2
REMARK    2  A    between atoms: C_2  and  C_3
REMARK    3  A    between atoms: C_3  and  C_4
REMARK    4  A    between atoms: C_7  and  C_8
REMARK    5  A    between atoms: C_8  and  N_9
REMARK    6  A    between atoms: C_14  and  C_15
REMARK                            x       y       z     vdW  Elec       q    Type
REMARK                         _______ _______ _______ _____ _____    ______ ____
ROOT
ATOM      1  N   UNL     1      47.866   5.216  15.211  0.00  0.00    +0.000 N 
ATOM      2  N   UNL     1      47.941   3.901  15.512  0.00  0.00    +0.000 NA
ATOM      3  N   UNL     1      47.279   3.236  14.572  0.00  0.00    +0.000 NA
ATOM      4  C   UNL     1      46.776   4.144  13.678  0.00  0.00    +0.000 A 
ATOM      5  C   UNL     1      45.972   3.953  12.544  0.00  0.00    +0.000 A 
ATOM      6  C   UNL     1      45.575   5.079  11.808  0.00  0.00    +0.000 A 
ATOM      7  C   UNL     1      45.994   6.364  12.206  0.00  0.00    +0.000 A 
ATOM      8  C   UNL     1      46.797   6.567  13.334  0.00  0.00    +0.000 A 
ATOM      9  C   UNL     1      47.159   5.427  14.056  0.00  0.00    +0.000 A 
ENDROOT
BRANCH   6  10
ATOM     10  C   UNL     1      44.697   4.994  10.605  0.00  0.00    +0.000 C 
ATOM     11  N   UNL     1      43.457   5.564  10.647  0.00  0.00    +0.000 N 
ATOM     12  O   UNL     1      45.070   4.426   9.583  0.00  0.00    +0.000 OA
ATOM     13  H   UNL     1      43.055   6.041  11.439  0.00  0.00    +0.000 HD
ATOM     14  H   UNL     1      42.893   5.485   9.812  0.00  0.00    +0.000 HD
ENDBRANCH   6  10
BRANCH   1  15
ATOM     15  C   UNL     1      48.317   6.204  16.174  0.00  0.00    +0.000 C 
BRANCH  15  19
ATOM     16  C   UNL     1      52.552   6.680  16.180  0.00  0.00    +0.000 A 
ATOM     17  C   UNL     1      51.992   5.772  17.074  0.00  0.00    +0.000 A 
ATOM     18  C   UNL     1      50.610   5.594  17.079  0.00  0.00    +0.000 A 
ATOM     19  C   UNL     1      49.812   6.337  16.205  0.00  0.00    +0.000 A 
ATOM     20  C   UNL     1      50.460   7.224  15.353  0.00  0.00    +0.000 A 
ATOM     21  N   UNL     1      51.799   7.405  15.320  0.00  0.00    +0.000 NA
BRANCH  16  22
ATOM     22  C   UNL     1      54.041   6.913  16.155  0.00  0.00    +0.000 C 
BRANCH  22  23
ATOM     23  C   UNL     1      54.461   7.682  14.902  0.00  0.00    +0.000 C 
BRANCH  23  24
ATOM     24  N   UNL     1      54.404   6.823  13.715  0.00  0.00    +0.000 NA
ATOM     25  H   UNL     1      53.716   6.087  13.872  0.00  0.00    +0.000 HD
ATOM     26  H   UNL     1      55.299   6.346  13.604  0.00  0.00    +0.000 HD
ENDBRANCH  23  24
ENDBRANCH  22  23
ENDBRANCH  16  22
ENDBRANCH  15  19
ENDBRANCH   1  15
TORSDOF 6
ENDMDL
