MODEL 1
REMARK VINA RESULT:    -7.664      0.000      0.000
REMARK INTER + INTRA:         -12.656
REMARK INTER:                 -11.697
REMARK INTRA:                  -0.960
REMARK UNBOUND:                -0.960
REMARK  Name = 
REMARK  10 active torsions:
REMARK  status: ('A' for Active; 'I' for Inactive)
REMARK    1  A    between atoms: C_1  and  C_2
REMARK    2  A    between atoms: C_2  and  N_3
REMARK    3  A    between atoms: N_3  and  C_4
REMARK    4  A    between atoms: C_4  and  C_5
REMARK    5  A    between atoms: C_8  and  O_9
REMARK    6  A    between atoms: O_9  and  C_10
REMARK    7  A    between atoms: C_10  and  C_11
REMARK    8  A    between atoms: C_14  and  C_15
REMARK    9  A    between atoms: C_15  and  N_16
REMARK   10  A    between atoms: C_17  and  C_19
REMARK                            x       y       z     vdW  Elec       q    Type
REMARK                         _______ _______ _______ _____ _____    ______ ____
ROOT
ATOM      1  C   UNL     1      47.180   5.599  13.885  0.00  0.00    +0.000 A 
ATOM      2  C   UNL     1      47.963   6.191  14.876  0.00  0.00    +0.000 A 
ATOM      3  C   UNL     1      48.192   5.514  16.077  0.00  0.00    +0.000 A 
ATOM      4  C   UNL     1      47.644   4.245  16.254  0.00  0.00    +0.000 A 
ATOM      5  N   UNL     1      46.881   3.653  15.300  0.00  0.00    +0.000 NA
ATOM      6  C   UNL     1      46.680   4.329  14.144  0.00  0.00    +0.000 A 
ENDROOT
BRANCH   1   7
ATOM      7  C   UNL     1      46.882   6.321  12.601  0.00  0.00    +0.000 C 
BRANCH   7   8
ATOM      8  O   UNL     1      45.559   6.015  12.166  0.00  0.00    +0.000 OA
BRANCH   8  12
ATOM      9  C   UNL     1      45.487   4.032   8.552  0.00  0.00    +0.000 A 
ATOM     10  C   UNL     1      44.872   3.403   9.632  0.00  0.00    +0.000 A 
ATOM     11  C   UNL     1      44.862   4.037  10.873  0.00  0.00    +0.000 A 
ATOM     12  C   UNL     1      45.467   5.283  11.013  0.00  0.00    +0.000 A 
ATOM     13  C   UNL     1      46.038   5.844   9.876  0.00  0.00    +0.000 A 
ATOM     14  N   UNL     1      46.063   5.254   8.655  0.00  0.00    +0.000 NA
BRANCH   9  15
ATOM     15  C   UNL     1      45.480   3.371   7.188  0.00  0.00    +0.000 C 
BRANCH  15  16
ATOM     16  N   UNL     1      46.710   3.599   6.409  0.00  0.00    +0.000 NA
ATOM     17  H   UNL     1      46.493   3.460   5.423  0.00  0.00    +0.000 HD
BRANCH  16  19
ATOM     18  C   UNL     1      47.143   1.294   7.074  0.00  0.00    +0.000 C 
ATOM     19  C   UNL     1      47.760   2.654   6.803  0.00  0.00    +0.000 C 
ENDBRANCH  16  19
ENDBRANCH  15  16
ENDBRANCH   9  15
ENDBRANCH   8  12
ENDBRANCH   7   8
ENDBRANCH   1   7
BRANCH   4  20
ATOM     20  C   UNL     1      47.870   3.481  17.542  0.00  0.00    +0.000 C 
BRANCH  20  21
ATOM     21  N   UNL     1      49.278   3.229  17.786  0.00  0.00    +0.000 N 
ATOM     22  C   UNL     1      49.992   2.315  17.067  0.00  0.00    +0.000 C 
ATOM     23  O   UNL     1      49.506   1.678  16.131  0.00  0.00    +0.000 OA
ATOM     24  H   UNL     1      49.600   3.482  18.715  0.00  0.00    +0.000 HD
BRANCH  22  25
ATOM     25  C   UNL     1      51.414   2.194  17.415  0.00  0.00    +0.000 A 
ATOM     26  C   UNL     1      51.987   0.938  17.577  0.00  0.00    +0.000 A 
ATOM     27  S   UNL     1      53.656   0.991  17.929  0.00  0.00    +0.000 S 
ATOM     28  C   UNL     1      53.659   2.692  17.930  0.00  0.00    +0.000 A 
ATOM     29  N   UNL     1      54.794   3.392  18.201  0.00  0.00    +0.000 NA
ATOM     30  C   UNL     1      54.644   4.675  18.194  0.00  0.00    +0.000 A 
ATOM     31  N   UNL     1      53.464   5.322  17.931  0.00  0.00    +0.000 N 
ATOM     32  C   UNL     1      52.308   4.659  17.606  0.00  0.00    +0.000 A 
ATOM     33  O   UNL     1      51.290   5.269  17.298  0.00  0.00    +0.000 OA
ATOM     34  C   UNL     1      52.412   3.212  17.635  0.00  0.00    +0.000 A 
ATOM     35  H   UNL     1      53.417   6.331  17.920  0.00  0.00    +0.000 HD
ENDBRANCH  22  25
ENDBRANCH  20  21
ENDBRANCH   4  20
TORSDOF 9
ENDMDL
MODEL 2
REMARK VINA RESULT:    -7.523      3.389      4.365
REMARK INTER + INTRA:         -12.441
REMARK INTER:                 -11.348
REMARK INTRA:                  -1.093
REMARK UNBOUND:                -0.960
REMARK  Name = 
REMARK  10 active torsions:
REMARK  status: ('A' for Active; 'I' for Inactive)
REMARK    1  A    between atoms: C_1  and  C_2
REMARK    2  A    between atoms: C_2  and  N_3
REMARK    3  A    between atoms: N_3  and  C_4
REMARK    4  A    between atoms: C_4  and  C_5
REMARK    5  A    between atoms: C_8  and  O_9
REMARK    6  A    between atoms: O_9  and  C_10
REMARK    7  A    between atoms: C_10  and  C_11
REMARK    8  A    between atoms: C_14  and  C_15
REMARK    9  A    between atoms: C_15  and  N_16
REMARK   10  A    between atoms: C_17  and  C_19
REMARK                            x       y       z     vdW  Elec       q    Type
REMARK                         _______ _______ _______ _____ _____    ______ ____
ROOT
ATOM      1  C   UNL     1      44.489   5.505  12.630  0.00  0.00    +0.000 A 
ATOM      2  C   UNL     1      45.377   4.659  13.294  0.00  0.00    +0.000 A 
ATOM      3  C   UNL     1      46.596   5.159  13.760  0.00  0.00    +0.000 A 
ATOM      4  C   UNL     1      46.894   6.507  13.566  0.00  0.00    +0.000 A 
ATOM      5  N   UNL     1      46.042   7.345  12.922  0.00  0.00    +0.000 NA
ATOM      6  C   UNL     1      44.865   6.835  12.486  0.00  0.00    +0.000 A 
ENDROOT
BRANCH   1   7
ATOM      7  C   UNL     1      43.191   4.986  12.080  0.00  0.00    +0.000 C 
BRANCH   7   8
ATOM      8  O   UNL     1      43.159   5.151  10.664  0.00  0.00    +0.000 OA
BRANCH   8  12
ATOM      9  C   UNL     1      45.570   2.493   8.635  0.00  0.00    +0.000 A 
ATOM     10  C   UNL     1      45.765   3.849   8.378  0.00  0.00    +0.000 A 
ATOM     11  C   UNL     1      44.981   4.787   9.047  0.00  0.00    +0.000 A 
ATOM     12  C   UNL     1      44.017   4.356   9.954  0.00  0.00    +0.000 A 
ATOM     13  C   UNL     1      43.906   2.985  10.161  0.00  0.00    +0.000 A 
ATOM     14  N   UNL     1      44.655   2.048   9.529  0.00  0.00    +0.000 NA
BRANCH   9  15
ATOM     15  C   UNL     1      46.435   1.461   7.940  0.00  0.00    +0.000 C 
BRANCH  15  16
ATOM     16  N   UNL     1      47.654   2.019   7.328  0.00  0.00    +0.000 NA
ATOM     17  H   UNL     1      47.673   3.021   7.513  0.00  0.00    +0.000 HD
BRANCH  16  19
ATOM     18  C   UNL     1      46.996   2.987   5.189  0.00  0.00    +0.000 C 
ATOM     19  C   UNL     1      47.655   1.804   5.877  0.00  0.00    +0.000 C 
ENDBRANCH  16  19
ENDBRANCH  15  16
ENDBRANCH   9  15
ENDBRANCH   8  12
ENDBRANCH   7   8
ENDBRANCH   1   7
BRANCH   4  20
ATOM     20  C   UNL     1      48.206   7.084  14.056  0.00  0.00    +0.000 C 
BRANCH  20  21
ATOM     21  N   UNL     1      48.265   7.149  15.504  0.00  0.00    +0.000 N 
ATOM     22  C   UNL     1      49.362   6.747  16.209  0.00  0.00    +0.000 C 
ATOM     23  O   UNL     1      50.393   6.350  15.666  0.00  0.00    +0.000 OA
ATOM     24  H   UNL     1      47.360   7.157  15.966  0.00  0.00    +0.000 HD
BRANCH  22  25
ATOM     25  C   UNL     1      49.278   6.899  17.668  0.00  0.00    +0.000 A 
ATOM     26  C   UNL     1      49.451   8.150  18.248  0.00  0.00    +0.000 A 
ATOM     27  S   UNL     1      49.268   8.145  19.945  0.00  0.00    +0.000 S 
ATOM     28  C   UNL     1      49.004   6.464  19.968  0.00  0.00    +0.000 A 
ATOM     29  N   UNL     1      48.806   5.801  21.139  0.00  0.00    +0.000 NA
ATOM     30  C   UNL     1      48.645   4.525  21.009  0.00  0.00    +0.000 A 
ATOM     31  N   UNL     1      48.655   3.854  19.813  0.00  0.00    +0.000 N 
ATOM     32  C   UNL     1      48.803   4.489  18.605  0.00  0.00    +0.000 A 
ATOM     33  O   UNL     1      48.727   3.871  17.549  0.00  0.00    +0.000 OA
ATOM     34  C   UNL     1      49.023   5.920  18.697  0.00  0.00    +0.000 A 
ATOM     35  H   UNL     1      48.502   2.858  19.776  0.00  0.00    +0.000 HD
ENDBRANCH  22  25
ENDBRANCH  20  21
ENDBRANCH   4  20
TORSDOF 9
ENDMDL
MODEL 3
REMARK VINA RESULT:    -7.397      1.623      2.653
REMARK INTER + INTRA:         -12.249
REMARK INTER:                 -11.143
REMARK INTRA:                  -1.106
REMARK UNBOUND:                -0.960
REMARK  Name = 
REMARK  10 active torsions:
REMARK  status: ('A' for Active; 'I' for Inactive)
REMARK    1  A    between atoms: C_1  and  C_2
REMARK    2  A    between atoms: C_2  and  N_3
REMARK    3  A    between atoms: N_3  and  C_4
REMARK    4  A    between atoms: C_4  and  C_5
REMARK    5  A    between atoms: C_8  and  O_9
REMARK    6  A    between atoms: O_9  and  C_10
REMARK    7  A    between atoms: C_10  and  C_11
REMARK    8  A    between atoms: C_14  and  C_15
REMARK    9  A    between atoms: C_15  and  N_16
REMARK   10  A    between atoms: C_17  and  C_19
REMARK                            x       y       z     vdW  Elec       q    Type
REMARK                         _______ _______ _______ _____ _____    ______ ____
ROOT
ATOM      1  C   UNL     1      46.792   4.800  14.413  0.00  0.00    +0.000 A 
ATOM      2  C   UNL     1      47.061   4.377  15.714  0.00  0.00    +0.000 A 
ATOM      3  C   UNL     1      48.099   4.971  16.437  0.00  0.00    +0.000 A 
ATOM      4  C   UNL     1      48.838   5.993  15.845  0.00  0.00    +0.000 A 
ATOM      5  N   UNL     1      48.590   6.419  14.580  0.00  0.00    +0.000 NA
ATOM      6  C   UNL     1      47.574   5.829  13.905  0.00  0.00    +0.000 A 
ENDROOT
BRANCH   1   7
ATOM      7  C   UNL     1      45.710   4.151  13.596  0.00  0.00    +0.000 C 
BRANCH   7   8
ATOM      8  O   UNL     1      45.142   5.100  12.696  0.00  0.00    +0.000 OA
BRANCH   8  12
ATOM      9  C   UNL     1      45.394   3.948   8.746  0.00  0.00    +0.000 A 
ATOM     10  C   UNL     1      45.795   5.246   9.054  0.00  0.00    +0.000 A 
ATOM     11  C   UNL     1      45.738   5.679  10.377  0.00  0.00    +0.000 A 
ATOM     12  C   UNL     1      45.279   4.813  11.365  0.00  0.00    +0.000 A 
ATOM     13  C   UNL     1      44.917   3.530  10.968  0.00  0.00    +0.000 A 
ATOM     14  N   UNL     1      44.964   3.077   9.691  0.00  0.00    +0.000 NA
BRANCH   9  15
ATOM     15  C   UNL     1      45.478   3.450   7.317  0.00  0.00    +0.000 C 
BRANCH  15  16
ATOM     16  N   UNL     1      46.743   3.790   6.641  0.00  0.00    +0.000 NA
ATOM     17  H   UNL     1      46.534   4.432   5.878  0.00  0.00    +0.000 HD
BRANCH  16  19
ATOM     18  C   UNL     1      47.425   1.506   7.155  0.00  0.00    +0.000 C 
ATOM     19  C   UNL     1      47.380   2.589   6.091  0.00  0.00    +0.000 C 
ENDBRANCH  16  19
ENDBRANCH  15  16
ENDBRANCH   9  15
ENDBRANCH   8  12
ENDBRANCH   7   8
ENDBRANCH   1   7
BRANCH   4  20
ATOM     20  C   UNL     1      49.971   6.660  16.597  0.00  0.00    +0.000 C 
BRANCH  20  21
ATOM     21  N   UNL     1      50.954   5.699  17.063  0.00  0.00    +0.000 N 
ATOM     22  C   UNL     1      51.050   5.330  18.374  0.00  0.00    +0.000 C 
ATOM     23  O   UNL     1      50.280   5.746  19.240  0.00  0.00    +0.000 OA
ATOM     24  H   UNL     1      51.768   5.601  16.465  0.00  0.00    +0.000 HD
BRANCH  22  25
ATOM     25  C   UNL     1      52.078   4.328  18.684  0.00  0.00    +0.000 A 
ATOM     26  C   UNL     1      53.148   4.659  19.506  0.00  0.00    +0.000 A 
ATOM     27  S   UNL     1      54.214   3.358  19.796  0.00  0.00    +0.000 S 
ATOM     28  C   UNL     1      53.312   2.323  18.792  0.00  0.00    +0.000 A 
ATOM     29  N   UNL     1      53.705   1.039  18.574  0.00  0.00    +0.000 NA
ATOM     30  C   UNL     1      52.941   0.376  17.770  0.00  0.00    +0.000 A 
ATOM     31  N   UNL     1      51.815   0.879  17.170  0.00  0.00    +0.000 N 
ATOM     32  C   UNL     1      51.355   2.152  17.399  0.00  0.00    +0.000 A 
ATOM     33  O   UNL     1      50.301   2.544  16.911  0.00  0.00    +0.000 OA
ATOM     34  C   UNL     1      52.197   2.951  18.268  0.00  0.00    +0.000 A 
ATOM     35  H   UNL     1      51.247   0.302  16.567  0.00  0.00    +0.000 HD
ENDBRANCH  22  25
ENDBRANCH  20  21
ENDBRANCH   4  20
TORSDOF 9
ENDMDL
MODEL 4
REMARK VINA RESULT:    -7.253      3.082      4.448
REMARK INTER + INTRA:         -12.028
REMARK INTER:                 -11.216
REMARK INTRA:                  -0.812
REMARK UNBOUND:                -0.960
REMARK  Name = 
REMARK  10 active torsions:
REMARK  status: ('A' for Active; 'I' for Inactive)
REMARK    1  A    between atoms: C_1  and  C_2
REMARK    2  A    between atoms: C_2  and  N_3
REMARK    3  A    between atoms: N_3  and  C_4
REMARK    4  A    between atoms: C_4  and  C_5
REMARK    5  A    between atoms: C_8  and  O_9
REMARK    6  A    between atoms: O_9  and  C_10
REMARK    7  A    between atoms: C_10  and  C_11
REMARK    8  A    between atoms: C_14  and  C_15
REMARK    9  A    between atoms: C_15  and  N_16
REMARK   10  A    between atoms: C_17  and  C_19
REMARK                            x       y       z     vdW  Elec       q    Type
REMARK                         _______ _______ _______ _____ _____    ______ ____
ROOT
ATOM      1  C   UNL     1      44.350   6.701  11.657  0.00  0.00    +0.000 A 
ATOM      2  C   UNL     1      44.715   8.030  11.441  0.00  0.00    +0.000 A 
ATOM      3  C   UNL     1      45.794   8.576  12.142  0.00  0.00    +0.000 A 
ATOM      4  C   UNL     1      46.500   7.772  13.034  0.00  0.00    +0.000 A 
ATOM      5  N   UNL     1      46.159   6.476  13.257  0.00  0.00    +0.000 NA
ATOM      6  C   UNL     1      45.113   5.971  12.560  0.00  0.00    +0.000 A 
ENDROOT
BRANCH   1   7
ATOM      7  C   UNL     1      43.169   6.098  10.952  0.00  0.00    +0.000 C 
BRANCH   7   8
ATOM      8  O   UNL     1      43.218   4.676  11.044  0.00  0.00    +0.000 OA
BRANCH   8  12
ATOM      9  C   UNL     1      45.571   2.500   8.450  0.00  0.00    +0.000 A 
ATOM     10  C   UNL     1      45.523   3.879   8.257  0.00  0.00    +0.000 A 
ATOM     11  C   UNL     1      44.749   4.659   9.114  0.00  0.00    +0.000 A 
ATOM     12  C   UNL     1      44.036   4.050  10.143  0.00  0.00    +0.000 A 
ATOM     13  C   UNL     1      44.159   2.671  10.272  0.00  0.00    +0.000 A 
ATOM     14  N   UNL     1      44.905   1.884   9.457  0.00  0.00    +0.000 NA
BRANCH   9  15
ATOM     15  C   UNL     1      46.432   1.640   7.547  0.00  0.00    +0.000 C 
BRANCH  15  16
ATOM     16  N   UNL     1      47.749   2.226   7.245  0.00  0.00    +0.000 NA
ATOM     17  H   UNL     1      47.754   3.189   7.580  0.00  0.00    +0.000 HD
BRANCH  16  19
ATOM     18  C   UNL     1      46.888   2.974   5.090  0.00  0.00    +0.000 C 
ATOM     19  C   UNL     1      48.002   2.226   5.800  0.00  0.00    +0.000 C 
ENDBRANCH  16  19
ENDBRANCH  15  16
ENDBRANCH   9  15
ENDBRANCH   8  12
ENDBRANCH   7   8
ENDBRANCH   1   7
BRANCH   4  20
ATOM     20  C   UNL     1      47.674   8.330  13.812  0.00  0.00    +0.000 C 
BRANCH  20  21
ATOM     21  N   UNL     1      47.946   7.562  15.012  0.00  0.00    +0.000 N 
ATOM     22  C   UNL     1      49.159   6.982  15.248  0.00  0.00    +0.000 C 
ATOM     23  O   UNL     1      50.118   7.111  14.488  0.00  0.00    +0.000 OA
ATOM     24  H   UNL     1      47.123   7.181  15.469  0.00  0.00    +0.000 HD
BRANCH  22  25
ATOM     25  C   UNL     1      49.287   6.259  16.521  0.00  0.00    +0.000 A 
ATOM     26  C   UNL     1      50.092   6.767  17.533  0.00  0.00    +0.000 A 
ATOM     27  S   UNL     1      50.078   5.823  18.955  0.00  0.00    +0.000 S 
ATOM     28  C   UNL     1      49.039   4.675  18.249  0.00  0.00    +0.000 A 
ATOM     29  N   UNL     1      48.648   3.567  18.935  0.00  0.00    +0.000 NA
ATOM     30  C   UNL     1      47.881   2.770  18.268  0.00  0.00    +0.000 A 
ATOM     31  N   UNL     1      47.461   2.985  16.980  0.00  0.00    +0.000 N 
ATOM     32  C   UNL     1      47.791   4.112  16.268  0.00  0.00    +0.000 A 
ATOM     33  O   UNL     1      47.334   4.312  15.148  0.00  0.00    +0.000 OA
ATOM     34  C   UNL     1      48.682   5.024  16.959  0.00  0.00    +0.000 A 
ATOM     35  H   UNL     1      46.843   2.333  16.520  0.00  0.00    +0.000 HD
ENDBRANCH  22  25
ENDBRANCH  20  21
ENDBRANCH   4  20
TORSDOF 9
ENDMDL
MODEL 5
REMARK VINA RESULT:    -6.924      1.777      3.000
REMARK INTER + INTRA:         -11.527
REMARK INTER:                 -10.371
REMARK INTRA:                  -1.156
REMARK UNBOUND:                -0.960
REMARK  Name = 
REMARK  10 active torsions:
REMARK  status: ('A' for Active; 'I' for Inactive)
REMARK    1  A    between atoms: C_1  and  C_2
REMARK    2  A    between atoms: C_2  and  N_3
REMARK    3  A    between atoms: N_3  and  C_4
REMARK    4  A    between atoms: C_4  and  C_5
REMARK    5  A    between atoms: C_8  and  O_9
REMARK    6  A    between atoms: O_9  and  C_10
REMARK    7  A    between atoms: C_10  and  C_11
REMARK    8  A    between atoms: C_14  and  C_15
REMARK    9  A    between atoms: C_15  and  N_16
REMARK   10  A    between atoms: C_17  and  C_19
REMARK                            x       y       z     vdW  Elec       q    Type
REMARK                         _______ _______ _______ _____ _____    ______ ____
ROOT
ATOM      1  C   UNL     1      46.636   7.251  13.212  0.00  0.00    +0.000 A 
ATOM      2  C   UNL     1      46.854   8.559  13.645  0.00  0.00    +0.000 A 
ATOM      3  C   UNL     1      47.955   8.846  14.457  0.00  0.00    +0.000 A 
ATOM      4  C   UNL     1      48.828   7.818  14.804  0.00  0.00    +0.000 A 
ATOM      5  N   UNL     1      48.632   6.539  14.391  0.00  0.00    +0.000 NA
ATOM      6  C   UNL     1      47.561   6.290  13.601  0.00  0.00    +0.000 A 
ENDROOT
BRANCH   1   7
ATOM      7  C   UNL     1      45.437   6.903  12.375  0.00  0.00    +0.000 C 
BRANCH   7   8
ATOM      8  O   UNL     1      45.216   5.495  12.400  0.00  0.00    +0.000 OA
BRANCH   8  12
ATOM      9  C   UNL     1      45.400   3.874   8.614  0.00  0.00    +0.000 A 
ATOM     10  C   UNL     1      44.893   3.063   9.626  0.00  0.00    +0.000 A 
ATOM     11  C   UNL     1      44.801   3.569  10.921  0.00  0.00    +0.000 A 
ATOM     12  C   UNL     1      45.221   4.870  11.182  0.00  0.00    +0.000 A 
ATOM     13  C   UNL     1      45.696   5.613  10.107  0.00  0.00    +0.000 A 
ATOM     14  N   UNL     1      45.795   5.152   8.836  0.00  0.00    +0.000 NA
BRANCH   9  15
ATOM     15  C   UNL     1      45.478   3.351   7.194  0.00  0.00    +0.000 C 
BRANCH  15  16
ATOM     16  N   UNL     1      46.695   3.764   6.472  0.00  0.00    +0.000 NA
ATOM     17  H   UNL     1      46.418   4.371   5.702  0.00  0.00    +0.000 HD
BRANCH  16  19
ATOM     18  C   UNL     1      47.540   1.541   7.011  0.00  0.00    +0.000 C 
ATOM     19  C   UNL     1      47.400   2.598   5.929  0.00  0.00    +0.000 C 
ENDBRANCH  16  19
ENDBRANCH  15  16
ENDBRANCH   9  15
ENDBRANCH   8  12
ENDBRANCH   7   8
ENDBRANCH   1   7
BRANCH   4  20
ATOM     20  C   UNL     1      50.032   8.092  15.682  0.00  0.00    +0.000 C 
BRANCH  20  21
ATOM     21  N   UNL     1      50.720   6.871  16.059  0.00  0.00    +0.000 N 
ATOM     22  C   UNL     1      51.190   6.659  17.323  0.00  0.00    +0.000 C 
ATOM     23  O   UNL     1      51.020   7.461  18.240  0.00  0.00    +0.000 OA
ATOM     24  H   UNL     1      51.143   6.367  15.286  0.00  0.00    +0.000 HD
BRANCH  22  25
ATOM     25  C   UNL     1      51.841   5.362  17.554  0.00  0.00    +0.000 A 
ATOM     26  C   UNL     1      53.176   5.311  17.937  0.00  0.00    +0.000 A 
ATOM     27  S   UNL     1      53.747   3.726  18.210  0.00  0.00    +0.000 S 
ATOM     28  C   UNL     1      52.247   3.051  17.775  0.00  0.00    +0.000 A 
ATOM     29  N   UNL     1      52.061   1.703  17.764  0.00  0.00    +0.000 NA
ATOM     30  C   UNL     1      50.883   1.330  17.389  0.00  0.00    +0.000 A 
ATOM     31  N   UNL     1      49.870   2.184  17.033  0.00  0.00    +0.000 N 
ATOM     32  C   UNL     1      49.997   3.550  17.077  0.00  0.00    +0.000 A 
ATOM     33  O   UNL     1      49.048   4.284  16.830  0.00  0.00    +0.000 OA
ATOM     34  C   UNL     1      51.315   4.022  17.458  0.00  0.00    +0.000 A 
ATOM     35  H   UNL     1      48.962   1.829  16.770  0.00  0.00    +0.000 HD
ENDBRANCH  22  25
ENDBRANCH  20  21
ENDBRANCH   4  20
TORSDOF 9
ENDMDL
MODEL 6
REMARK VINA RESULT:    -6.503      5.871      8.706
REMARK INTER + INTRA:         -10.885
REMARK INTER:                  -9.927
REMARK INTRA:                  -0.958
REMARK UNBOUND:                -0.960
REMARK  Name = 
REMARK  10 active torsions:
REMARK  status: ('A' for Active; 'I' for Inactive)
REMARK    1  A    between atoms: C_1  and  C_2
REMARK    2  A    between atoms: C_2  and  N_3
REMARK    3  A    between atoms: N_3  and  C_4
REMARK    4  A    between atoms: C_4  and  C_5
REMARK    5  A    between atoms: C_8  and  O_9
REMARK    6  A    between atoms: O_9  and  C_10
REMARK    7  A    between atoms: C_10  and  C_11
REMARK    8  A    between atoms: C_14  and  C_15
REMARK    9  A    between atoms: C_15  and  N_16
REMARK   10  A    between atoms: C_17  and  C_19
REMARK                            x       y       z     vdW  Elec       q    Type
REMARK                         _______ _______ _______ _____ _____    ______ ____
ROOT
ATOM      1  C   UNL     1      51.088   8.126  11.529  0.00  0.00    +0.000 A 
ATOM      2  C   UNL     1      50.837   8.774  12.738  0.00  0.00    +0.000 A 
ATOM      3  C   UNL     1      49.549   8.756  13.280  0.00  0.00    +0.000 A 
ATOM      4  C   UNL     1      48.539   8.071  12.607  0.00  0.00    +0.000 A 
ATOM      5  N   UNL     1      48.766   7.435  11.429  0.00  0.00    +0.000 NA
ATOM      6  C   UNL     1      50.024   7.463  10.930  0.00  0.00    +0.000 A 
ENDROOT
BRANCH   1   7
ATOM      7  C   UNL     1      52.452   8.164  10.899  0.00  0.00    +0.000 C 
BRANCH   7   8
ATOM      8  O   UNL     1      52.335   8.150   9.479  0.00  0.00    +0.000 OA
BRANCH   8  12
ATOM      9  C   UNL     1      53.712   4.920   7.317  0.00  0.00    +0.000 A 
ATOM     10  C   UNL     1      54.286   5.137   8.568  0.00  0.00    +0.000 A 
ATOM     11  C   UNL     1      53.847   6.210   9.341  0.00  0.00    +0.000 A 
ATOM     12  C   UNL     1      52.849   7.048   8.851  0.00  0.00    +0.000 A 
ATOM     13  C   UNL     1      52.320   6.744   7.601  0.00  0.00    +0.000 A 
ATOM     14  N   UNL     1      52.723   5.707   6.826  0.00  0.00    +0.000 NA
BRANCH   9  15
ATOM     15  C   UNL     1      54.155   3.740   6.476  0.00  0.00    +0.000 C 
BRANCH  15  16
ATOM     16  N   UNL     1      53.406   2.500   6.748  0.00  0.00    +0.000 NA
ATOM     17  H   UNL     1      53.054   2.544   7.704  0.00  0.00    +0.000 HD
BRANCH  16  19
ATOM     18  C   UNL     1      54.353   0.920   5.152  0.00  0.00    +0.000 C 
ATOM     19  C   UNL     1      54.273   1.326   6.613  0.00  0.00    +0.000 C 
ENDBRANCH  16  19
ENDBRANCH  15  16
ENDBRANCH   9  15
ENDBRANCH   8  12
ENDBRANCH   7   8
ENDBRANCH   1   7
BRANCH   4  20
ATOM     20  C   UNL     1      47.131   8.031  13.164  0.00  0.00    +0.000 C 
BRANCH  20  21
ATOM     21  N   UNL     1      46.460   6.781  12.857  0.00  0.00    +0.000 N 
ATOM     22  C   UNL     1      45.368   6.721  12.040  0.00  0.00    +0.000 C 
ATOM     23  O   UNL     1      44.909   7.710  11.469  0.00  0.00    +0.000 OA
ATOM     24  H   UNL     1      46.604   6.043  13.539  0.00  0.00    +0.000 HD
BRANCH  22  25
ATOM     25  C   UNL     1      44.817   5.380  11.805  0.00  0.00    +0.000 A 
ATOM     26  C   UNL     1      44.090   4.741  12.802  0.00  0.00    +0.000 A 
ATOM     27  S   UNL     1      43.486   3.215  12.334  0.00  0.00    +0.000 S 
ATOM     28  C   UNL     1      44.219   3.331  10.804  0.00  0.00    +0.000 A 
ATOM     29  N   UNL     1      44.118   2.322   9.898  0.00  0.00    +0.000 NA
ATOM     30  C   UNL     1      44.746   2.534   8.789  0.00  0.00    +0.000 A 
ATOM     31  N   UNL     1      45.458   3.670   8.500  0.00  0.00    +0.000 N 
ATOM     32  C   UNL     1      45.547   4.733   9.363  0.00  0.00    +0.000 A 
ATOM     33  O   UNL     1      46.124   5.765   9.043  0.00  0.00    +0.000 OA
ATOM     34  C   UNL     1      44.888   4.531  10.640  0.00  0.00    +0.000 A 
ATOM     35  H   UNL     1      45.909   3.785   7.604  0.00  0.00    +0.000 HD
ENDBRANCH  22  25
ENDBRANCH  20  21
ENDBRANCH   4  20
TORSDOF 9
ENDMDL
MODEL 7
REMARK VINA RESULT:    -6.463      2.749      4.101
REMARK INTER + INTRA:         -10.823
REMARK INTER:                  -9.418
REMARK INTRA:                  -1.405
REMARK UNBOUND:                -0.960
REMARK  Name = 
REMARK  10 active torsions:
REMARK  status: ('A' for Active; 'I' for Inactive)
REMARK    1  A    between atoms: C_1  and  C_2
REMARK    2  A    between atoms: C_2  and  N_3
REMARK    3  A    between atoms: N_3  and  C_4
REMARK    4  A    between atoms: C_4  and  C_5
REMARK    5  A    between atoms: C_8  and  O_9
REMARK    6  A    between atoms: O_9  and  C_10
REMARK    7  A    between atoms: C_10  and  C_11
REMARK    8  A    between atoms: C_14  and  C_15
REMARK    9  A    between atoms: C_15  and  N_16
REMARK   10  A    between atoms: C_17  and  C_19
REMARK                            x       y       z     vdW  Elec       q    Type
REMARK                         _______ _______ _______ _____ _____    ______ ____
ROOT
ATOM      1  C   UNL     1      46.702   7.894  12.492  0.00  0.00    +0.000 A 
ATOM      2  C   UNL     1      47.610   7.367  11.574  0.00  0.00    +0.000 A 
ATOM      3  C   UNL     1      48.982   7.536  11.780  0.00  0.00    +0.000 A 
ATOM      4  C   UNL     1      49.418   8.217  12.914  0.00  0.00    +0.000 A 
ATOM      5  N   UNL     1      48.549   8.736  13.819  0.00  0.00    +0.000 NA
ATOM      6  C   UNL     1      47.225   8.552  13.598  0.00  0.00    +0.000 A 
ENDROOT
BRANCH   1   7
ATOM      7  C   UNL     1      45.220   7.765  12.276  0.00  0.00    +0.000 C 
BRANCH   7   8
ATOM      8  O   UNL     1      44.737   6.580  12.903  0.00  0.00    +0.000 OA
BRANCH   8  12
ATOM      9  C   UNL     1      44.503   3.394  10.297  0.00  0.00    +0.000 A 
ATOM     10  C   UNL     1      45.220   3.198  11.475  0.00  0.00    +0.000 A 
ATOM     11  C   UNL     1      45.319   4.241  12.393  0.00  0.00    +0.000 A 
ATOM     12  C   UNL     1      44.706   5.461  12.117  0.00  0.00    +0.000 A 
ATOM     13  C   UNL     1      43.996   5.560  10.925  0.00  0.00    +0.000 A 
ATOM     14  N   UNL     1      43.878   4.563  10.014  0.00  0.00    +0.000 NA
BRANCH   9  15
ATOM     15  C   UNL     1      44.358   2.261   9.302  0.00  0.00    +0.000 C 
BRANCH  15  16
ATOM     16  N   UNL     1      45.622   1.564   9.004  0.00  0.00    +0.000 NA
ATOM     17  H   UNL     1      46.203   1.587   9.841  0.00  0.00    +0.000 HD
BRANCH  16  19
ATOM     18  C   UNL     1      47.185   1.210   7.167  0.00  0.00    +0.000 C 
ATOM     19  C   UNL     1      46.338   2.228   7.910  0.00  0.00    +0.000 C 
ENDBRANCH  16  19
ENDBRANCH  15  16
ENDBRANCH   9  15
ENDBRANCH   8  12
ENDBRANCH   7   8
ENDBRANCH   1   7
BRANCH   4  20
ATOM     20  C   UNL     1      50.898   8.421  13.170  0.00  0.00    +0.000 C 
BRANCH  20  21
ATOM     21  N   UNL     1      51.370   7.629  14.291  0.00  0.00    +0.000 N 
ATOM     22  C   UNL     1      51.662   8.183  15.504  0.00  0.00    +0.000 C 
ATOM     23  O   UNL     1      51.498   9.378  15.746  0.00  0.00    +0.000 OA
ATOM     24  H   UNL     1      51.807   6.749  14.035  0.00  0.00    +0.000 HD
BRANCH  22  25
ATOM     25  C   UNL     1      52.105   7.246  16.545  0.00  0.00    +0.000 A 
ATOM     26  C   UNL     1      53.342   7.416  17.154  0.00  0.00    +0.000 A 
ATOM     27  S   UNL     1      53.665   6.266  18.374  0.00  0.00    +0.000 S 
ATOM     28  C   UNL     1      52.187   5.472  18.094  0.00  0.00    +0.000 A 
ATOM     29  N   UNL     1      51.844   4.359  18.798  0.00  0.00    +0.000 NA
ATOM     30  C   UNL     1      50.707   3.845  18.463  0.00  0.00    +0.000 A 
ATOM     31  N   UNL     1      49.877   4.349  17.494  0.00  0.00    +0.000 N 
ATOM     32  C   UNL     1      50.160   5.495  16.795  0.00  0.00    +0.000 A 
ATOM     33  O   UNL     1      49.360   5.963  15.993  0.00  0.00    +0.000 OA
ATOM     34  C   UNL     1      51.444   6.093  17.107  0.00  0.00    +0.000 A 
ATOM     35  H   UNL     1      48.989   3.912  17.294  0.00  0.00    +0.000 HD
ENDBRANCH  22  25
ENDBRANCH  20  21
ENDBRANCH   4  20
TORSDOF 9
ENDMDL
MODEL 8
REMARK VINA RESULT:    -5.385      5.808      8.605
REMARK INTER + INTRA:          -9.178
REMARK INTER:                  -8.797
REMARK INTRA:                  -0.382
REMARK UNBOUND:                -0.960
REMARK  Name = 
REMARK  10 active torsions:
REMARK  status: ('A' for Active; 'I' for Inactive)
REMARK    1  A    between atoms: C_1  and  C_2
REMARK    2  A    between atoms: C_2  and  N_3
REMARK    3  A    between atoms: N_3  and  C_4
REMARK    4  A    between atoms: C_4  and  C_5
REMARK    5  A    between atoms: C_8  and  O_9
REMARK    6  A    between atoms: O_9  and  C_10
REMARK    7  A    between atoms: C_10  and  C_11
REMARK    8  A    between atoms: C_14  and  C_15
REMARK    9  A    between atoms: C_15  and  N_16
REMARK   10  A    between atoms: C_17  and  C_19
REMARK                            x       y       z     vdW  Elec       q    Type
REMARK                         _______ _______ _______ _____ _____    ______ ____
ROOT
ATOM      1  C   UNL     1      51.478   8.951  11.950  0.00  0.00    +0.000 A 
ATOM      2  C   UNL     1      51.701   8.229  13.123  0.00  0.00    +0.000 A 
ATOM      3  C   UNL     1      50.633   7.955  13.982  0.00  0.00    +0.000 A 
ATOM      4  C   UNL     1      49.356   8.396  13.639  0.00  0.00    +0.000 A 
ATOM      5  N   UNL     1      49.121   9.099  12.502  0.00  0.00    +0.000 NA
ATOM      6  C   UNL     1      50.173   9.346  11.684  0.00  0.00    +0.000 A 
ENDROOT
BRANCH   1   7
ATOM      7  C   UNL     1      52.613   9.298  11.028  0.00  0.00    +0.000 C 
BRANCH   7   8
ATOM      8  O   UNL     1      52.248   9.020   9.678  0.00  0.00    +0.000 OA
BRANCH   8  12
ATOM      9  C   UNL     1      54.551   6.020   8.039  0.00  0.00    +0.000 A 
ATOM     10  C   UNL     1      54.031   6.970   7.163  0.00  0.00    +0.000 A 
ATOM     11  C   UNL     1      53.254   8.009   7.670  0.00  0.00    +0.000 A 
ATOM     12  C   UNL     1      53.008   8.079   9.038  0.00  0.00    +0.000 A 
ATOM     13  C   UNL     1      53.583   7.099   9.839  0.00  0.00    +0.000 A 
ATOM     14  N   UNL     1      54.346   6.077   9.377  0.00  0.00    +0.000 NA
BRANCH   9  15
ATOM     15  C   UNL     1      55.424   4.900   7.508  0.00  0.00    +0.000 C 
BRANCH  15  16
ATOM     16  N   UNL     1      54.847   3.557   7.693  0.00  0.00    +0.000 NA
ATOM     17  H   UNL     1      55.614   2.888   7.758  0.00  0.00    +0.000 HD
BRANCH  16  19
ATOM     18  C   UNL     1      54.782   3.332   5.267  0.00  0.00    +0.000 C 
ATOM     19  C   UNL     1      53.994   3.194   6.557  0.00  0.00    +0.000 C 
ENDBRANCH  16  19
ENDBRANCH  15  16
ENDBRANCH   9  15
ENDBRANCH   8  12
ENDBRANCH   7   8
ENDBRANCH   1   7
BRANCH   4  20
ATOM     20  C   UNL     1      48.176   8.118  14.546  0.00  0.00    +0.000 C 
BRANCH  20  21
ATOM     21  N   UNL     1      47.015   7.661  13.804  0.00  0.00    +0.000 N 
ATOM     22  C   UNL     1      46.939   6.408  13.267  0.00  0.00    +0.000 C 
ATOM     23  O   UNL     1      47.824   5.565  13.416  0.00  0.00    +0.000 OA
ATOM     24  H   UNL     1      46.448   8.402  13.403  0.00  0.00    +0.000 HD
BRANCH  22  25
ATOM     25  C   UNL     1      45.689   6.086  12.567  0.00  0.00    +0.000 A 
ATOM     26  C   UNL     1      44.933   7.100  11.990  0.00  0.00    +0.000 A 
ATOM     27  S   UNL     1      43.542   6.535  11.177  0.00  0.00    +0.000 S 
ATOM     28  C   UNL     1      43.874   4.924  11.613  0.00  0.00    +0.000 A 
ATOM     29  N   UNL     1      43.037   3.913  11.253  0.00  0.00    +0.000 NA
ATOM     30  C   UNL     1      43.398   2.746  11.674  0.00  0.00    +0.000 A 
ATOM     31  N   UNL     1      44.525   2.497  12.414  0.00  0.00    +0.000 N 
ATOM     32  C   UNL     1      45.422   3.478  12.758  0.00  0.00    +0.000 A 
ATOM     33  O   UNL     1      46.460   3.210  13.351  0.00  0.00    +0.000 OA
ATOM     34  C   UNL     1      45.045   4.815  12.340  0.00  0.00    +0.000 A 
ATOM     35  H   UNL     1      44.764   1.557  12.695  0.00  0.00    +0.000 HD
ENDBRANCH  22  25
ENDBRANCH  20  21
ENDBRANCH   4  20
TORSDOF 9
ENDMDL
MODEL 9
REMARK VINA RESULT:    -5.146      3.629      5.337
REMARK INTER + INTRA:          -8.814
REMARK INTER:                  -7.417
REMARK INTRA:                  -1.396
REMARK UNBOUND:                -0.960
REMARK  Name = 
REMARK  10 active torsions:
REMARK  status: ('A' for Active; 'I' for Inactive)
REMARK    1  A    between atoms: C_1  and  C_2
REMARK    2  A    between atoms: C_2  and  N_3
REMARK    3  A    between atoms: N_3  and  C_4
REMARK    4  A    between atoms: C_4  and  C_5
REMARK    5  A    between atoms: C_8  and  O_9
REMARK    6  A    between atoms: O_9  and  C_10
REMARK    7  A    between atoms: C_10  and  C_11
REMARK    8  A    between atoms: C_14  and  C_15
REMARK    9  A    between atoms: C_15  and  N_16
REMARK   10  A    between atoms: C_17  and  C_19
REMARK                            x       y       z     vdW  Elec       q    Type
REMARK                         _______ _______ _______ _____ _____    ______ ____
ROOT
ATOM      1  C   UNL     1      49.319   9.783  12.981  0.00  0.00    +0.000 A 
ATOM      2  C   UNL     1      50.192   8.697  12.916  0.00  0.00    +0.000 A 
ATOM      3  C   UNL     1      50.950   8.348  14.036  0.00  0.00    +0.000 A 
ATOM      4  C   UNL     1      50.805   9.085  15.210  0.00  0.00    +0.000 A 
ATOM      5  N   UNL     1      49.960  10.145  15.292  0.00  0.00    +0.000 NA
ATOM      6  C   UNL     1      49.233  10.457  14.192  0.00  0.00    +0.000 A 
ENDROOT
BRANCH   1   7
ATOM      7  C   UNL     1      48.522  10.208  11.780  0.00  0.00    +0.000 C 
BRANCH   7   8
ATOM      8  O   UNL     1      47.150  10.362  12.134  0.00  0.00    +0.000 OA
BRANCH   8  12
ATOM      9  C   UNL     1      44.564   7.205  11.544  0.00  0.00    +0.000 A 
ATOM     10  C   UNL     1      45.855   6.897  11.967  0.00  0.00    +0.000 A 
ATOM     11  C   UNL     1      46.763   7.929  12.190  0.00  0.00    +0.000 A 
ATOM     12  C   UNL     1      46.368   9.248  11.983  0.00  0.00    +0.000 A 
ATOM     13  C   UNL     1      45.055   9.463  11.578  0.00  0.00    +0.000 A 
ATOM     14  N   UNL     1      44.147   8.481  11.356  0.00  0.00    +0.000 NA
BRANCH   9  15
ATOM     15  C   UNL     1      43.554   6.097  11.327  0.00  0.00    +0.000 C 
BRANCH  15  16
ATOM     16  N   UNL     1      43.907   5.175  10.232  0.00  0.00    +0.000 NA
ATOM     17  H   UNL     1      43.301   5.376   9.438  0.00  0.00    +0.000 HD
BRANCH  16  19
ATOM     18  C   UNL     1      44.864   3.342  11.523  0.00  0.00    +0.000 C 
ATOM     19  C   UNL     1      43.709   3.780  10.640  0.00  0.00    +0.000 C 
ENDBRANCH  16  19
ENDBRANCH  15  16
ENDBRANCH   9  15
ENDBRANCH   8  12
ENDBRANCH   7   8
ENDBRANCH   1   7
BRANCH   4  20
ATOM     20  C   UNL     1      51.612   8.737  16.444  0.00  0.00    +0.000 C 
BRANCH  20  21
ATOM     21  N   UNL     1      51.067   7.587  17.143  0.00  0.00    +0.000 N 
ATOM     22  C   UNL     1      50.087   7.704  18.085  0.00  0.00    +0.000 C 
ATOM     23  O   UNL     1      49.562   8.780  18.371  0.00  0.00    +0.000 OA
ATOM     24  H   UNL     1      51.678   6.777  17.167  0.00  0.00    +0.000 HD
BRANCH  22  25
ATOM     25  C   UNL     1      49.622   6.445  18.684  0.00  0.00    +0.000 A 
ATOM     26  C   UNL     1      49.800   6.213  20.043  0.00  0.00    +0.000 A 
ATOM     27  S   UNL     1      49.154   4.724  20.571  0.00  0.00    +0.000 S 
ATOM     28  C   UNL     1      48.662   4.315  18.995  0.00  0.00    +0.000 A 
ATOM     29  N   UNL     1      48.056   3.125  18.735  0.00  0.00    +0.000 NA
ATOM     30  C   UNL     1      47.761   2.936  17.492  0.00  0.00    +0.000 A 
ATOM     31  N   UNL     1      48.009   3.834  16.485  0.00  0.00    +0.000 N 
ATOM     32  C   UNL     1      48.574   5.065  16.708  0.00  0.00    +0.000 A 
ATOM     33  O   UNL     1      48.709   5.876  15.799  0.00  0.00    +0.000 OA
ATOM     34  C   UNL     1      48.958   5.313  18.084  0.00  0.00    +0.000 A 
ATOM     35  H   UNL     1      47.734   3.635  15.534  0.00  0.00    +0.000 HD
ENDBRANCH  22  25
ENDBRANCH  20  21
ENDBRANCH   4  20
TORSDOF 9
ENDMDL
