MODEL 1
REMARK VINA RESULT:    -8.763      0.000      0.000
REMARK INTER + INTRA:         -12.037
REMARK INTER:                 -11.325
REMARK INTRA:                  -0.713
REMARK UNBOUND:                -0.713
REMARK  Name = 
REMARK  6 active torsions:
REMARK  status: ('A' for Active; 'I' for Inactive)
REMARK    1  A    between atoms: C_1  and  C_2
REMARK    2  A    between atoms: C_7  and  C_8
REMARK    3  A    between atoms: C_8  and  C_9
REMARK    4  A    between atoms: C_9  and  O_10
REMARK    5  A    between atoms: O_10  and  C_11
REMARK    6  A    between atoms: C_14  and  C_15
REMARK                            x       y       z     vdW  Elec       q    Type
REMARK                         _______ _______ _______ _____ _____    ______ ____
ROOT
ATOM      1  C   UNL     1      43.452   4.622  12.448  0.00  0.00    +0.000 C 
ENDROOT
BRANCH   1   8
ATOM      2  C   UNL     1      51.026   8.085  14.588  0.00  0.00    +0.000 C 
ATOM      3  C   UNL     1      49.939   7.627  13.622  0.00  0.00    +0.000 C 
ATOM      4  C   UNL     1      48.597   7.443  14.362  0.00  0.00    +0.000 C 
ATOM      5  N   UNL     1      47.465   7.265  13.440  0.00  0.00    +0.000 N 
ATOM      6  C   UNL     1      46.838   6.034  13.349  0.00  0.00    +0.000 A 
ATOM      7  C   UNL     1      45.511   5.974  12.943  0.00  0.00    +0.000 A 
ATOM      8  C   UNL     1      44.887   4.739  12.903  0.00  0.00    +0.000 A 
ATOM      9  N   UNL     1      45.540   3.608  13.216  0.00  0.00    +0.000 NA
ATOM     10  C   UNL     1      46.816   3.761  13.606  0.00  0.00    +0.000 A 
ATOM     11  N   UNL     1      47.495   4.917  13.700  0.00  0.00    +0.000 NA
ATOM     12  C   UNL     1      47.454   8.157  12.271  0.00  0.00    +0.000 C 
ATOM     13  C   UNL     1      48.847   8.259  11.634  0.00  0.00    +0.000 C 
ATOM     14  O   UNL     1      49.837   8.636  12.598  0.00  0.00    +0.000 OA
ENDBRANCH   1   8
BRANCH   1  15
ATOM     15  C   UNL     1      43.365   3.788  11.173  0.00  0.00    +0.000 C 
BRANCH  15  16
ATOM     16  O   UNL     1      43.762   4.567  10.031  0.00  0.00    +0.000 OA
BRANCH  16  17
ATOM     17  C   UNL     1      44.686   3.891   9.254  0.00  0.00    +0.000 A 
ATOM     18  C   UNL     1      44.831   2.516   9.421  0.00  0.00    +0.000 A 
ATOM     19  N   UNL     1      45.703   1.765   8.689  0.00  0.00    +0.000 NA
ATOM     20  C   UNL     1      46.431   2.474   7.777  0.00  0.00    +0.000 A 
ATOM     21  C   UNL     1      46.288   3.842   7.613  0.00  0.00    +0.000 A 
ATOM     22  N   UNL     1      45.413   4.577   8.343  0.00  0.00    +0.000 NA
BRANCH  20  23
ATOM     23  C   UNL     1      47.407   1.749   6.917  0.00  0.00    +0.000 C 
ATOM     24  N   UNL     1      48.457   2.482   6.441  0.00  0.00    +0.000 N 
ATOM     25  O   UNL     1      47.283   0.559   6.652  0.00  0.00    +0.000 OA
ATOM     26  H   UNL     1      48.546   3.466   6.668  0.00  0.00    +0.000 HD
ATOM     27  H   UNL     1      49.144   2.028   5.854  0.00  0.00    +0.000 HD
ENDBRANCH  20  23
ENDBRANCH  16  17
ENDBRANCH  15  16
ENDBRANCH   1  15
TORSDOF 5
ENDMDL
MODEL 2
REMARK VINA RESULT:    -7.991      1.354      2.027
REMARK INTER + INTRA:         -11.040
REMARK INTER:                 -10.447
REMARK INTRA:                  -0.593
REMARK UNBOUND:                -0.713
REMARK  Name = 
REMARK  6 active torsions:
REMARK  status: ('A' for Active; 'I' for Inactive)
REMARK    1  A    between atoms: C_1  and  C_2
REMARK    2  A    between atoms: C_7  and  C_8
REMARK    3  A    between atoms: C_8  and  C_9
REMARK    4  A    between atoms: C_9  and  O_10
REMARK    5  A    between atoms: O_10  and  C_11
REMARK    6  A    between atoms: C_14  and  C_15
REMARK                            x       y       z     vdW  Elec       q    Type
REMARK                         _______ _______ _______ _____ _____    ______ ____
ROOT
ATOM      1  C   UNL     1      43.137   4.993  12.230  0.00  0.00    +0.000 C 
ENDROOT
BRANCH   1   8
ATOM      2  C   UNL     1      51.042   8.173  13.387  0.00  0.00    +0.000 C 
ATOM      3  C   UNL     1      49.664   7.697  13.834  0.00  0.00    +0.000 C 
ATOM      4  C   UNL     1      49.007   6.829  12.740  0.00  0.00    +0.000 C 
ATOM      5  N   UNL     1      47.806   6.130  13.221  0.00  0.00    +0.000 N 
ATOM      6  C   UNL     1      46.557   6.507  12.757  0.00  0.00    +0.000 A 
ATOM      7  C   UNL     1      45.524   5.579  12.750  0.00  0.00    +0.000 A 
ATOM      8  C   UNL     1      44.295   5.961  12.239  0.00  0.00    +0.000 A 
ATOM      9  N   UNL     1      44.077   7.205  11.783  0.00  0.00    +0.000 NA
ATOM     10  C   UNL     1      45.133   8.033  11.819  0.00  0.00    +0.000 A 
ATOM     11  N   UNL     1      46.366   7.744  12.271  0.00  0.00    +0.000 NA
ATOM     12  C   UNL     1      47.915   5.528  14.558  0.00  0.00    +0.000 C 
ATOM     13  C   UNL     1      48.591   6.488  15.547  0.00  0.00    +0.000 C 
ATOM     14  O   UNL     1      49.855   6.947  15.050  0.00  0.00    +0.000 OA
ENDBRANCH   1   8
BRANCH   1  15
ATOM     15  C   UNL     1      43.365   3.902  11.187  0.00  0.00    +0.000 C 
BRANCH  15  16
ATOM     16  O   UNL     1      43.598   4.482   9.892  0.00  0.00    +0.000 OA
BRANCH  16  17
ATOM     17  C   UNL     1      44.540   3.763   9.178  0.00  0.00    +0.000 A 
ATOM     18  C   UNL     1      44.680   2.400   9.428  0.00  0.00    +0.000 A 
ATOM     19  N   UNL     1      45.569   1.609   8.762  0.00  0.00    +0.000 NA
ATOM     20  C   UNL     1      46.319   2.264   7.829  0.00  0.00    +0.000 A 
ATOM     21  C   UNL     1      46.182   3.620   7.582  0.00  0.00    +0.000 A 
ATOM     22  N   UNL     1      45.289   4.396   8.247  0.00  0.00    +0.000 NA
BRANCH  20  23
ATOM     23  C   UNL     1      47.316   1.491   7.036  0.00  0.00    +0.000 C 
ATOM     24  N   UNL     1      48.427   2.173   6.629  0.00  0.00    +0.000 N 
ATOM     25  O   UNL     1      47.155   0.307   6.765  0.00  0.00    +0.000 OA
ATOM     26  H   UNL     1      48.546   3.153   6.859  0.00  0.00    +0.000 HD
ATOM     27  H   UNL     1      49.129   1.685   6.089  0.00  0.00    +0.000 HD
ENDBRANCH  20  23
ENDBRANCH  16  17
ENDBRANCH  15  16
ENDBRANCH   1  15
TORSDOF 5
ENDMDL
MODEL 3
REMARK VINA RESULT:    -7.718      2.577      3.353
REMARK INTER + INTRA:         -10.686
REMARK INTER:                 -10.255
REMARK INTRA:                  -0.431
REMARK UNBOUND:                -0.713
REMARK  Name = 
REMARK  6 active torsions:
REMARK  status: ('A' for Active; 'I' for Inactive)
REMARK    1  A    between atoms: C_1  and  C_2
REMARK    2  A    between atoms: C_7  and  C_8
REMARK    3  A    between atoms: C_8  and  C_9
REMARK    4  A    between atoms: C_9  and  O_10
REMARK    5  A    between atoms: O_10  and  C_11
REMARK    6  A    between atoms: C_14  and  C_15
REMARK                            x       y       z     vdW  Elec       q    Type
REMARK                         _______ _______ _______ _____ _____    ______ ____
ROOT
ATOM      1  C   UNL     1      45.265   3.580  12.442  0.00  0.00    +0.000 C 
ENDROOT
BRANCH   1   8
ATOM      2  C   UNL     1      50.587   6.512  18.525  0.00  0.00    +0.000 C 
ATOM      3  C   UNL     1      49.226   6.205  17.909  0.00  0.00    +0.000 C 
ATOM      4  C   UNL     1      49.366   5.175  16.770  0.00  0.00    +0.000 C 
ATOM      5  N   UNL     1      48.066   4.647  16.326  0.00  0.00    +0.000 N 
ATOM      6  C   UNL     1      47.574   4.990  15.078  0.00  0.00    +0.000 A 
ATOM      7  C   UNL     1      46.689   4.133  14.437  0.00  0.00    +0.000 A 
ATOM      8  C   UNL     1      46.243   4.470  13.170  0.00  0.00    +0.000 A 
ATOM      9  N   UNL     1      46.622   5.609  12.568  0.00  0.00    +0.000 NA
ATOM     10  C   UNL     1      47.486   6.372  13.257  0.00  0.00    +0.000 A 
ATOM     11  N   UNL     1      47.991   6.115  14.476  0.00  0.00    +0.000 NA
ATOM     12  C   UNL     1      47.117   4.316  17.398  0.00  0.00    +0.000 C 
ATOM     13  C   UNL     1      47.080   5.415  18.469  0.00  0.00    +0.000 C 
ATOM     14  O   UNL     1      48.391   5.702  18.971  0.00  0.00    +0.000 OA
ENDBRANCH   1   8
BRANCH   1  15
ATOM     15  C   UNL     1      44.391   4.408  11.503  0.00  0.00    +0.000 C 
BRANCH  15  16
ATOM     16  O   UNL     1      43.773   3.567  10.514  0.00  0.00    +0.000 OA
BRANCH  16  17
ATOM     17  C   UNL     1      44.659   3.241   9.502  0.00  0.00    +0.000 A 
ATOM     18  C   UNL     1      45.120   4.249   8.659  0.00  0.00    +0.000 A 
ATOM     19  N   UNL     1      46.006   4.024   7.646  0.00  0.00    +0.000 NA
ATOM     20  C   UNL     1      46.404   2.725   7.522  0.00  0.00    +0.000 A 
ATOM     21  C   UNL     1      45.944   1.722   8.359  0.00  0.00    +0.000 A 
ATOM     22  N   UNL     1      45.067   1.959   9.367  0.00  0.00    +0.000 NA
BRANCH  20  23
ATOM     23  C   UNL     1      47.379   2.372   6.453  0.00  0.00    +0.000 C 
ATOM     24  N   UNL     1      47.433   3.214   5.378  0.00  0.00    +0.000 N 
ATOM     25  O   UNL     1      48.100   1.384   6.529  0.00  0.00    +0.000 OA
ATOM     26  H   UNL     1      46.829   4.027   5.328  0.00  0.00    +0.000 HD
ATOM     27  H   UNL     1      48.081   3.012   4.630  0.00  0.00    +0.000 HD
ENDBRANCH  20  23
ENDBRANCH  16  17
ENDBRANCH  15  16
ENDBRANCH   1  15
TORSDOF 5
ENDMDL
MODEL 4
REMARK VINA RESULT:    -7.041      1.939      2.528
REMARK INTER + INTRA:          -9.811
REMARK INTER:                  -9.465
REMARK INTRA:                  -0.346
REMARK UNBOUND:                -0.713
REMARK  Name = 
REMARK  6 active torsions:
REMARK  status: ('A' for Active; 'I' for Inactive)
REMARK    1  A    between atoms: C_1  and  C_2
REMARK    2  A    between atoms: C_7  and  C_8
REMARK    3  A    between atoms: C_8  and  C_9
REMARK    4  A    between atoms: C_9  and  O_10
REMARK    5  A    between atoms: O_10  and  C_11
REMARK    6  A    between atoms: C_14  and  C_15
REMARK                            x       y       z     vdW  Elec       q    Type
REMARK                         _______ _______ _______ _____ _____    ______ ____
ROOT
ATOM      1  C   UNL     1      45.927   5.396  11.948  0.00  0.00    +0.000 C 
ENDROOT
BRANCH   1   8
ATOM      2  C   UNL     1      50.605   6.879  19.009  0.00  0.00    +0.000 C 
ATOM      3  C   UNL     1      50.388   6.643  17.518  0.00  0.00    +0.000 C 
ATOM      4  C   UNL     1      48.915   6.896  17.137  0.00  0.00    +0.000 C 
ATOM      5  N   UNL     1      48.710   6.944  15.680  0.00  0.00    +0.000 N 
ATOM      6  C   UNL     1      48.021   5.923  15.048  0.00  0.00    +0.000 A 
ATOM      7  C   UNL     1      47.363   6.186  13.853  0.00  0.00    +0.000 A 
ATOM      8  C   UNL     1      46.641   5.165  13.259  0.00  0.00    +0.000 A 
ATOM      9  N   UNL     1      46.587   3.934  13.793  0.00  0.00    +0.000 NA
ATOM     10  C   UNL     1      47.244   3.774  14.953  0.00  0.00    +0.000 A 
ATOM     11  N   UNL     1      47.948   4.709  15.614  0.00  0.00    +0.000 NA
ATOM     12  C   UNL     1      49.723   7.694  14.923  0.00  0.00    +0.000 C 
ATOM     13  C   UNL     1      51.142   7.359  15.405  0.00  0.00    +0.000 C 
ATOM     14  O   UNL     1      51.271   7.544  16.820  0.00  0.00    +0.000 OA
ENDBRANCH   1   8
BRANCH   1  15
ATOM     15  C   UNL     1      44.787   4.395  11.781  0.00  0.00    +0.000 C 
BRANCH  15  16
ATOM     16  O   UNL     1      44.202   4.509  10.472  0.00  0.00    +0.000 OA
BRANCH  16  17
ATOM     17  C   UNL     1      44.944   3.827   9.524  0.00  0.00    +0.000 A 
ATOM     18  C   UNL     1      45.643   4.555   8.564  0.00  0.00    +0.000 A 
ATOM     19  N   UNL     1      46.413   3.969   7.602  0.00  0.00    +0.000 NA
ATOM     20  C   UNL     1      46.440   2.606   7.653  0.00  0.00    +0.000 A 
ATOM     21  C   UNL     1      45.742   1.883   8.606  0.00  0.00    +0.000 A 
ATOM     22  N   UNL     1      44.985   2.476   9.562  0.00  0.00    +0.000 NA
BRANCH  20  23
ATOM     23  C   UNL     1      47.259   1.866   6.652  0.00  0.00    +0.000 C 
ATOM     24  N   UNL     1      48.053   2.625   5.839  0.00  0.00    +0.000 N 
ATOM     25  O   UNL     1      47.230   0.645   6.562  0.00  0.00    +0.000 OA
ATOM     26  H   UNL     1      48.065   3.635   5.924  0.00  0.00    +0.000 HD
ATOM     27  H   UNL     1      48.626   2.163   5.146  0.00  0.00    +0.000 HD
ENDBRANCH  20  23
ENDBRANCH  16  17
ENDBRANCH  15  16
ENDBRANCH   1  15
TORSDOF 5
ENDMDL
MODEL 5
REMARK VINA RESULT:    -6.586      2.216      7.484
REMARK INTER + INTRA:          -9.223
REMARK INTER:                  -8.715
REMARK INTRA:                  -0.509
REMARK UNBOUND:                -0.713
REMARK  Name = 
REMARK  6 active torsions:
REMARK  status: ('A' for Active; 'I' for Inactive)
REMARK    1  A    between atoms: C_1  and  C_2
REMARK    2  A    between atoms: C_7  and  C_8
REMARK    3  A    between atoms: C_8  and  C_9
REMARK    4  A    between atoms: C_9  and  O_10
REMARK    5  A    between atoms: O_10  and  C_11
REMARK    6  A    between atoms: C_14  and  C_15
REMARK                            x       y       z     vdW  Elec       q    Type
REMARK                         _______ _______ _______ _____ _____    ______ ____
ROOT
ATOM      1  C   UNL     1      43.371   4.783  11.947  0.00  0.00    +0.000 C 
ENDROOT
BRANCH   1   8
ATOM      2  C   UNL     1      47.634   2.569   4.814  0.00  0.00    +0.000 C 
ATOM      3  C   UNL     1      47.280   2.487   6.296  0.00  0.00    +0.000 C 
ATOM      4  C   UNL     1      45.912   3.148   6.565  0.00  0.00    +0.000 C 
ATOM      5  N   UNL     1      45.404   2.862   7.915  0.00  0.00    +0.000 N 
ATOM      6  C   UNL     1      45.348   3.875   8.859  0.00  0.00    +0.000 A 
ATOM      7  C   UNL     1      44.421   3.793   9.890  0.00  0.00    +0.000 A 
ATOM      8  C   UNL     1      44.348   4.836  10.797  0.00  0.00    +0.000 A 
ATOM      9  N   UNL     1      45.164   5.900  10.717  0.00  0.00    +0.000 NA
ATOM     10  C   UNL     1      46.022   5.899   9.683  0.00  0.00    +0.000 A 
ATOM     11  N   UNL     1      46.147   4.946   8.743  0.00  0.00    +0.000 NA
ATOM     12  C   UNL     1      45.564   1.474   8.372  0.00  0.00    +0.000 C 
ATOM     13  C   UNL     1      46.961   0.934   8.037  0.00  0.00    +0.000 C 
ATOM     14  O   UNL     1      47.262   1.089   6.644  0.00  0.00    +0.000 OA
ENDBRANCH   1   8
BRANCH   1  15
ATOM     15  C   UNL     1      44.107   4.931  13.276  0.00  0.00    +0.000 C 
BRANCH  15  16
ATOM     16  O   UNL     1      45.201   4.002  13.355  0.00  0.00    +0.000 OA
BRANCH  16  17
ATOM     17  C   UNL     1      46.258   4.525  14.079  0.00  0.00    +0.000 A 
ATOM     18  C   UNL     1      46.962   5.608  13.558  0.00  0.00    +0.000 A 
ATOM     19  N   UNL     1      48.006   6.199  14.207  0.00  0.00    +0.000 NA
ATOM     20  C   UNL     1      48.311   5.638  15.414  0.00  0.00    +0.000 A 
ATOM     21  C   UNL     1      47.612   4.560  15.931  0.00  0.00    +0.000 A 
ATOM     22  N   UNL     1      46.571   3.984  15.278  0.00  0.00    +0.000 NA
BRANCH  20  23
ATOM     23  C   UNL     1      49.429   6.214  16.211  0.00  0.00    +0.000 C 
ATOM     24  N   UNL     1      49.380   7.560  16.441  0.00  0.00    +0.000 N 
ATOM     25  O   UNL     1      50.343   5.523  16.644  0.00  0.00    +0.000 OA
ATOM     26  H   UNL     1      48.618   8.119  16.075  0.00  0.00    +0.000 HD
ATOM     27  H   UNL     1      50.119   7.992  16.979  0.00  0.00    +0.000 HD
ENDBRANCH  20  23
ENDBRANCH  16  17
ENDBRANCH  15  16
ENDBRANCH   1  15
TORSDOF 5
ENDMDL
MODEL 6
REMARK VINA RESULT:    -6.322      4.570      6.501
REMARK INTER + INTRA:          -8.883
REMARK INTER:                  -8.480
REMARK INTRA:                  -0.402
REMARK UNBOUND:                -0.713
REMARK  Name = 
REMARK  6 active torsions:
REMARK  status: ('A' for Active; 'I' for Inactive)
REMARK    1  A    between atoms: C_1  and  C_2
REMARK    2  A    between atoms: C_7  and  C_8
REMARK    3  A    between atoms: C_8  and  C_9
REMARK    4  A    between atoms: C_9  and  O_10
REMARK    5  A    between atoms: O_10  and  C_11
REMARK    6  A    between atoms: C_14  and  C_15
REMARK                            x       y       z     vdW  Elec       q    Type
REMARK                         _______ _______ _______ _____ _____    ______ ____
ROOT
ATOM      1  C   UNL     1      47.489   3.205  16.998  0.00  0.00    +0.000 C 
ENDROOT
BRANCH   1   8
ATOM      2  C   UNL     1      55.493   4.664  19.779  0.00  0.00    +0.000 C 
ATOM      3  C   UNL     1      54.286   4.871  18.872  0.00  0.00    +0.000 C 
ATOM      4  C   UNL     1      53.009   4.308  19.529  0.00  0.00    +0.000 C 
ATOM      5  N   UNL     1      51.784   4.717  18.825  0.00  0.00    +0.000 N 
ATOM      6  C   UNL     1      51.051   3.779  18.117  0.00  0.00    +0.000 A 
ATOM      7  C   UNL     1      49.691   3.986  17.922  0.00  0.00    +0.000 A 
ATOM      8  C   UNL     1      48.965   3.015  17.252  0.00  0.00    +0.000 A 
ATOM      9  N   UNL     1      49.547   1.906  16.770  0.00  0.00    +0.000 NA
ATOM     10  C   UNL     1      50.863   1.785  17.012  0.00  0.00    +0.000 A 
ATOM     11  N   UNL     1      51.642   2.660  17.672  0.00  0.00    +0.000 NA
ATOM     12  C   UNL     1      51.738   6.123  18.399  0.00  0.00    +0.000 C 
ATOM     13  C   UNL     1      53.069   6.560  17.771  0.00  0.00    +0.000 C 
ATOM     14  O   UNL     1      54.173   6.290  18.643  0.00  0.00    +0.000 OA
ENDBRANCH   1   8
BRANCH   1  15
ATOM     15  C   UNL     1      47.267   4.287  15.943  0.00  0.00    +0.000 C 
BRANCH  15  16
ATOM     16  O   UNL     1      47.562   3.781  14.630  0.00  0.00    +0.000 OA
BRANCH  16  17
ATOM     17  C   UNL     1      46.568   4.111  13.726  0.00  0.00    +0.000 A 
ATOM     18  C   UNL     1      46.144   5.435  13.643  0.00  0.00    +0.000 A 
ATOM     19  N   UNL     1      45.184   5.855  12.771  0.00  0.00    +0.000 NA
ATOM     20  C   UNL     1      44.665   4.869  11.984  0.00  0.00    +0.000 A 
ATOM     21  C   UNL     1      45.085   3.551  12.068  0.00  0.00    +0.000 A 
ATOM     22  N   UNL     1      46.046   3.146  12.935  0.00  0.00    +0.000 NA
BRANCH  20  23
ATOM     23  C   UNL     1      43.615   5.222  10.988  0.00  0.00    +0.000 C 
ATOM     24  N   UNL     1      43.777   4.713   9.730  0.00  0.00    +0.000 N 
ATOM     25  O   UNL     1      42.655   5.925  11.276  0.00  0.00    +0.000 OA
ATOM     26  H   UNL     1      44.578   4.133   9.506  0.00  0.00    +0.000 HD
ATOM     27  H   UNL     1      43.087   4.928   9.023  0.00  0.00    +0.000 HD
ENDBRANCH  20  23
ENDBRANCH  16  17
ENDBRANCH  15  16
ENDBRANCH   1  15
TORSDOF 5
ENDMDL
MODEL 7
REMARK VINA RESULT:    -6.130      3.272      5.298
REMARK INTER + INTRA:          -8.634
REMARK INTER:                  -7.964
REMARK INTRA:                  -0.670
REMARK UNBOUND:                -0.713
REMARK  Name = 
REMARK  6 active torsions:
REMARK  status: ('A' for Active; 'I' for Inactive)
REMARK    1  A    between atoms: C_1  and  C_2
REMARK    2  A    between atoms: C_7  and  C_8
REMARK    3  A    between atoms: C_8  and  C_9
REMARK    4  A    between atoms: C_9  and  O_10
REMARK    5  A    between atoms: O_10  and  C_11
REMARK    6  A    between atoms: C_14  and  C_15
REMARK                            x       y       z     vdW  Elec       q    Type
REMARK                         _______ _______ _______ _____ _____    ______ ____
ROOT
ATOM      1  C   UNL     1      48.110   7.715  12.325  0.00  0.00    +0.000 C 
ENDROOT
BRANCH   1   8
ATOM      2  C   UNL     1      49.993   5.360  20.377  0.00  0.00    +0.000 C 
ATOM      3  C   UNL     1      49.086   5.536  19.165  0.00  0.00    +0.000 C 
ATOM      4  C   UNL     1      49.923   5.742  17.885  0.00  0.00    +0.000 C 
ATOM      5  N   UNL     1      49.112   5.649  16.661  0.00  0.00    +0.000 N 
ATOM      6  C   UNL     1      48.873   6.785  15.905  0.00  0.00    +0.000 A 
ATOM      7  C   UNL     1      48.610   6.656  14.548  0.00  0.00    +0.000 A 
ATOM      8  C   UNL     1      48.419   7.805  13.800  0.00  0.00    +0.000 A 
ATOM      9  N   UNL     1      48.454   9.025  14.359  0.00  0.00    +0.000 NA
ATOM     10  C   UNL     1      48.723   9.056  15.675  0.00  0.00    +0.000 A 
ATOM     11  N   UNL     1      48.947   7.998  16.474  0.00  0.00    +0.000 NA
ATOM     12  C   UNL     1      48.129   4.557  16.633  0.00  0.00    +0.000 C 
ATOM     13  C   UNL     1      47.372   4.454  17.965  0.00  0.00    +0.000 C 
ATOM     14  O   UNL     1      48.274   4.348  19.073  0.00  0.00    +0.000 OA
ENDBRANCH   1   8
BRANCH   1  15
ATOM     15  C   UNL     1      46.700   8.228  12.045  0.00  0.00    +0.000 C 
BRANCH  15  16
ATOM     16  O   UNL     1      45.752   7.613  12.934  0.00  0.00    +0.000 OA
BRANCH  16  17
ATOM     17  C   UNL     1      45.305   6.401  12.439  0.00  0.00    +0.000 A 
ATOM     18  C   UNL     1      45.105   5.344  13.324  0.00  0.00    +0.000 A 
ATOM     19  N   UNL     1      44.651   4.120  12.929  0.00  0.00    +0.000 NA
ATOM     20  C   UNL     1      44.412   4.011  11.590  0.00  0.00    +0.000 A 
ATOM     21  C   UNL     1      44.613   5.062  10.710  0.00  0.00    +0.000 A 
ATOM     22  N   UNL     1      45.060   6.277  11.115  0.00  0.00    +0.000 NA
BRANCH  20  23
ATOM     23  C   UNL     1      43.903   2.717  11.054  0.00  0.00    +0.000 C 
ATOM     24  N   UNL     1      44.534   2.231   9.944  0.00  0.00    +0.000 N 
ATOM     25  O   UNL     1      42.974   2.116  11.579  0.00  0.00    +0.000 OA
ATOM     26  H   UNL     1      45.300   2.741   9.520  0.00  0.00    +0.000 HD
ATOM     27  H   UNL     1      44.221   1.356   9.548  0.00  0.00    +0.000 HD
ENDBRANCH  20  23
ENDBRANCH  16  17
ENDBRANCH  15  16
ENDBRANCH   1  15
TORSDOF 5
ENDMDL
MODEL 8
REMARK VINA RESULT:    -5.968      3.585      8.133
REMARK INTER + INTRA:          -8.424
REMARK INTER:                  -7.618
REMARK INTRA:                  -0.807
REMARK UNBOUND:                -0.713
REMARK  Name = 
REMARK  6 active torsions:
REMARK  status: ('A' for Active; 'I' for Inactive)
REMARK    1  A    between atoms: C_1  and  C_2
REMARK    2  A    between atoms: C_7  and  C_8
REMARK    3  A    between atoms: C_8  and  C_9
REMARK    4  A    between atoms: C_9  and  O_10
REMARK    5  A    between atoms: O_10  and  C_11
REMARK    6  A    between atoms: C_14  and  C_15
REMARK                            x       y       z     vdW  Elec       q    Type
REMARK                         _______ _______ _______ _____ _____    ______ ____
ROOT
ATOM      1  C   UNL     1      50.437   7.717  14.257  0.00  0.00    +0.000 C 
ENDROOT
BRANCH   1   8
ATOM      2  C   UNL     1      42.625   5.182  11.709  0.00  0.00    +0.000 C 
ATOM      3  C   UNL     1      44.129   5.032  11.917  0.00  0.00    +0.000 C 
ATOM      4  C   UNL     1      44.638   6.051  12.957  0.00  0.00    +0.000 C 
ATOM      5  N   UNL     1      46.016   5.773  13.390  0.00  0.00    +0.000 N 
ATOM      6  C   UNL     1      47.041   6.626  13.014  0.00  0.00    +0.000 A 
ATOM      7  C   UNL     1      48.179   6.712  13.806  0.00  0.00    +0.000 A 
ATOM      8  C   UNL     1      49.173   7.603  13.439  0.00  0.00    +0.000 A 
ATOM      9  N   UNL     1      49.072   8.356  12.333  0.00  0.00    +0.000 NA
ATOM     10  C   UNL     1      47.934   8.215  11.633  0.00  0.00    +0.000 A 
ATOM     11  N   UNL     1      46.908   7.396  11.924  0.00  0.00    +0.000 NA
ATOM     12  C   UNL     1      46.327   4.360  13.649  0.00  0.00    +0.000 C 
ATOM     13  C   UNL     1      45.758   3.453  12.548  0.00  0.00    +0.000 C 
ATOM     14  O   UNL     1      44.356   3.678  12.356  0.00  0.00    +0.000 OA
ENDBRANCH   1   8
BRANCH   1  15
ATOM     15  C   UNL     1      50.156   8.441  15.572  0.00  0.00    +0.000 C 
BRANCH  15  16
ATOM     16  O   UNL     1      50.771   7.749  16.671  0.00  0.00    +0.000 OA
BRANCH  16  17
ATOM     17  C   UNL     1      50.037   6.637  17.045  0.00  0.00    +0.000 A 
ATOM     18  C   UNL     1      48.738   6.814  17.513  0.00  0.00    +0.000 A 
ATOM     19  N   UNL     1      47.935   5.776  17.887  0.00  0.00    +0.000 NA
ATOM     20  C   UNL     1      48.512   4.545  17.770  0.00  0.00    +0.000 A 
ATOM     21  C   UNL     1      49.805   4.370  17.307  0.00  0.00    +0.000 A 
ATOM     22  N   UNL     1      50.592   5.409  16.931  0.00  0.00    +0.000 NA
BRANCH  20  23
ATOM     23  C   UNL     1      47.717   3.341  18.144  0.00  0.00    +0.000 C 
ATOM     24  N   UNL     1      48.092   2.700  19.291  0.00  0.00    +0.000 N 
ATOM     25  O   UNL     1      46.776   2.947  17.467  0.00  0.00    +0.000 OA
ATOM     26  H   UNL     1      48.874   3.037  19.840  0.00  0.00    +0.000 HD
ATOM     27  H   UNL     1      47.579   1.878  19.581  0.00  0.00    +0.000 HD
ENDBRANCH  20  23
ENDBRANCH  16  17
ENDBRANCH  15  16
ENDBRANCH   1  15
TORSDOF 5
ENDMDL
MODEL 9
REMARK VINA RESULT:    -5.782      3.576      8.025
REMARK INTER + INTRA:          -8.184
REMARK INTER:                  -7.582
REMARK INTRA:                  -0.602
REMARK UNBOUND:                -0.713
REMARK  Name = 
REMARK  6 active torsions:
REMARK  status: ('A' for Active; 'I' for Inactive)
REMARK    1  A    between atoms: C_1  and  C_2
REMARK    2  A    between atoms: C_7  and  C_8
REMARK    3  A    between atoms: C_8  and  C_9
REMARK    4  A    between atoms: C_9  and  O_10
REMARK    5  A    between atoms: O_10  and  C_11
REMARK    6  A    between atoms: C_14  and  C_15
REMARK                            x       y       z     vdW  Elec       q    Type
REMARK                         _______ _______ _______ _____ _____    ______ ____
ROOT
ATOM      1  C   UNL     1      50.672   8.125  15.105  0.00  0.00    +0.000 C 
ENDROOT
BRANCH   1   8
ATOM      2  C   UNL     1      43.918   5.030  10.775  0.00  0.00    +0.000 C 
ATOM      3  C   UNL     1      45.228   4.930  11.549  0.00  0.00    +0.000 C 
ATOM      4  C   UNL     1      45.486   6.224  12.349  0.00  0.00    +0.000 C 
ATOM      5  N   UNL     1      46.587   6.079  13.314  0.00  0.00    +0.000 N 
ATOM      6  C   UNL     1      47.783   6.745  13.100  0.00  0.00    +0.000 A 
ATOM      7  C   UNL     1      48.586   7.065  14.186  0.00  0.00    +0.000 A 
ATOM      8  C   UNL     1      49.755   7.772  13.958  0.00  0.00    +0.000 A 
ATOM      9  N   UNL     1      50.135   8.126  12.720  0.00  0.00    +0.000 NA
ATOM     10  C   UNL     1      49.293   7.783  11.731  0.00  0.00    +0.000 A 
ATOM     11  N   UNL     1      48.130   7.122  11.860  0.00  0.00    +0.000 NA
ATOM     12  C   UNL     1      46.602   4.821  14.076  0.00  0.00    +0.000 C 
ATOM     13  C   UNL     1      46.324   3.616  13.167  0.00  0.00    +0.000 C 
ATOM     14  O   UNL     1      45.112   3.789  12.423  0.00  0.00    +0.000 OA
ENDBRANCH   1   8
BRANCH   1  15
ATOM     15  C   UNL     1      49.883   8.208  16.409  0.00  0.00    +0.000 C 
BRANCH  15  16
ATOM     16  O   UNL     1      50.621   7.606  17.486  0.00  0.00    +0.000 OA
BRANCH  16  17
ATOM     17  C   UNL     1      50.597   6.225  17.407  0.00  0.00    +0.000 A 
ATOM     18  C   UNL     1      49.390   5.587  17.128  0.00  0.00    +0.000 A 
ATOM     19  N   UNL     1      49.274   4.232  17.015  0.00  0.00    +0.000 NA
ATOM     20  C   UNL     1      50.440   3.548  17.202  0.00  0.00    +0.000 A 
ATOM     21  C   UNL     1      51.639   4.183  17.481  0.00  0.00    +0.000 A 
ATOM     22  N   UNL     1      51.744   5.531  17.585  0.00  0.00    +0.000 NA
BRANCH  20  23
ATOM     23  C   UNL     1      50.427   2.063  17.090  0.00  0.00    +0.000 C 
ATOM     24  N   UNL     1      51.244   1.383  17.948  0.00  0.00    +0.000 N 
ATOM     25  O   UNL     1      49.720   1.477  16.278  0.00  0.00    +0.000 OA
ATOM     26  H   UNL     1      51.825   1.881  18.613  0.00  0.00    +0.000 HD
ATOM     27  H   UNL     1      51.266   0.373  17.906  0.00  0.00    +0.000 HD
ENDBRANCH  20  23
ENDBRANCH  16  17
ENDBRANCH  15  16
ENDBRANCH   1  15
TORSDOF 5
ENDMDL
