MODEL 1
REMARK VINA RESULT:    -7.950      0.000      0.000
REMARK INTER + INTRA:         -10.187
REMARK INTER:                  -9.809
REMARK INTRA:                  -0.377
REMARK UNBOUND:                -0.377
REMARK  Name = 
REMARK  5 active torsions:
REMARK  status: ('A' for Active; 'I' for Inactive)
REMARK    1  A    between atoms: C_1  and  C_2
REMARK    2  A    between atoms: C_6  and  C_7
REMARK    3  A    between atoms: C_7  and  N_8
REMARK    4  A    between atoms: N_8  and  C_9
REMARK    5  A    between atoms: C_12  and  C_13
REMARK                            x       y       z     vdW  Elec       q    Type
REMARK                         _______ _______ _______ _____ _____    ______ ____
ROOT
ATOM      1  C   UNL     1      44.588   3.971   9.255  0.00  0.00    +0.000 A 
ATOM      2  C   UNL     1      45.514   4.360   8.289  0.00  0.00    +0.000 A 
ATOM      3  C   UNL     1      46.323   3.411   7.655  0.00  0.00    +0.000 A 
ATOM      4  C   UNL     1      46.171   2.076   8.000  0.00  0.00    +0.000 A 
ATOM      5  N   UNL     1      45.283   1.635   8.929  0.00  0.00    +0.000 NA
ATOM      6  C   UNL     1      44.523   2.597   9.521  0.00  0.00    +0.000 A 
ENDROOT
BRANCH   4   7
ATOM      7  C   UNL     1      47.039   1.046   7.340  0.00  0.00    +0.000 C 
ATOM      8  N   UNL     1      46.775  -0.259   7.639  0.00  0.00    +0.000 N 
ATOM      9  O   UNL     1      47.955   1.352   6.574  0.00  0.00    +0.000 OA
ATOM     10  H   UNL     1      46.019  -0.484   8.283  0.00  0.00    +0.000 HD
ATOM     11  H   UNL     1      47.341  -0.982   7.229  0.00  0.00    +0.000 HD
ENDBRANCH   4   7
BRANCH   1  12
ATOM     12  N   UNL     1      43.780   4.901   9.886  0.00  0.00    +0.000 N 
ATOM     13  H   UNL     1      43.671   5.831   9.478  0.00  0.00    +0.000 HD
BRANCH  12  14
ATOM     14  C   UNL     1      43.574   4.887  11.333  0.00  0.00    +0.000 C 
BRANCH  14  20
ATOM     15  C   UNL     1      47.916   7.407  11.764  0.00  0.00    +0.000 C 
ATOM     16  C   UNL     1      46.945   6.388  12.279  0.00  0.00    +0.000 A 
ATOM     17  C   UNL     1      47.200   5.678  13.451  0.00  0.00    +0.000 A 
ATOM     18  C   UNL     1      46.260   4.759  13.890  0.00  0.00    +0.000 A 
ATOM     19  N   UNL     1      45.101   4.496  13.246  0.00  0.00    +0.000 NA
ATOM     20  C   UNL     1      44.861   5.181  12.095  0.00  0.00    +0.000 A 
ATOM     21  C   UNL     1      45.753   6.132  11.593  0.00  0.00    +0.000 A 
ENDBRANCH  14  20
ENDBRANCH  12  14
ENDBRANCH   1  12
TORSDOF 4
ENDMDL
MODEL 2
REMARK VINA RESULT:    -7.787      2.708      6.141
REMARK INTER + INTRA:          -9.985
REMARK INTER:                  -9.576
REMARK INTRA:                  -0.409
REMARK UNBOUND:                -0.377
REMARK  Name = 
REMARK  5 active torsions:
REMARK  status: ('A' for Active; 'I' for Inactive)
REMARK    1  A    between atoms: C_1  and  C_2
REMARK    2  A    between atoms: C_6  and  C_7
REMARK    3  A    between atoms: C_7  and  N_8
REMARK    4  A    between atoms: N_8  and  C_9
REMARK    5  A    between atoms: C_12  and  C_13
REMARK                            x       y       z     vdW  Elec       q    Type
REMARK                         _______ _______ _______ _____ _____    ______ ____
ROOT
ATOM      1  C   UNL     1      45.245   4.992  11.233  0.00  0.00    +0.000 A 
ATOM      2  C   UNL     1      46.103   5.963  11.744  0.00  0.00    +0.000 A 
ATOM      3  C   UNL     1      46.735   5.778  12.978  0.00  0.00    +0.000 A 
ATOM      4  C   UNL     1      46.497   4.601  13.673  0.00  0.00    +0.000 A 
ATOM      5  N   UNL     1      45.676   3.616  13.224  0.00  0.00    +0.000 NA
ATOM      6  C   UNL     1      45.082   3.845  12.021  0.00  0.00    +0.000 A 
ENDROOT
BRANCH   4   7
ATOM      7  C   UNL     1      47.155   4.391  15.004  0.00  0.00    +0.000 C 
ATOM      8  N   UNL     1      47.558   5.511  15.671  0.00  0.00    +0.000 N 
ATOM      9  O   UNL     1      47.338   3.268  15.477  0.00  0.00    +0.000 OA
ATOM     10  H   UNL     1      47.404   6.428  15.253  0.00  0.00    +0.000 HD
ATOM     11  H   UNL     1      48.016   5.417  16.561  0.00  0.00    +0.000 HD
ENDBRANCH   4   7
BRANCH   1  12
ATOM     12  N   UNL     1      44.618   5.163  10.011  0.00  0.00    +0.000 N 
ATOM     13  H   UNL     1      44.068   6.008   9.842  0.00  0.00    +0.000 HD
BRANCH  12  14
ATOM     14  C   UNL     1      44.175   4.027   9.205  0.00  0.00    +0.000 C 
BRANCH  14  20
ATOM     15  C   UNL     1      46.831   0.029   7.674  0.00  0.00    +0.000 C 
ATOM     16  C   UNL     1      46.584   1.507   7.670  0.00  0.00    +0.000 A 
ATOM     17  C   UNL     1      47.392   2.370   6.932  0.00  0.00    +0.000 A 
ATOM     18  C   UNL     1      47.108   3.727   6.952  0.00  0.00    +0.000 A 
ATOM     19  N   UNL     1      46.092   4.277   7.653  0.00  0.00    +0.000 NA
ATOM     20  C   UNL     1      45.313   3.433   8.383  0.00  0.00    +0.000 A 
ATOM     21  C   UNL     1      45.526   2.052   8.406  0.00  0.00    +0.000 A 
ENDBRANCH  14  20
ENDBRANCH  12  14
ENDBRANCH   1  12
TORSDOF 4
ENDMDL
MODEL 3
REMARK VINA RESULT:    -7.726      1.108      1.736
REMARK INTER + INTRA:          -9.910
REMARK INTER:                  -9.464
REMARK INTRA:                  -0.446
REMARK UNBOUND:                -0.377
REMARK  Name = 
REMARK  5 active torsions:
REMARK  status: ('A' for Active; 'I' for Inactive)
REMARK    1  A    between atoms: C_1  and  C_2
REMARK    2  A    between atoms: C_6  and  C_7
REMARK    3  A    between atoms: C_7  and  N_8
REMARK    4  A    between atoms: N_8  and  C_9
REMARK    5  A    between atoms: C_12  and  C_13
REMARK                            x       y       z     vdW  Elec       q    Type
REMARK                         _______ _______ _______ _____ _____    ______ ____
ROOT
ATOM      1  C   UNL     1      44.578   3.922   9.214  0.00  0.00    +0.000 A 
ATOM      2  C   UNL     1      45.450   4.353   8.217  0.00  0.00    +0.000 A 
ATOM      3  C   UNL     1      46.309   3.450   7.582  0.00  0.00    +0.000 A 
ATOM      4  C   UNL     1      46.263   2.116   7.959  0.00  0.00    +0.000 A 
ATOM      5  N   UNL     1      45.432   1.635   8.920  0.00  0.00    +0.000 NA
ATOM      6  C   UNL     1      44.619   2.553   9.511  0.00  0.00    +0.000 A 
ENDROOT
BRANCH   4   7
ATOM      7  C   UNL     1      47.186   1.136   7.299  0.00  0.00    +0.000 C 
ATOM      8  N   UNL     1      48.310   1.650   6.719  0.00  0.00    +0.000 N 
ATOM      9  O   UNL     1      46.948  -0.073   7.265  0.00  0.00    +0.000 OA
ATOM     10  H   UNL     1      48.479   2.654   6.752  0.00  0.00    +0.000 HD
ATOM     11  H   UNL     1      48.950   1.030   6.253  0.00  0.00    +0.000 HD
ENDBRANCH   4   7
BRANCH   1  12
ATOM     12  N   UNL     1      43.721   4.805   9.847  0.00  0.00    +0.000 N 
ATOM     13  H   UNL     1      43.514   5.705   9.409  0.00  0.00    +0.000 HD
BRANCH  12  14
ATOM     14  C   UNL     1      43.580   4.836  11.301  0.00  0.00    +0.000 C 
BRANCH  14  20
ATOM     15  C   UNL     1      47.025   4.377  14.949  0.00  0.00    +0.000 C 
ATOM     16  C   UNL     1      46.485   5.098  13.751  0.00  0.00    +0.000 A 
ATOM     17  C   UNL     1      47.118   6.233  13.248  0.00  0.00    +0.000 A 
ATOM     18  C   UNL     1      46.584   6.850  12.128  0.00  0.00    +0.000 A 
ATOM     19  N   UNL     1      45.474   6.425  11.486  0.00  0.00    +0.000 NA
ATOM     20  C   UNL     1      44.850   5.324  11.987  0.00  0.00    +0.000 A 
ATOM     21  C   UNL     1      45.332   4.638  13.106  0.00  0.00    +0.000 A 
ENDBRANCH  14  20
ENDBRANCH  12  14
ENDBRANCH   1  12
TORSDOF 4
ENDMDL
MODEL 4
REMARK VINA RESULT:    -7.451      2.573      6.045
REMARK INTER + INTRA:          -9.571
REMARK INTER:                  -9.267
REMARK INTRA:                  -0.304
REMARK UNBOUND:                -0.377
REMARK  Name = 
REMARK  5 active torsions:
REMARK  status: ('A' for Active; 'I' for Inactive)
REMARK    1  A    between atoms: C_1  and  C_2
REMARK    2  A    between atoms: C_6  and  C_7
REMARK    3  A    between atoms: C_7  and  N_8
REMARK    4  A    between atoms: N_8  and  C_9
REMARK    5  A    between atoms: C_12  and  C_13
REMARK                            x       y       z     vdW  Elec       q    Type
REMARK                         _______ _______ _______ _____ _____    ______ ____
ROOT
ATOM      1  C   UNL     1      44.813   4.229  11.196  0.00  0.00    +0.000 A 
ATOM      2  C   UNL     1      45.288   5.510  11.469  0.00  0.00    +0.000 A 
ATOM      3  C   UNL     1      46.074   5.753  12.600  0.00  0.00    +0.000 A 
ATOM      4  C   UNL     1      46.378   4.688  13.436  0.00  0.00    +0.000 A 
ATOM      5  N   UNL     1      45.948   3.417  13.221  0.00  0.00    +0.000 NA
ATOM      6  C   UNL     1      45.184   3.232  12.110  0.00  0.00    +0.000 A 
ENDROOT
BRANCH   4   7
ATOM      7  C   UNL     1      47.207   4.933  14.661  0.00  0.00    +0.000 C 
ATOM      8  N   UNL     1      46.800   4.316  15.808  0.00  0.00    +0.000 N 
ATOM      9  O   UNL     1      48.202   5.661  14.647  0.00  0.00    +0.000 OA
ATOM     10  H   UNL     1      45.969   3.727  15.795  0.00  0.00    +0.000 HD
ATOM     11  H   UNL     1      47.320   4.463  16.657  0.00  0.00    +0.000 HD
ENDBRANCH   4   7
BRANCH   1  12
ATOM     12  N   UNL     1      44.038   3.976  10.078  0.00  0.00    +0.000 N 
ATOM     13  H   UNL     1      43.367   3.206  10.095  0.00  0.00    +0.000 HD
BRANCH  12  14
ATOM     14  C   UNL     1      44.502   4.296   8.730  0.00  0.00    +0.000 C 
BRANCH  14  20
ATOM     15  C   UNL     1      47.745   2.667   5.234  0.00  0.00    +0.000 C 
ATOM     16  C   UNL     1      46.911   2.417   6.455  0.00  0.00    +0.000 A 
ATOM     17  C   UNL     1      46.896   1.168   7.072  0.00  0.00    +0.000 A 
ATOM     18  C   UNL     1      46.119   0.997   8.207  0.00  0.00    +0.000 A 
ATOM     19  N   UNL     1      45.361   1.970   8.759  0.00  0.00    +0.000 NA
ATOM     20  C   UNL     1      45.368   3.185   8.146  0.00  0.00    +0.000 A 
ATOM     21  C   UNL     1      46.133   3.441   7.005  0.00  0.00    +0.000 A 
ENDBRANCH  14  20
ENDBRANCH  12  14
ENDBRANCH   1  12
TORSDOF 4
ENDMDL
MODEL 5
REMARK VINA RESULT:    -6.888      2.965      6.503
REMARK INTER + INTRA:          -8.876
REMARK INTER:                  -8.518
REMARK INTRA:                  -0.358
REMARK UNBOUND:                -0.377
REMARK  Name = 
REMARK  5 active torsions:
REMARK  status: ('A' for Active; 'I' for Inactive)
REMARK    1  A    between atoms: C_1  and  C_2
REMARK    2  A    between atoms: C_6  and  C_7
REMARK    3  A    between atoms: C_7  and  N_8
REMARK    4  A    between atoms: N_8  and  C_9
REMARK    5  A    between atoms: C_12  and  C_13
REMARK                            x       y       z     vdW  Elec       q    Type
REMARK                         _______ _______ _______ _____ _____    ______ ____
ROOT
ATOM      1  C   UNL     1      45.170   4.202  11.380  0.00  0.00    +0.000 A 
ATOM      2  C   UNL     1      45.603   4.379  12.692  0.00  0.00    +0.000 A 
ATOM      3  C   UNL     1      45.794   5.663  13.213  0.00  0.00    +0.000 A 
ATOM      4  C   UNL     1      45.530   6.754  12.397  0.00  0.00    +0.000 A 
ATOM      5  N   UNL     1      45.102   6.645  11.112  0.00  0.00    +0.000 NA
ATOM      6  C   UNL     1      44.935   5.375  10.650  0.00  0.00    +0.000 A 
ENDROOT
BRANCH   4   7
ATOM      7  C   UNL     1      45.742   8.138  12.934  0.00  0.00    +0.000 C 
ATOM      8  N   UNL     1      44.799   9.070  12.611  0.00  0.00    +0.000 N 
ATOM      9  O   UNL     1      46.721   8.433  13.622  0.00  0.00    +0.000 OA
ATOM     10  H   UNL     1      44.005   8.803  12.032  0.00  0.00    +0.000 HD
ATOM     11  H   UNL     1      44.908  10.015  12.939  0.00  0.00    +0.000 HD
ENDBRANCH   4   7
BRANCH   1  12
ATOM     12  N   UNL     1      44.975   2.936  10.856  0.00  0.00    +0.000 N 
ATOM     13  H   UNL     1      45.603   2.178  11.126  0.00  0.00    +0.000 HD
BRANCH  12  14
ATOM     14  C   UNL     1      44.368   2.731   9.542  0.00  0.00    +0.000 C 
BRANCH  14  20
ATOM     15  C   UNL     1      47.089   3.619   5.396  0.00  0.00    +0.000 C 
ATOM     16  C   UNL     1      46.675   2.707   6.512  0.00  0.00    +0.000 A 
ATOM     17  C   UNL     1      47.197   1.420   6.621  0.00  0.00    +0.000 A 
ATOM     18  C   UNL     1      46.791   0.625   7.682  0.00  0.00    +0.000 A 
ATOM     19  N   UNL     1      45.906   1.017   8.625  0.00  0.00    +0.000 NA
ATOM     20  C   UNL     1      45.388   2.270   8.508  0.00  0.00    +0.000 A 
ATOM     21  C   UNL     1      45.755   3.136   7.475  0.00  0.00    +0.000 A 
ENDBRANCH  14  20
ENDBRANCH  12  14
ENDBRANCH   1  12
TORSDOF 4
ENDMDL
MODEL 6
REMARK VINA RESULT:    -6.621      3.307      6.736
REMARK INTER + INTRA:          -8.546
REMARK INTER:                  -8.176
REMARK INTRA:                  -0.370
REMARK UNBOUND:                -0.377
REMARK  Name = 
REMARK  5 active torsions:
REMARK  status: ('A' for Active; 'I' for Inactive)
REMARK    1  A    between atoms: C_1  and  C_2
REMARK    2  A    between atoms: C_6  and  C_7
REMARK    3  A    between atoms: C_7  and  N_8
REMARK    4  A    between atoms: N_8  and  C_9
REMARK    5  A    between atoms: C_12  and  C_13
REMARK                            x       y       z     vdW  Elec       q    Type
REMARK                         _______ _______ _______ _____ _____    ______ ____
ROOT
ATOM      1  C   UNL     1      45.228   5.547  11.495  0.00  0.00    +0.000 A 
ATOM      2  C   UNL     1      46.492   5.838  12.005  0.00  0.00    +0.000 A 
ATOM      3  C   UNL     1      46.849   7.154  12.317  0.00  0.00    +0.000 A 
ATOM      4  C   UNL     1      45.912   8.159  12.119  0.00  0.00    +0.000 A 
ATOM      5  N   UNL     1      44.664   7.937  11.630  0.00  0.00    +0.000 NA
ATOM      6  C   UNL     1      44.366   6.641  11.338  0.00  0.00    +0.000 A 
ENDROOT
BRANCH   4   7
ATOM      7  C   UNL     1      46.282   9.577  12.436  0.00  0.00    +0.000 C 
ATOM      8  N   UNL     1      45.324  10.523  12.210  0.00  0.00    +0.000 N 
ATOM      9  O   UNL     1      47.394   9.886  12.867  0.00  0.00    +0.000 OA
ATOM     10  H   UNL     1      44.416  10.243  11.844  0.00  0.00    +0.000 HD
ATOM     11  H   UNL     1      45.534  11.489  12.396  0.00  0.00    +0.000 HD
ENDBRANCH   4   7
BRANCH   1  12
ATOM     12  N   UNL     1      44.863   4.249  11.186  0.00  0.00    +0.000 N 
ATOM     13  H   UNL     1      45.393   3.470  11.583  0.00  0.00    +0.000 HD
BRANCH  12  14
ATOM     14  C   UNL     1      44.217   3.910   9.920  0.00  0.00    +0.000 C 
BRANCH  14  20
ATOM     15  C   UNL     1      46.689   0.093   7.750  0.00  0.00    +0.000 C 
ATOM     16  C   UNL     1      46.402   1.560   7.868  0.00  0.00    +0.000 A 
ATOM     17  C   UNL     1      47.049   2.488   7.053  0.00  0.00    +0.000 A 
ATOM     18  C   UNL     1      46.734   3.830   7.195  0.00  0.00    +0.000 A 
ATOM     19  N   UNL     1      45.836   4.307   8.085  0.00  0.00    +0.000 NA
ATOM     20  C   UNL     1      45.215   3.400   8.888  0.00  0.00    +0.000 A 
ATOM     21  C   UNL     1      45.469   2.028   8.800  0.00  0.00    +0.000 A 
ENDBRANCH  14  20
ENDBRANCH  12  14
ENDBRANCH   1  12
TORSDOF 4
ENDMDL
MODEL 7
REMARK VINA RESULT:    -6.569      3.115      6.353
REMARK INTER + INTRA:          -8.482
REMARK INTER:                  -8.203
REMARK INTRA:                  -0.279
REMARK UNBOUND:                -0.377
REMARK  Name = 
REMARK  5 active torsions:
REMARK  status: ('A' for Active; 'I' for Inactive)
REMARK    1  A    between atoms: C_1  and  C_2
REMARK    2  A    between atoms: C_6  and  C_7
REMARK    3  A    between atoms: C_7  and  N_8
REMARK    4  A    between atoms: N_8  and  C_9
REMARK    5  A    between atoms: C_12  and  C_13
REMARK                            x       y       z     vdW  Elec       q    Type
REMARK                         _______ _______ _______ _____ _____    ______ ____
ROOT
ATOM      1  C   UNL     1      46.356   5.660  12.534  0.00  0.00    +0.000 A 
ATOM      2  C   UNL     1      47.427   6.242  13.208  0.00  0.00    +0.000 A 
ATOM      3  C   UNL     1      47.798   5.792  14.480  0.00  0.00    +0.000 A 
ATOM      4  C   UNL     1      47.083   4.746  15.046  0.00  0.00    +0.000 A 
ATOM      5  N   UNL     1      46.033   4.136  14.436  0.00  0.00    +0.000 NA
ATOM      6  C   UNL     1      45.709   4.612  13.203  0.00  0.00    +0.000 A 
ENDROOT
BRANCH   4   7
ATOM      7  C   UNL     1      47.457   4.260  16.414  0.00  0.00    +0.000 C 
ATOM      8  N   UNL     1      48.664   4.672  16.901  0.00  0.00    +0.000 N 
ATOM      9  O   UNL     1      46.726   3.516  17.071  0.00  0.00    +0.000 OA
ATOM     10  H   UNL     1      49.254   5.279  16.334  0.00  0.00    +0.000 HD
ATOM     11  H   UNL     1      48.961   4.359  17.809  0.00  0.00    +0.000 HD
ENDBRANCH   4   7
BRANCH   1  12
ATOM     12  N   UNL     1      45.984   6.095  11.274  0.00  0.00    +0.000 N 
ATOM     13  H   UNL     1      46.277   7.019  10.954  0.00  0.00    +0.000 HD
BRANCH  12  14
ATOM     14  C   UNL     1      44.753   5.636  10.633  0.00  0.00    +0.000 C 
BRANCH  14  20
ATOM     15  C   UNL     1      46.680   3.472   6.511  0.00  0.00    +0.000 C 
ATOM     16  C   UNL     1      45.902   3.378   7.789  0.00  0.00    +0.000 A 
ATOM     17  C   UNL     1      45.361   2.166   8.214  0.00  0.00    +0.000 A 
ATOM     18  C   UNL     1      44.664   2.133   9.411  0.00  0.00    +0.000 A 
ATOM     19  N   UNL     1      44.465   3.212  10.201  0.00  0.00    +0.000 NA
ATOM     20  C   UNL     1      44.983   4.396   9.776  0.00  0.00    +0.000 A 
ATOM     21  C   UNL     1      45.708   4.510   8.587  0.00  0.00    +0.000 A 
ENDBRANCH  14  20
ENDBRANCH  12  14
ENDBRANCH   1  12
TORSDOF 4
ENDMDL
MODEL 8
REMARK VINA RESULT:    -6.341      2.869      6.175
REMARK INTER + INTRA:          -8.201
REMARK INTER:                  -7.867
REMARK INTRA:                  -0.333
REMARK UNBOUND:                -0.377
REMARK  Name = 
REMARK  5 active torsions:
REMARK  status: ('A' for Active; 'I' for Inactive)
REMARK    1  A    between atoms: C_1  and  C_2
REMARK    2  A    between atoms: C_6  and  C_7
REMARK    3  A    between atoms: C_7  and  N_8
REMARK    4  A    between atoms: N_8  and  C_9
REMARK    5  A    between atoms: C_12  and  C_13
REMARK                            x       y       z     vdW  Elec       q    Type
REMARK                         _______ _______ _______ _____ _____    ______ ____
ROOT
ATOM      1  C   UNL     1      45.748   6.366  11.776  0.00  0.00    +0.000 A 
ATOM      2  C   UNL     1      46.652   7.422  11.869  0.00  0.00    +0.000 A 
ATOM      3  C   UNL     1      47.588   7.470  12.907  0.00  0.00    +0.000 A 
ATOM      4  C   UNL     1      47.602   6.436  13.833  0.00  0.00    +0.000 A 
ATOM      5  N   UNL     1      46.750   5.379  13.792  0.00  0.00    +0.000 NA
ATOM      6  C   UNL     1      45.856   5.380  12.766  0.00  0.00    +0.000 A 
ENDROOT
BRANCH   4   7
ATOM      7  C   UNL     1      48.589   6.478  14.961  0.00  0.00    +0.000 C 
ATOM      8  N   UNL     1      48.114   6.164  16.201  0.00  0.00    +0.000 N 
ATOM      9  O   UNL     1      49.770   6.789  14.791  0.00  0.00    +0.000 OA
ATOM     10  H   UNL     1      47.132   5.921  16.317  0.00  0.00    +0.000 HD
ATOM     11  H   UNL     1      48.738   6.193  16.989  0.00  0.00    +0.000 HD
ENDBRANCH   4   7
BRANCH   1  12
ATOM     12  N   UNL     1      44.820   6.307  10.750  0.00  0.00    +0.000 N 
ATOM     13  H   UNL     1      44.460   7.174  10.348  0.00  0.00    +0.000 HD
BRANCH  12  14
ATOM     14  C   UNL     1      43.890   5.188  10.616  0.00  0.00    +0.000 C 
BRANCH  14  20
ATOM     15  C   UNL     1      46.877   3.639   6.866  0.00  0.00    +0.000 C 
ATOM     16  C   UNL     1      45.895   3.338   7.959  0.00  0.00    +0.000 A 
ATOM     17  C   UNL     1      45.480   2.033   8.214  0.00  0.00    +0.000 A 
ATOM     18  C   UNL     1      44.583   1.810   9.246  0.00  0.00    +0.000 A 
ATOM     19  N   UNL     1      44.072   2.787  10.028  0.00  0.00    +0.000 NA
ATOM     20  C   UNL     1      44.469   4.062   9.768  0.00  0.00    +0.000 A 
ATOM     21  C   UNL     1      45.379   4.368   8.753  0.00  0.00    +0.000 A 
ENDBRANCH  14  20
ENDBRANCH  12  14
ENDBRANCH   1  12
TORSDOF 4
ENDMDL
MODEL 9
REMARK VINA RESULT:    -5.876      2.867      4.516
REMARK INTER + INTRA:          -7.628
REMARK INTER:                  -7.291
REMARK INTRA:                  -0.336
REMARK UNBOUND:                -0.377
REMARK  Name = 
REMARK  5 active torsions:
REMARK  status: ('A' for Active; 'I' for Inactive)
REMARK    1  A    between atoms: C_1  and  C_2
REMARK    2  A    between atoms: C_6  and  C_7
REMARK    3  A    between atoms: C_7  and  N_8
REMARK    4  A    between atoms: N_8  and  C_9
REMARK    5  A    between atoms: C_12  and  C_13
REMARK                            x       y       z     vdW  Elec       q    Type
REMARK                         _______ _______ _______ _____ _____    ______ ____
ROOT
ATOM      1  C   UNL     1      45.876   5.346  12.540  0.00  0.00    +0.000 A 
ATOM      2  C   UNL     1      45.807   5.929  11.276  0.00  0.00    +0.000 A 
ATOM      3  C   UNL     1      45.381   5.185  10.171  0.00  0.00    +0.000 A 
ATOM      4  C   UNL     1      45.018   3.860  10.365  0.00  0.00    +0.000 A 
ATOM      5  N   UNL     1      45.060   3.238  11.573  0.00  0.00    +0.000 NA
ATOM      6  C   UNL     1      45.485   4.003  12.616  0.00  0.00    +0.000 A 
ENDROOT
BRANCH   4   7
ATOM      7  C   UNL     1      44.572   3.043   9.189  0.00  0.00    +0.000 C 
ATOM      8  N   UNL     1      44.207   3.732   8.069  0.00  0.00    +0.000 N 
ATOM      9  O   UNL     1      44.522   1.812   9.225  0.00  0.00    +0.000 OA
ATOM     10  H   UNL     1      44.248   4.750   8.069  0.00  0.00    +0.000 HD
ATOM     11  H   UNL     1      43.889   3.225   7.261  0.00  0.00    +0.000 HD
ENDBRANCH   4   7
BRANCH   1  12
ATOM     12  N   UNL     1      46.293   6.074  13.641  0.00  0.00    +0.000 N 
ATOM     13  H   UNL     1      45.665   6.766  14.053  0.00  0.00    +0.000 HD
BRANCH  12  14
ATOM     14  C   UNL     1      47.703   6.375  13.878  0.00  0.00    +0.000 C 
BRANCH  14  20
ATOM     15  C   UNL     1      47.288   2.937  17.537  0.00  0.00    +0.000 C 
ATOM     16  C   UNL     1      47.984   4.120  16.935  0.00  0.00    +0.000 A 
ATOM     17  C   UNL     1      49.089   4.698  17.556  0.00  0.00    +0.000 A 
ATOM     18  C   UNL     1      49.703   5.781  16.946  0.00  0.00    +0.000 A 
ATOM     19  N   UNL     1      49.294   6.325  15.779  0.00  0.00    +0.000 NA
ATOM     20  C   UNL     1      48.206   5.766  15.182  0.00  0.00    +0.000 A 
ATOM     21  C   UNL     1      47.537   4.666  15.726  0.00  0.00    +0.000 A 
ENDBRANCH  14  20
ENDBRANCH  12  14
ENDBRANCH   1  12
TORSDOF 4
ENDMDL
