MODEL 1
REMARK VINA RESULT:    -8.504      0.000      0.000
REMARK INTER + INTRA:         -11.501
REMARK INTER:                 -10.989
REMARK INTRA:                  -0.512
REMARK UNBOUND:                -0.512
REMARK  Name = 
REMARK  5 active torsions:
REMARK  status: ('A' for Active; 'I' for Inactive)
REMARK    1  A    between atoms: C_2  and  C_5
REMARK    2  A    between atoms: C_8  and  C_9
REMARK    3  A    between atoms: C_13  and  N_14
REMARK    4  A    between atoms: N_14  and  C_15
REMARK    5  A    between atoms: C_15  and  C_16
REMARK                            x       y       z     vdW  Elec       q    Type
REMARK                         _______ _______ _______ _____ _____    ______ ____
ROOT
ATOM      1  C   UNL     1      44.493   4.246  10.763  0.00  0.00    +0.000 A 
ATOM      2  C   UNL     1      43.300   4.963  10.716  0.00  0.00    +0.000 A 
ATOM      3  N   UNL     1      42.767   5.591  11.790  0.00  0.00    +0.000 NA
ATOM      4  C   UNL     1      43.492   5.477  12.926  0.00  0.00    +0.000 A 
ATOM      5  C   UNL     1      44.662   4.717  13.038  0.00  0.00    +0.000 A 
ATOM      6  N   UNL     1      45.170   4.107  11.945  0.00  0.00    +0.000 NA
ENDROOT
BRANCH   1  10
ATOM      7  C   UNL     1      46.475   2.757   7.308  0.00  0.00    +0.000 A 
ATOM      8  C   UNL     1      45.921   1.847   8.209  0.00  0.00    +0.000 A 
ATOM      9  C   UNL     1      45.235   2.312   9.332  0.00  0.00    +0.000 A 
ATOM     10  C   UNL     1      45.114   3.685   9.541  0.00  0.00    +0.000 A 
ATOM     11  N   UNL     1      45.615   4.578   8.646  0.00  0.00    +0.000 NA
ATOM     12  C   UNL     1      46.281   4.103   7.567  0.00  0.00    +0.000 A 
BRANCH   7  14
ATOM     13  F   UNL     1      47.183   1.000   5.850  0.00  0.00    +0.000 F 
ATOM     14  C   UNL     1      47.272   2.333   6.115  0.00  0.00    +0.000 C 
ATOM     15  F   UNL     1      48.601   2.594   6.260  0.00  0.00    +0.000 F 
ATOM     16  F   UNL     1      46.889   2.969   4.975  0.00  0.00    +0.000 F 
ENDBRANCH   7  14
ENDBRANCH   1  10
BRANCH   5  17
ATOM     17  N   UNL     1      45.377   4.724  14.241  0.00  0.00    +0.000 N 
ATOM     18  H   UNL     1      45.084   3.976  14.862  0.00  0.00    +0.000 HD
BRANCH  17  19
ATOM     19  C   UNL     1      46.835   4.706  14.107  0.00  0.00    +0.000 C 
BRANCH  19  20
ATOM     20  C   UNL     1      47.459   4.127  15.361  0.00  0.00    +0.000 A 
ATOM     21  C   UNL     1      47.536   4.906  16.515  0.00  0.00    +0.000 A 
ATOM     22  C   UNL     1      48.106   4.360  17.661  0.00  0.00    +0.000 A 
ATOM     23  C   UNL     1      48.585   3.057  17.626  0.00  0.00    +0.000 A 
ATOM     24  C   UNL     1      48.472   2.349  16.441  0.00  0.00    +0.000 A 
ATOM     25  N   UNL     1      47.920   2.849  15.312  0.00  0.00    +0.000 NA
ENDBRANCH  19  20
ENDBRANCH  17  19
ENDBRANCH   5  17
TORSDOF 5
ENDMDL
MODEL 2
REMARK VINA RESULT:    -8.246      2.160      3.008
REMARK INTER + INTRA:         -11.168
REMARK INTER:                 -10.565
REMARK INTRA:                  -0.603
REMARK UNBOUND:                -0.512
REMARK  Name = 
REMARK  5 active torsions:
REMARK  status: ('A' for Active; 'I' for Inactive)
REMARK    1  A    between atoms: C_2  and  C_5
REMARK    2  A    between atoms: C_8  and  C_9
REMARK    3  A    between atoms: C_13  and  N_14
REMARK    4  A    between atoms: N_14  and  C_15
REMARK    5  A    between atoms: C_15  and  C_16
REMARK                            x       y       z     vdW  Elec       q    Type
REMARK                         _______ _______ _______ _____ _____    ______ ____
ROOT
ATOM      1  C   UNL     1      44.562   4.396  10.821  0.00  0.00    +0.000 A 
ATOM      2  C   UNL     1      43.190   4.530  11.018  0.00  0.00    +0.000 A 
ATOM      3  N   UNL     1      42.651   5.199  12.064  0.00  0.00    +0.000 NA
ATOM      4  C   UNL     1      43.555   5.742  12.911  0.00  0.00    +0.000 A 
ATOM      5  C   UNL     1      44.939   5.581  12.790  0.00  0.00    +0.000 A 
ATOM      6  N   UNL     1      45.445   4.912  11.730  0.00  0.00    +0.000 NA
ENDROOT
BRANCH   1  10
ATOM      7  C   UNL     1      46.363   2.717   7.355  0.00  0.00    +0.000 A 
ATOM      8  C   UNL     1      45.760   1.862   8.278  0.00  0.00    +0.000 A 
ATOM      9  C   UNL     1      45.131   2.392   9.405  0.00  0.00    +0.000 A 
ATOM     10  C   UNL     1      45.117   3.773   9.597  0.00  0.00    +0.000 A 
ATOM     11  N   UNL     1      45.667   4.614   8.680  0.00  0.00    +0.000 NA
ATOM     12  C   UNL     1      46.276   4.076   7.597  0.00  0.00    +0.000 A 
BRANCH   7  14
ATOM     13  F   UNL     1      46.605   2.684   4.976  0.00  0.00    +0.000 F 
ATOM     14  C   UNL     1      47.104   2.218   6.154  0.00  0.00    +0.000 C 
ATOM     15  F   UNL     1      47.079   0.860   6.056  0.00  0.00    +0.000 F 
ATOM     16  F   UNL     1      48.419   2.567   6.168  0.00  0.00    +0.000 F 
ENDBRANCH   7  14
ENDBRANCH   1  10
BRANCH   5  17
ATOM     17  N   UNL     1      45.791   6.247  13.679  0.00  0.00    +0.000 N 
ATOM     18  H   UNL     1      45.358   6.390  14.586  0.00  0.00    +0.000 HD
BRANCH  17  19
ATOM     19  C   UNL     1      47.112   5.640  13.860  0.00  0.00    +0.000 C 
BRANCH  19  20
ATOM     20  C   UNL     1      48.189   6.612  13.420  0.00  0.00    +0.000 A 
ATOM     21  C   UNL     1      48.106   7.209  12.163  0.00  0.00    +0.000 A 
ATOM     22  C   UNL     1      49.098   8.104  11.774  0.00  0.00    +0.000 A 
ATOM     23  C   UNL     1      50.145   8.377  12.646  0.00  0.00    +0.000 A 
ATOM     24  C   UNL     1      50.155   7.743  13.876  0.00  0.00    +0.000 A 
ATOM     25  N   UNL     1      49.204   6.872  14.285  0.00  0.00    +0.000 NA
ENDBRANCH  19  20
ENDBRANCH  17  19
ENDBRANCH   5  17
TORSDOF 5
ENDMDL
MODEL 3
REMARK VINA RESULT:    -8.113      4.151      7.433
REMARK INTER + INTRA:         -10.996
REMARK INTER:                 -10.318
REMARK INTRA:                  -0.678
REMARK UNBOUND:                -0.512
REMARK  Name = 
REMARK  5 active torsions:
REMARK  status: ('A' for Active; 'I' for Inactive)
REMARK    1  A    between atoms: C_2  and  C_5
REMARK    2  A    between atoms: C_8  and  C_9
REMARK    3  A    between atoms: C_13  and  N_14
REMARK    4  A    between atoms: N_14  and  C_15
REMARK    5  A    between atoms: C_15  and  C_16
REMARK                            x       y       z     vdW  Elec       q    Type
REMARK                         _______ _______ _______ _____ _____    ______ ____
ROOT
ATOM      1  C   UNL     1      45.448   5.169  12.303  0.00  0.00    +0.000 A 
ATOM      2  C   UNL     1      44.632   4.675  13.318  0.00  0.00    +0.000 A 
ATOM      3  N   UNL     1      43.618   3.806  13.100  0.00  0.00    +0.000 NA
ATOM      4  C   UNL     1      43.457   3.441  11.809  0.00  0.00    +0.000 A 
ATOM      5  C   UNL     1      44.208   3.957  10.747  0.00  0.00    +0.000 A 
ATOM      6  N   UNL     1      45.218   4.819  10.999  0.00  0.00    +0.000 NA
ENDROOT
BRANCH   1  10
ATOM      7  C   UNL     1      48.963   7.390  13.191  0.00  0.00    +0.000 A 
ATOM      8  C   UNL     1      48.365   7.553  11.941  0.00  0.00    +0.000 A 
ATOM      9  C   UNL     1      47.191   6.861  11.639  0.00  0.00    +0.000 A 
ATOM     10  C   UNL     1      46.631   6.012  12.593  0.00  0.00    +0.000 A 
ATOM     11  N   UNL     1      47.185   5.880  13.827  0.00  0.00    +0.000 NA
ATOM     12  C   UNL     1      48.327   6.557  14.095  0.00  0.00    +0.000 A 
BRANCH   7  14
ATOM     13  F   UNL     1      51.151   8.104  12.542  0.00  0.00    +0.000 F 
ATOM     14  C   UNL     1      50.251   8.053  13.564  0.00  0.00    +0.000 C 
ATOM     15  F   UNL     1      50.886   7.414  14.585  0.00  0.00    +0.000 F 
ATOM     16  F   UNL     1      50.080   9.338  13.976  0.00  0.00    +0.000 F 
ENDBRANCH   7  14
ENDBRANCH   1  10
BRANCH   5  17
ATOM     17  N   UNL     1      44.011   3.457   9.455  0.00  0.00    +0.000 N 
ATOM     18  H   UNL     1      44.369   4.088   8.744  0.00  0.00    +0.000 HD
BRANCH  17  19
ATOM     19  C   UNL     1      44.527   2.108   9.215  0.00  0.00    +0.000 C 
BRANCH  19  20
ATOM     20  C   UNL     1      45.645   2.160   8.193  0.00  0.00    +0.000 A 
ATOM     21  C   UNL     1      45.803   3.297   7.402  0.00  0.00    +0.000 A 
ATOM     22  C   UNL     1      46.837   3.335   6.472  0.00  0.00    +0.000 A 
ATOM     23  C   UNL     1      47.682   2.238   6.353  0.00  0.00    +0.000 A 
ATOM     24  C   UNL     1      47.458   1.146   7.173  0.00  0.00    +0.000 A 
ATOM     25  N   UNL     1      46.465   1.081   8.090  0.00  0.00    +0.000 NA
ENDBRANCH  19  20
ENDBRANCH  17  19
ENDBRANCH   5  17
TORSDOF 5
ENDMDL
MODEL 4
REMARK VINA RESULT:    -8.083      4.750      8.416
REMARK INTER + INTRA:         -10.958
REMARK INTER:                 -10.366
REMARK INTRA:                  -0.591
REMARK UNBOUND:                -0.512
REMARK  Name = 
REMARK  5 active torsions:
REMARK  status: ('A' for Active; 'I' for Inactive)
REMARK    1  A    between atoms: C_2  and  C_5
REMARK    2  A    between atoms: C_8  and  C_9
REMARK    3  A    between atoms: C_13  and  N_14
REMARK    4  A    between atoms: N_14  and  C_15
REMARK    5  A    between atoms: C_15  and  C_16
REMARK                            x       y       z     vdW  Elec       q    Type
REMARK                         _______ _______ _______ _____ _____    ______ ____
ROOT
ATOM      1  C   UNL     1      46.252   4.835  13.567  0.00  0.00    +0.000 A 
ATOM      2  C   UNL     1      45.736   6.040  13.097  0.00  0.00    +0.000 A 
ATOM      3  N   UNL     1      44.947   6.135  12.002  0.00  0.00    +0.000 NA
ATOM      4  C   UNL     1      44.686   4.956  11.393  0.00  0.00    +0.000 A 
ATOM      5  C   UNL     1      45.230   3.730  11.790  0.00  0.00    +0.000 A 
ATOM      6  N   UNL     1      46.010   3.669  12.891  0.00  0.00    +0.000 NA
ENDROOT
BRANCH   1  10
ATOM      7  C   UNL     1      48.488   4.384  17.155  0.00  0.00    +0.000 A 
ATOM      8  C   UNL     1      48.655   5.546  16.402  0.00  0.00    +0.000 A 
ATOM      9  C   UNL     1      47.906   5.733  15.240  0.00  0.00    +0.000 A 
ATOM     10  C   UNL     1      47.000   4.751  14.843  0.00  0.00    +0.000 A 
ATOM     11  N   UNL     1      46.802   3.634  15.594  0.00  0.00    +0.000 NA
ATOM     12  C   UNL     1      47.544   3.473  16.715  0.00  0.00    +0.000 A 
BRANCH   7  14
ATOM     13  F   UNL     1      49.631   5.202  19.089  0.00  0.00    +0.000 F 
ATOM     14  C   UNL     1      49.296   4.089  18.379  0.00  0.00    +0.000 C 
ATOM     15  F   UNL     1      50.472   3.468  18.087  0.00  0.00    +0.000 F 
ATOM     16  F   UNL     1      48.648   3.270  19.251  0.00  0.00    +0.000 F 
ENDBRANCH   7  14
ENDBRANCH   1  10
BRANCH   5  17
ATOM     17  N   UNL     1      44.837   2.556  11.135  0.00  0.00    +0.000 N 
ATOM     18  H   UNL     1      44.208   1.997  11.703  0.00  0.00    +0.000 HD
BRANCH  17  19
ATOM     19  C   UNL     1      44.257   2.742   9.803  0.00  0.00    +0.000 C 
BRANCH  19  20
ATOM     20  C   UNL     1      45.331   2.567   8.747  0.00  0.00    +0.000 A 
ATOM     21  C   UNL     1      45.718   3.659   7.972  0.00  0.00    +0.000 A 
ATOM     22  C   UNL     1      46.708   3.487   7.010  0.00  0.00    +0.000 A 
ATOM     23  C   UNL     1      47.283   2.233   6.845  0.00  0.00    +0.000 A 
ATOM     24  C   UNL     1      46.842   1.199   7.653  0.00  0.00    +0.000 A 
ATOM     25  N   UNL     1      45.885   1.335   8.600  0.00  0.00    +0.000 NA
ENDBRANCH  19  20
ENDBRANCH  17  19
ENDBRANCH   5  17
TORSDOF 5
ENDMDL
MODEL 5
REMARK VINA RESULT:    -7.986      4.678      7.392
REMARK INTER + INTRA:         -10.832
REMARK INTER:                 -10.197
REMARK INTRA:                  -0.635
REMARK UNBOUND:                -0.512
REMARK  Name = 
REMARK  5 active torsions:
REMARK  status: ('A' for Active; 'I' for Inactive)
REMARK    1  A    between atoms: C_2  and  C_5
REMARK    2  A    between atoms: C_8  and  C_9
REMARK    3  A    between atoms: C_13  and  N_14
REMARK    4  A    between atoms: N_14  and  C_15
REMARK    5  A    between atoms: C_15  and  C_16
REMARK                            x       y       z     vdW  Elec       q    Type
REMARK                         _______ _______ _______ _____ _____    ______ ____
ROOT
ATOM      1  C   UNL     1      44.887   6.112  11.872  0.00  0.00    +0.000 A 
ATOM      2  C   UNL     1      44.010   5.789  12.905  0.00  0.00    +0.000 A 
ATOM      3  N   UNL     1      43.089   4.801  12.817  0.00  0.00    +0.000 NA
ATOM      4  C   UNL     1      43.087   4.137  11.639  0.00  0.00    +0.000 A 
ATOM      5  C   UNL     1      43.903   4.465  10.551  0.00  0.00    +0.000 A 
ATOM      6  N   UNL     1      44.817   5.453  10.674  0.00  0.00    +0.000 NA
ENDROOT
BRANCH   1  10
ATOM      7  C   UNL     1      48.052   8.936  12.154  0.00  0.00    +0.000 A 
ATOM      8  C   UNL     1      46.768   9.328  12.531  0.00  0.00    +0.000 A 
ATOM      9  C   UNL     1      45.719   8.409  12.481  0.00  0.00    +0.000 A 
ATOM     10  C   UNL     1      45.969   7.107  12.051  0.00  0.00    +0.000 A 
ATOM     11  N   UNL     1      47.226   6.706  11.721  0.00  0.00    +0.000 NA
ATOM     12  C   UNL     1      48.226   7.617  11.772  0.00  0.00    +0.000 A 
BRANCH   7  14
ATOM     13  F   UNL     1      50.088   9.634  11.114  0.00  0.00    +0.000 F 
ATOM     14  C   UNL     1      49.212   9.881  12.127  0.00  0.00    +0.000 C 
ATOM     15  F   UNL     1      49.947   9.833  13.272  0.00  0.00    +0.000 F 
ATOM     16  F   UNL     1      48.828  11.178  11.983  0.00  0.00    +0.000 F 
ENDBRANCH   7  14
ENDBRANCH   1  10
BRANCH   5  17
ATOM     17  N   UNL     1      43.875   3.666   9.402  0.00  0.00    +0.000 N 
ATOM     18  H   UNL     1      44.198   4.169   8.582  0.00  0.00    +0.000 HD
BRANCH  17  19
ATOM     19  C   UNL     1      44.586   2.390   9.504  0.00  0.00    +0.000 C 
BRANCH  19  20
ATOM     20  C   UNL     1      45.612   2.283   8.392  0.00  0.00    +0.000 A 
ATOM     21  C   UNL     1      45.836   3.375   7.555  0.00  0.00    +0.000 A 
ATOM     22  C   UNL     1      46.784   3.267   6.543  0.00  0.00    +0.000 A 
ATOM     23  C   UNL     1      47.478   2.073   6.390  0.00  0.00    +0.000 A 
ATOM     24  C   UNL     1      47.196   1.034   7.261  0.00  0.00    +0.000 A 
ATOM     25  N   UNL     1      46.285   1.110   8.257  0.00  0.00    +0.000 NA
ENDBRANCH  19  20
ENDBRANCH  17  19
ENDBRANCH   5  17
TORSDOF 5
ENDMDL
MODEL 6
REMARK VINA RESULT:    -7.552      4.659      8.071
REMARK INTER + INTRA:         -10.272
REMARK INTER:                  -9.653
REMARK INTRA:                  -0.619
REMARK UNBOUND:                -0.512
REMARK  Name = 
REMARK  5 active torsions:
REMARK  status: ('A' for Active; 'I' for Inactive)
REMARK    1  A    between atoms: C_2  and  C_5
REMARK    2  A    between atoms: C_8  and  C_9
REMARK    3  A    between atoms: C_13  and  N_14
REMARK    4  A    between atoms: N_14  and  C_15
REMARK    5  A    between atoms: C_15  and  C_16
REMARK                            x       y       z     vdW  Elec       q    Type
REMARK                         _______ _______ _______ _____ _____    ______ ____
ROOT
ATOM      1  C   UNL     1      46.816   5.575  12.933  0.00  0.00    +0.000 A 
ATOM      2  C   UNL     1      46.330   4.485  13.650  0.00  0.00    +0.000 A 
ATOM      3  N   UNL     1      45.362   3.661  13.185  0.00  0.00    +0.000 NA
ATOM      4  C   UNL     1      44.900   3.974  11.954  0.00  0.00    +0.000 A 
ATOM      5  C   UNL     1      45.311   5.094  11.222  0.00  0.00    +0.000 A 
ATOM      6  N   UNL     1      46.284   5.893  11.713  0.00  0.00    +0.000 NA
ENDROOT
BRANCH   1  10
ATOM      7  C   UNL     1      50.216   7.667  14.395  0.00  0.00    +0.000 A 
ATOM      8  C   UNL     1      49.866   7.812  13.053  0.00  0.00    +0.000 A 
ATOM      9  C   UNL     1      48.734   7.163  12.558  0.00  0.00    +0.000 A 
ATOM     10  C   UNL     1      47.967   6.375  13.414  0.00  0.00    +0.000 A 
ATOM     11  N   UNL     1      48.279   6.262  14.733  0.00  0.00    +0.000 NA
ATOM     12  C   UNL     1      49.385   6.896  15.188  0.00  0.00    +0.000 A 
BRANCH   7  14
ATOM     13  F   UNL     1      51.380   8.448  16.332  0.00  0.00    +0.000 F 
ATOM     14  C   UNL     1      51.447   8.284  14.982  0.00  0.00    +0.000 C 
ATOM     15  F   UNL     1      51.701   9.520  14.470  0.00  0.00    +0.000 F 
ATOM     16  F   UNL     1      52.566   7.546  14.749  0.00  0.00    +0.000 F 
ENDBRANCH   7  14
ENDBRANCH   1  10
BRANCH   5  17
ATOM     17  N   UNL     1      44.824   5.287   9.924  0.00  0.00    +0.000 N 
ATOM     18  H   UNL     1      45.524   5.694   9.312  0.00  0.00    +0.000 HD
BRANCH  17  19
ATOM     19  C   UNL     1      44.246   4.102   9.285  0.00  0.00    +0.000 C 
BRANCH  19  20
ATOM     20  C   UNL     1      45.309   3.382   8.480  0.00  0.00    +0.000 A 
ATOM     21  C   UNL     1      45.520   2.019   8.682  0.00  0.00    +0.000 A 
ATOM     22  C   UNL     1      46.496   1.368   7.933  0.00  0.00    +0.000 A 
ATOM     23  C   UNL     1      47.236   2.094   7.007  0.00  0.00    +0.000 A 
ATOM     24  C   UNL     1      46.967   3.445   6.868  0.00  0.00    +0.000 A 
ATOM     25  N   UNL     1      46.023   4.104   7.577  0.00  0.00    +0.000 NA
ENDBRANCH  19  20
ENDBRANCH  17  19
ENDBRANCH   5  17
TORSDOF 5
ENDMDL
MODEL 7
REMARK VINA RESULT:    -6.947      3.309      5.267
REMARK INTER + INTRA:          -9.490
REMARK INTER:                  -8.880
REMARK INTRA:                  -0.610
REMARK UNBOUND:                -0.512
REMARK  Name = 
REMARK  5 active torsions:
REMARK  status: ('A' for Active; 'I' for Inactive)
REMARK    1  A    between atoms: C_2  and  C_5
REMARK    2  A    between atoms: C_8  and  C_9
REMARK    3  A    between atoms: C_13  and  N_14
REMARK    4  A    between atoms: N_14  and  C_15
REMARK    5  A    between atoms: C_15  and  C_16
REMARK                            x       y       z     vdW  Elec       q    Type
REMARK                         _______ _______ _______ _____ _____    ______ ____
ROOT
ATOM      1  C   UNL     1      47.700   5.661  14.471  0.00  0.00    +0.000 A 
ATOM      2  C   UNL     1      48.435   6.839  14.360  0.00  0.00    +0.000 A 
ATOM      3  N   UNL     1      49.319   7.255  15.296  0.00  0.00    +0.000 NA
ATOM      4  C   UNL     1      49.445   6.427  16.358  0.00  0.00    +0.000 A 
ATOM      5  C   UNL     1      48.685   5.268  16.544  0.00  0.00    +0.000 A 
ATOM      6  N   UNL     1      47.814   4.878  15.588  0.00  0.00    +0.000 NA
ENDROOT
BRANCH   1  10
ATOM      7  C   UNL     1      45.064   4.211  11.466  0.00  0.00    +0.000 A 
ATOM      8  C   UNL     1      45.626   5.478  11.311  0.00  0.00    +0.000 A 
ATOM      9  C   UNL     1      46.521   5.962  12.266  0.00  0.00    +0.000 A 
ATOM     10  C   UNL     1      46.842   5.170  13.368  0.00  0.00    +0.000 A 
ATOM     11  N   UNL     1      46.330   3.918  13.505  0.00  0.00    +0.000 NA
ATOM     12  C   UNL     1      45.459   3.472  12.568  0.00  0.00    +0.000 A 
BRANCH   7  14
ATOM     13  F   UNL     1      43.181   2.785  11.100  0.00  0.00    +0.000 F 
ATOM     14  C   UNL     1      44.054   3.651  10.515  0.00  0.00    +0.000 C 
ATOM     15  F   UNL     1      44.632   2.961   9.493  0.00  0.00    +0.000 F 
ATOM     16  F   UNL     1      43.292   4.615   9.932  0.00  0.00    +0.000 F 
ENDBRANCH   7  14
ENDBRANCH   1  10
BRANCH   5  17
ATOM     17  N   UNL     1      48.945   4.441  17.644  0.00  0.00    +0.000 N 
ATOM     18  H   UNL     1      48.244   4.544  18.370  0.00  0.00    +0.000 HD
BRANCH  17  19
ATOM     19  C   UNL     1      49.126   3.021  17.335  0.00  0.00    +0.000 C 
BRANCH  19  20
ATOM     20  C   UNL     1      50.575   2.630  17.548  0.00  0.00    +0.000 A 
ATOM     21  C   UNL     1      51.479   3.573  18.034  0.00  0.00    +0.000 A 
ATOM     22  C   UNL     1      52.805   3.200  18.229  0.00  0.00    +0.000 A 
ATOM     23  C   UNL     1      53.194   1.900  17.932  0.00  0.00    +0.000 A 
ATOM     24  C   UNL     1      52.236   1.023  17.452  0.00  0.00    +0.000 A 
ATOM     25  N   UNL     1      50.940   1.354  17.255  0.00  0.00    +0.000 NA
ENDBRANCH  19  20
ENDBRANCH  17  19
ENDBRANCH   5  17
TORSDOF 5
ENDMDL
MODEL 8
REMARK VINA RESULT:    -6.892      3.339      5.224
REMARK INTER + INTRA:          -9.418
REMARK INTER:                  -8.828
REMARK INTRA:                  -0.591
REMARK UNBOUND:                -0.512
REMARK  Name = 
REMARK  5 active torsions:
REMARK  status: ('A' for Active; 'I' for Inactive)
REMARK    1  A    between atoms: C_2  and  C_5
REMARK    2  A    between atoms: C_8  and  C_9
REMARK    3  A    between atoms: C_13  and  N_14
REMARK    4  A    between atoms: N_14  and  C_15
REMARK    5  A    between atoms: C_15  and  C_16
REMARK                            x       y       z     vdW  Elec       q    Type
REMARK                         _______ _______ _______ _____ _____    ______ ____
ROOT
ATOM      1  C   UNL     1      44.742   4.766  10.525  0.00  0.00    +0.000 A 
ATOM      2  C   UNL     1      43.439   4.580  10.980  0.00  0.00    +0.000 A 
ATOM      3  N   UNL     1      42.868   5.349  11.935  0.00  0.00    +0.000 NA
ATOM      4  C   UNL     1      43.663   6.331  12.417  0.00  0.00    +0.000 A 
ATOM      5  C   UNL     1      44.996   6.518  12.038  0.00  0.00    +0.000 A 
ATOM      6  N   UNL     1      45.535   5.736  11.077  0.00  0.00    +0.000 NA
ENDROOT
BRANCH   1  10
ATOM      7  C   UNL     1      46.516   2.669   7.280  0.00  0.00    +0.000 A 
ATOM      8  C   UNL     1      45.986   1.936   8.342  0.00  0.00    +0.000 A 
ATOM      9  C   UNL     1      45.367   2.601   9.402  0.00  0.00    +0.000 A 
ATOM     10  C   UNL     1      45.289   3.992   9.387  0.00  0.00    +0.000 A 
ATOM     11  N   UNL     1      45.768   4.711   8.336  0.00  0.00    +0.000 NA
ATOM     12  C   UNL     1      46.369   4.044   7.322  0.00  0.00    +0.000 A 
BRANCH   7  14
ATOM     13  F   UNL     1      47.212   2.767   4.995  0.00  0.00    +0.000 F 
ATOM     14  C   UNL     1      47.244   2.030   6.140  0.00  0.00    +0.000 C 
ATOM     15  F   UNL     1      46.728   0.813   5.812  0.00  0.00    +0.000 F 
ATOM     16  F   UNL     1      48.560   1.817   6.411  0.00  0.00    +0.000 F 
ENDBRANCH   7  14
ENDBRANCH   1  10
BRANCH   5  17
ATOM     17  N   UNL     1      45.710   7.611  12.544  0.00  0.00    +0.000 N 
ATOM     18  H   UNL     1      46.459   7.897  11.920  0.00  0.00    +0.000 HD
BRANCH  17  19
ATOM     19  C   UNL     1      44.903   8.779  12.905  0.00  0.00    +0.000 C 
BRANCH  19  20
ATOM     20  C   UNL     1      44.849   9.746  11.739  0.00  0.00    +0.000 A 
ATOM     21  C   UNL     1      43.789   9.678  10.836  0.00  0.00    +0.000 A 
ATOM     22  C   UNL     1      43.749  10.575   9.774  0.00  0.00    +0.000 A 
ATOM     23  C   UNL     1      44.765  11.513   9.638  0.00  0.00    +0.000 A 
ATOM     24  C   UNL     1      45.783  11.515  10.577  0.00  0.00    +0.000 A 
ATOM     25  N   UNL     1      45.849  10.659  11.622  0.00  0.00    +0.000 NA
ENDBRANCH  19  20
ENDBRANCH  17  19
ENDBRANCH   5  17
TORSDOF 5
ENDMDL
MODEL 9
REMARK VINA RESULT:    -6.780      3.607      5.287
REMARK INTER + INTRA:          -9.273
REMARK INTER:                  -8.576
REMARK INTRA:                  -0.698
REMARK UNBOUND:                -0.512
REMARK  Name = 
REMARK  5 active torsions:
REMARK  status: ('A' for Active; 'I' for Inactive)
REMARK    1  A    between atoms: C_2  and  C_5
REMARK    2  A    between atoms: C_8  and  C_9
REMARK    3  A    between atoms: C_13  and  N_14
REMARK    4  A    between atoms: N_14  and  C_15
REMARK    5  A    between atoms: C_15  and  C_16
REMARK                            x       y       z     vdW  Elec       q    Type
REMARK                         _______ _______ _______ _____ _____    ______ ____
ROOT
ATOM      1  C   UNL     1      48.173   6.509  13.420  0.00  0.00    +0.000 A 
ATOM      2  C   UNL     1      49.083   7.293  12.715  0.00  0.00    +0.000 A 
ATOM      3  N   UNL     1      50.167   7.869  13.285  0.00  0.00    +0.000 NA
ATOM      4  C   UNL     1      50.309   7.617  14.606  0.00  0.00    +0.000 A 
ATOM      5  C   UNL     1      49.389   6.889  15.369  0.00  0.00    +0.000 A 
ATOM      6  N   UNL     1      48.320   6.323  14.768  0.00  0.00    +0.000 NA
ENDROOT
BRANCH   1  10
ATOM      7  C   UNL     1      44.893   4.447  11.668  0.00  0.00    +0.000 A 
ATOM      8  C   UNL     1      45.378   5.593  11.039  0.00  0.00    +0.000 A 
ATOM      9  C   UNL     1      46.476   6.268  11.575  0.00  0.00    +0.000 A 
ATOM     10  C   UNL     1      47.074   5.786  12.739  0.00  0.00    +0.000 A 
ATOM     11  N   UNL     1      46.633   4.646  13.335  0.00  0.00    +0.000 NA
ATOM     12  C   UNL     1      45.563   4.012  12.799  0.00  0.00    +0.000 A 
BRANCH   7  14
ATOM     13  F   UNL     1      43.798   3.269   9.899  0.00  0.00    +0.000 F 
ATOM     14  C   UNL     1      43.687   3.706  11.184  0.00  0.00    +0.000 C 
ATOM     15  F   UNL     1      42.560   4.471  11.220  0.00  0.00    +0.000 F 
ATOM     16  F   UNL     1      43.413   2.603  11.933  0.00  0.00    +0.000 F 
ENDBRANCH   7  14
ENDBRANCH   1  10
BRANCH   5  17
ATOM     17  N   UNL     1      49.668   6.624  16.715  0.00  0.00    +0.000 N 
ATOM     18  H   UNL     1      49.604   7.459  17.288  0.00  0.00    +0.000 HD
BRANCH  17  19
ATOM     19  C   UNL     1      48.875   5.553  17.323  0.00  0.00    +0.000 C 
BRANCH  19  20
ATOM     20  C   UNL     1      49.667   4.261  17.317  0.00  0.00    +0.000 A 
ATOM     21  C   UNL     1      50.974   4.252  17.802  0.00  0.00    +0.000 A 
ATOM     22  C   UNL     1      51.688   3.058  17.797  0.00  0.00    +0.000 A 
ATOM     23  C   UNL     1      51.083   1.908  17.305  0.00  0.00    +0.000 A 
ATOM     24  C   UNL     1      49.782   2.000  16.840  0.00  0.00    +0.000 A 
ATOM     25  N   UNL     1      49.060   3.143  16.836  0.00  0.00    +0.000 NA
ENDBRANCH  19  20
ENDBRANCH  17  19
ENDBRANCH   5  17
TORSDOF 5
ENDMDL
