MODEL 1
REMARK VINA RESULT:    -7.087      0.000      0.000
REMARK INTER + INTRA:         -11.313
REMARK INTER:                 -10.608
REMARK INTRA:                  -0.705
REMARK UNBOUND:                -0.705
REMARK  Name = 
REMARK  12 active torsions:
REMARK  status: ('A' for Active; 'I' for Inactive)
REMARK    1  A    between atoms: C_1  and  C_2
REMARK    2  A    between atoms: C_2  and  C_3
REMARK    3  A    between atoms: C_2  and  C_4
REMARK    4  A    between atoms: C_2  and  O_5
REMARK    5  A    between atoms: O_5  and  C_6
REMARK    6  A    between atoms: C_6  and  C_7
REMARK    7  A    between atoms: C_7  and  C_8
REMARK    8  A    between atoms: C_8  and  N_9
REMARK    9  A    between atoms: C_12  and  C_13
REMARK   10  A    between atoms: C_13  and  N_14
REMARK   11  A    between atoms: C_19  and  C_20
REMARK   12  A    between atoms: C_20  and  O_22
REMARK                            x       y       z     vdW  Elec       q    Type
REMARK                         _______ _______ _______ _____ _____    ______ ____
ROOT
ATOM      1  N   UNL     1      46.612   6.562  12.737  0.00  0.00    +0.000 NA
ATOM      2  C   UNL     1      45.472   7.390  12.317  0.00  0.00    +0.000 C 
ATOM      3  C   UNL     1      44.161   6.849  12.886  0.00  0.00    +0.000 C 
ATOM      4  C   UNL     1      43.902   5.410  12.432  0.00  0.00    +0.000 C 
ATOM      5  C   UNL     1      45.105   4.566  12.887  0.00  0.00    +0.000 C 
ATOM      6  C   UNL     1      46.442   5.141  12.399  0.00  0.00    +0.000 C 
ENDROOT
BRANCH   1   7
ATOM      7  C   UNL     1      47.887   7.059  12.178  0.00  0.00    +0.000 C 
BRANCH   7   8
ATOM      8  C   UNL     1      49.051   7.133  13.176  0.00  0.00    +0.000 C 
BRANCH   8   9
ATOM      9  C   UNL     1      48.595   7.034  14.628  0.00  0.00    +0.000 C 
BRANCH   9  10
ATOM     10  O   UNL     1      49.547   6.274  15.367  0.00  0.00    +0.000 OA
BRANCH  10  12
ATOM     11  C   UNL     1      50.253   5.087  17.401  0.00  0.00    +0.000 C 
ATOM     12  C   UNL     1      49.111   5.763  16.635  0.00  0.00    +0.000 C 
ATOM     13  C   UNL     1      47.918   4.812  16.465  0.00  0.00    +0.000 C 
ATOM     14  C   UNL     1      48.653   6.991  17.436  0.00  0.00    +0.000 C 
ENDBRANCH  10  12
ENDBRANCH   9  10
ENDBRANCH   8   9
ENDBRANCH   7   8
ENDBRANCH   1   7
BRANCH   4  15
ATOM     15  C   UNL     1      43.674   5.265  10.911  0.00  0.00    +0.000 C 
BRANCH  15  16
ATOM     16  N   UNL     1      44.155   4.021  10.337  0.00  0.00    +0.000 N 
ATOM     17  N   UNL     1      43.598   2.862  10.751  0.00  0.00    +0.000 NA
ATOM     18  C   UNL     1      44.185   1.936   9.991  0.00  0.00    +0.000 A 
ATOM     19  C   UNL     1      45.091   2.491   9.066  0.00  0.00    +0.000 A 
ATOM     20  C   UNL     1      45.920   1.985   8.050  0.00  0.00    +0.000 A 
ATOM     21  C   UNL     1      46.702   2.881   7.302  0.00  0.00    +0.000 A 
ATOM     22  C   UNL     1      46.684   4.251   7.590  0.00  0.00    +0.000 A 
ATOM     23  C   UNL     1      45.860   4.769   8.601  0.00  0.00    +0.000 A 
ATOM     24  C   UNL     1      45.066   3.861   9.317  0.00  0.00    +0.000 A 
BRANCH  21  25
ATOM     25  C   UNL     1      47.561   2.309   6.236  0.00  0.00    +0.000 C 
ATOM     26  O   UNL     1      48.207   1.286   6.386  0.00  0.00    +0.000 OA
BRANCH  25  27
ATOM     27  O   UNL     1      47.531   2.997   5.077  0.00  0.00    +0.000 OA
ATOM     28  H   UNL     1      48.387   3.372   4.796  0.00  0.00    +0.000 HD
ENDBRANCH  25  27
ENDBRANCH  21  25
ENDBRANCH  15  16
ENDBRANCH   4  15
TORSDOF 9
ENDMDL
MODEL 2
REMARK VINA RESULT:    -7.034      2.060      8.785
REMARK INTER + INTRA:         -11.234
REMARK INTER:                 -10.299
REMARK INTRA:                  -0.935
REMARK UNBOUND:                -0.705
REMARK  Name = 
REMARK  12 active torsions:
REMARK  status: ('A' for Active; 'I' for Inactive)
REMARK    1  A    between atoms: C_1  and  C_2
REMARK    2  A    between atoms: C_2  and  C_3
REMARK    3  A    between atoms: C_2  and  C_4
REMARK    4  A    between atoms: C_2  and  O_5
REMARK    5  A    between atoms: O_5  and  C_6
REMARK    6  A    between atoms: C_6  and  C_7
REMARK    7  A    between atoms: C_7  and  C_8
REMARK    8  A    between atoms: C_8  and  N_9
REMARK    9  A    between atoms: C_12  and  C_13
REMARK   10  A    between atoms: C_13  and  N_14
REMARK   11  A    between atoms: C_19  and  C_20
REMARK   12  A    between atoms: C_20  and  O_22
REMARK                            x       y       z     vdW  Elec       q    Type
REMARK                         _______ _______ _______ _____ _____    ______ ____
ROOT
ATOM      1  N   UNL     1      44.204   4.848  10.495  0.00  0.00    +0.000 NA
ATOM      2  C   UNL     1      43.856   4.223  11.779  0.00  0.00    +0.000 C 
ATOM      3  C   UNL     1      43.912   5.239  12.918  0.00  0.00    +0.000 C 
ATOM      4  C   UNL     1      45.305   5.861  13.049  0.00  0.00    +0.000 C 
ATOM      5  C   UNL     1      45.642   6.511  11.697  0.00  0.00    +0.000 C 
ATOM      6  C   UNL     1      45.508   5.527  10.525  0.00  0.00    +0.000 C 
ENDROOT
BRANCH   1   7
ATOM      7  C   UNL     1      44.176   3.873   9.383  0.00  0.00    +0.000 C 
BRANCH   7   8
ATOM      8  C   UNL     1      44.575   2.440   9.764  0.00  0.00    +0.000 C 
BRANCH   8   9
ATOM      9  C   UNL     1      45.462   1.773   8.720  0.00  0.00    +0.000 C 
BRANCH   9  10
ATOM     10  O   UNL     1      45.452   2.554   7.528  0.00  0.00    +0.000 OA
BRANCH  10  12
ATOM     11  C   UNL     1      47.734   1.691   7.223  0.00  0.00    +0.000 C 
ATOM     12  C   UNL     1      46.726   2.804   6.916  0.00  0.00    +0.000 C 
ATOM     13  C   UNL     1      47.275   4.177   7.327  0.00  0.00    +0.000 C 
ATOM     14  C   UNL     1      46.459   2.812   5.404  0.00  0.00    +0.000 C 
ENDBRANCH  10  12
ENDBRANCH   9  10
ENDBRANCH   8   9
ENDBRANCH   7   8
ENDBRANCH   1   7
BRANCH   4  15
ATOM     15  C   UNL     1      46.402   4.855  13.465  0.00  0.00    +0.000 C 
BRANCH  15  16
ATOM     16  N   UNL     1      47.354   5.358  14.439  0.00  0.00    +0.000 N 
ATOM     17  N   UNL     1      47.997   6.516  14.175  0.00  0.00    +0.000 NA
ATOM     18  C   UNL     1      48.716   6.741  15.275  0.00  0.00    +0.000 A 
ATOM     19  C   UNL     1      48.517   5.755  16.262  0.00  0.00    +0.000 A 
ATOM     20  C   UNL     1      48.989   5.537  17.567  0.00  0.00    +0.000 A 
ATOM     21  C   UNL     1      48.540   4.406  18.271  0.00  0.00    +0.000 A 
ATOM     22  C   UNL     1      47.668   3.492  17.665  0.00  0.00    +0.000 A 
ATOM     23  C   UNL     1      47.190   3.700  16.363  0.00  0.00    +0.000 A 
ATOM     24  C   UNL     1      47.627   4.849  15.688  0.00  0.00    +0.000 A 
BRANCH  21  25
ATOM     25  C   UNL     1      49.057   4.211  19.648  0.00  0.00    +0.000 C 
ATOM     26  O   UNL     1      50.097   4.712  20.040  0.00  0.00    +0.000 OA
BRANCH  25  27
ATOM     27  O   UNL     1      48.255   3.468  20.437  0.00  0.00    +0.000 OA
ATOM     28  H   UNL     1      48.649   3.193  21.285  0.00  0.00    +0.000 HD
ENDBRANCH  25  27
ENDBRANCH  21  25
ENDBRANCH  15  16
ENDBRANCH   4  15
TORSDOF 9
ENDMDL
MODEL 3
REMARK VINA RESULT:    -6.446      3.308      4.914
REMARK INTER + INTRA:         -10.354
REMARK INTER:                  -9.073
REMARK INTRA:                  -1.281
REMARK UNBOUND:                -0.705
REMARK  Name = 
REMARK  12 active torsions:
REMARK  status: ('A' for Active; 'I' for Inactive)
REMARK    1  A    between atoms: C_1  and  C_2
REMARK    2  A    between atoms: C_2  and  C_3
REMARK    3  A    between atoms: C_2  and  C_4
REMARK    4  A    between atoms: C_2  and  O_5
REMARK    5  A    between atoms: O_5  and  C_6
REMARK    6  A    between atoms: C_6  and  C_7
REMARK    7  A    between atoms: C_7  and  C_8
REMARK    8  A    between atoms: C_8  and  N_9
REMARK    9  A    between atoms: C_12  and  C_13
REMARK   10  A    between atoms: C_13  and  N_14
REMARK   11  A    between atoms: C_19  and  C_20
REMARK   12  A    between atoms: C_20  and  O_22
REMARK                            x       y       z     vdW  Elec       q    Type
REMARK                         _______ _______ _______ _____ _____    ______ ____
ROOT
ATOM      1  N   UNL     1      50.060   7.903  14.350  0.00  0.00    +0.000 NA
ATOM      2  C   UNL     1      49.212   7.084  13.473  0.00  0.00    +0.000 C 
ATOM      3  C   UNL     1      48.698   7.899  12.287  0.00  0.00    +0.000 C 
ATOM      4  C   UNL     1      47.881   9.110  12.750  0.00  0.00    +0.000 C 
ATOM      5  C   UNL     1      48.790   9.951  13.661  0.00  0.00    +0.000 C 
ATOM      6  C   UNL     1      49.389   9.128  14.811  0.00  0.00    +0.000 C 
ENDROOT
BRANCH   1   7
ATOM      7  C   UNL     1      50.550   7.135  15.515  0.00  0.00    +0.000 C 
BRANCH   7   8
ATOM      8  C   UNL     1      49.576   7.057  16.699  0.00  0.00    +0.000 C 
BRANCH   8   9
ATOM      9  C   UNL     1      48.666   5.835  16.639  0.00  0.00    +0.000 C 
BRANCH   9  10
ATOM     10  O   UNL     1      49.465   4.656  16.624  0.00  0.00    +0.000 OA
BRANCH  10  12
ATOM     11  C   UNL     1      49.842   2.294  17.194  0.00  0.00    +0.000 C 
ATOM     12  C   UNL     1      48.983   3.546  17.396  0.00  0.00    +0.000 C 
ATOM     13  C   UNL     1      47.506   3.261  17.090  0.00  0.00    +0.000 C 
ATOM     14  C   UNL     1      49.106   3.985  18.863  0.00  0.00    +0.000 C 
ENDBRANCH  10  12
ENDBRANCH   9  10
ENDBRANCH   8   9
ENDBRANCH   7   8
ENDBRANCH   1   7
BRANCH   4  15
ATOM     15  C   UNL     1      46.569   8.738  13.476  0.00  0.00    +0.000 C 
BRANCH  15  16
ATOM     16  N   UNL     1      45.578   8.076  12.645  0.00  0.00    +0.000 N 
ATOM     17  N   UNL     1      44.889   8.816  11.749  0.00  0.00    +0.000 NA
ATOM     18  C   UNL     1      44.141   7.921  11.103  0.00  0.00    +0.000 A 
ATOM     19  C   UNL     1      44.367   6.604  11.551  0.00  0.00    +0.000 A 
ATOM     20  C   UNL     1      43.882   5.332  11.202  0.00  0.00    +0.000 A 
ATOM     21  C   UNL     1      44.367   4.208  11.892  0.00  0.00    +0.000 A 
ATOM     22  C   UNL     1      45.289   4.358  12.935  0.00  0.00    +0.000 A 
ATOM     23  C   UNL     1      45.781   5.622  13.292  0.00  0.00    +0.000 A 
ATOM     24  C   UNL     1      45.305   6.729  12.573  0.00  0.00    +0.000 A 
BRANCH  21  25
ATOM     25  C   UNL     1      43.835   2.882  11.493  0.00  0.00    +0.000 C 
ATOM     26  O   UNL     1      43.788   2.511  10.333  0.00  0.00    +0.000 OA
BRANCH  25  27
ATOM     27  O   UNL     1      43.448   2.109  12.528  0.00  0.00    +0.000 OA
ATOM     28  H   UNL     1      43.272   2.589  13.359  0.00  0.00    +0.000 HD
ENDBRANCH  25  27
ENDBRANCH  21  25
ENDBRANCH  15  16
ENDBRANCH   4  15
TORSDOF 9
ENDMDL
MODEL 4
REMARK VINA RESULT:    -6.123      2.643      7.656
REMARK INTER + INTRA:          -9.871
REMARK INTER:                  -9.299
REMARK INTRA:                  -0.572
REMARK UNBOUND:                -0.705
REMARK  Name = 
REMARK  12 active torsions:
REMARK  status: ('A' for Active; 'I' for Inactive)
REMARK    1  A    between atoms: C_1  and  C_2
REMARK    2  A    between atoms: C_2  and  C_3
REMARK    3  A    between atoms: C_2  and  C_4
REMARK    4  A    between atoms: C_2  and  O_5
REMARK    5  A    between atoms: O_5  and  C_6
REMARK    6  A    between atoms: C_6  and  C_7
REMARK    7  A    between atoms: C_7  and  C_8
REMARK    8  A    between atoms: C_8  and  N_9
REMARK    9  A    between atoms: C_12  and  C_13
REMARK   10  A    between atoms: C_13  and  N_14
REMARK   11  A    between atoms: C_19  and  C_20
REMARK   12  A    between atoms: C_20  and  O_22
REMARK                            x       y       z     vdW  Elec       q    Type
REMARK                         _______ _______ _______ _____ _____    ______ ____
ROOT
ATOM      1  N   UNL     1      43.421   3.314  11.053  0.00  0.00    +0.000 NA
ATOM      2  C   UNL     1      43.885   3.241  12.445  0.00  0.00    +0.000 C 
ATOM      3  C   UNL     1      43.359   4.420  13.263  0.00  0.00    +0.000 C 
ATOM      4  C   UNL     1      43.814   5.759  12.675  0.00  0.00    +0.000 C 
ATOM      5  C   UNL     1      43.313   5.812  11.222  0.00  0.00    +0.000 C 
ATOM      6  C   UNL     1      43.758   4.591  10.404  0.00  0.00    +0.000 C 
ENDROOT
BRANCH   1   7
ATOM      7  C   UNL     1      43.938   2.192  10.241  0.00  0.00    +0.000 C 
BRANCH   7   8
ATOM      8  C   UNL     1      44.550   2.592   8.892  0.00  0.00    +0.000 C 
BRANCH   8   9
ATOM      9  C   UNL     1      45.809   1.803   8.553  0.00  0.00    +0.000 C 
BRANCH   9  10
ATOM     10  O   UNL     1      45.977   1.774   7.138  0.00  0.00    +0.000 OA
BRANCH  10  12
ATOM     11  C   UNL     1      46.963   4.020   7.310  0.00  0.00    +0.000 C 
ATOM     12  C   UNL     1      46.961   2.666   6.593  0.00  0.00    +0.000 C 
ATOM     13  C   UNL     1      46.768   2.839   5.080  0.00  0.00    +0.000 C 
ATOM     14  C   UNL     1      48.315   1.984   6.842  0.00  0.00    +0.000 C 
ENDBRANCH  10  12
ENDBRANCH   9  10
ENDBRANCH   8   9
ENDBRANCH   7   8
ENDBRANCH   1   7
BRANCH   4  15
ATOM     15  C   UNL     1      45.342   5.982  12.738  0.00  0.00    +0.000 C 
BRANCH  15  16
ATOM     16  N   UNL     1      45.771   7.344  12.470  0.00  0.00    +0.000 N 
ATOM     17  N   UNL     1      44.883   8.347  12.645  0.00  0.00    +0.000 NA
ATOM     18  C   UNL     1      45.595   9.448  12.405  0.00  0.00    +0.000 A 
ATOM     19  C   UNL     1      46.944   9.167  12.109  0.00  0.00    +0.000 A 
ATOM     20  C   UNL     1      48.085   9.935  11.819  0.00  0.00    +0.000 A 
ATOM     21  C   UNL     1      49.303   9.275  11.580  0.00  0.00    +0.000 A 
ATOM     22  C   UNL     1      49.368   7.876  11.592  0.00  0.00    +0.000 A 
ATOM     23  C   UNL     1      48.236   7.100  11.881  0.00  0.00    +0.000 A 
ATOM     24  C   UNL     1      47.036   7.778  12.144  0.00  0.00    +0.000 A 
BRANCH  21  25
ATOM     25  C   UNL     1      50.487  10.119  11.282  0.00  0.00    +0.000 C 
ATOM     26  O   UNL     1      50.417  11.150  10.635  0.00  0.00    +0.000 OA
BRANCH  25  27
ATOM     27  O   UNL     1      51.635   9.667  11.824  0.00  0.00    +0.000 OA
ATOM     28  H   UNL     1      52.304   9.363  11.184  0.00  0.00    +0.000 HD
ENDBRANCH  25  27
ENDBRANCH  21  25
ENDBRANCH  15  16
ENDBRANCH   4  15
TORSDOF 9
ENDMDL
MODEL 5
REMARK VINA RESULT:    -6.098      1.975      8.785
REMARK INTER + INTRA:          -9.833
REMARK INTER:                  -8.848
REMARK INTRA:                  -0.985
REMARK UNBOUND:                -0.705
REMARK  Name = 
REMARK  12 active torsions:
REMARK  status: ('A' for Active; 'I' for Inactive)
REMARK    1  A    between atoms: C_1  and  C_2
REMARK    2  A    between atoms: C_2  and  C_3
REMARK    3  A    between atoms: C_2  and  C_4
REMARK    4  A    between atoms: C_2  and  O_5
REMARK    5  A    between atoms: O_5  and  C_6
REMARK    6  A    between atoms: C_6  and  C_7
REMARK    7  A    between atoms: C_7  and  C_8
REMARK    8  A    between atoms: C_8  and  N_9
REMARK    9  A    between atoms: C_12  and  C_13
REMARK   10  A    between atoms: C_13  and  N_14
REMARK   11  A    between atoms: C_19  and  C_20
REMARK   12  A    between atoms: C_20  and  O_22
REMARK                            x       y       z     vdW  Elec       q    Type
REMARK                         _______ _______ _______ _____ _____    ______ ____
ROOT
ATOM      1  N   UNL     1      44.343   5.186  10.975  0.00  0.00    +0.000 NA
ATOM      2  C   UNL     1      44.353   4.847  12.405  0.00  0.00    +0.000 C 
ATOM      3  C   UNL     1      44.859   6.019  13.245  0.00  0.00    +0.000 C 
ATOM      4  C   UNL     1      46.277   6.431  12.839  0.00  0.00    +0.000 C 
ATOM      5  C   UNL     1      46.238   6.784  11.343  0.00  0.00    +0.000 C 
ATOM      6  C   UNL     1      45.651   5.651  10.488  0.00  0.00    +0.000 C 
ENDROOT
BRANCH   1   7
ATOM      7  C   UNL     1      43.877   4.055  10.144  0.00  0.00    +0.000 C 
BRANCH   7   8
ATOM      8  C   UNL     1      44.558   3.929   8.774  0.00  0.00    +0.000 C 
BRANCH   8   9
ATOM      9  C   UNL     1      45.318   2.619   8.607  0.00  0.00    +0.000 C 
BRANCH   9  10
ATOM     10  O   UNL     1      46.598   2.889   8.042  0.00  0.00    +0.000 OA
BRANCH  10  12
ATOM     11  C   UNL     1      46.223   2.339   5.675  0.00  0.00    +0.000 C 
ATOM     12  C   UNL     1      47.010   2.044   6.957  0.00  0.00    +0.000 C 
ATOM     13  C   UNL     1      46.908   0.563   7.343  0.00  0.00    +0.000 C 
ATOM     14  C   UNL     1      48.486   2.389   6.708  0.00  0.00    +0.000 C 
ENDBRANCH  10  12
ENDBRANCH   9  10
ENDBRANCH   8   9
ENDBRANCH   7   8
ENDBRANCH   1   7
BRANCH   4  15
ATOM     15  C   UNL     1      47.346   5.351  13.121  0.00  0.00    +0.000 C 
BRANCH  15  16
ATOM     16  N   UNL     1      47.504   5.000  14.521  0.00  0.00    +0.000 N 
ATOM     17  N   UNL     1      47.128   3.765  14.923  0.00  0.00    +0.000 NA
ATOM     18  C   UNL     1      47.473   3.730  16.210  0.00  0.00    +0.000 A 
ATOM     19  C   UNL     1      48.099   4.919  16.635  0.00  0.00    +0.000 A 
ATOM     20  C   UNL     1      48.662   5.378  17.838  0.00  0.00    +0.000 A 
ATOM     21  C   UNL     1      49.223   6.666  17.877  0.00  0.00    +0.000 A 
ATOM     22  C   UNL     1      49.187   7.491  16.746  0.00  0.00    +0.000 A 
ATOM     23  C   UNL     1      48.628   7.044  15.539  0.00  0.00    +0.000 A 
ATOM     24  C   UNL     1      48.098   5.745  15.513  0.00  0.00    +0.000 A 
BRANCH  21  25
ATOM     25  C   UNL     1      49.811   7.114  19.163  0.00  0.00    +0.000 C 
ATOM     26  O   UNL     1      50.777   6.572  19.672  0.00  0.00    +0.000 OA
BRANCH  25  27
ATOM     27  O   UNL     1      49.210   8.197  19.696  0.00  0.00    +0.000 OA
ATOM     28  H   UNL     1      49.334   9.026  19.196  0.00  0.00    +0.000 HD
ENDBRANCH  25  27
ENDBRANCH  21  25
ENDBRANCH  15  16
ENDBRANCH   4  15
TORSDOF 9
ENDMDL
MODEL 6
REMARK VINA RESULT:    -5.745      3.634      5.931
REMARK INTER + INTRA:          -9.304
REMARK INTER:                  -7.887
REMARK INTRA:                  -1.417
REMARK UNBOUND:                -0.705
REMARK  Name = 
REMARK  12 active torsions:
REMARK  status: ('A' for Active; 'I' for Inactive)
REMARK    1  A    between atoms: C_1  and  C_2
REMARK    2  A    between atoms: C_2  and  C_3
REMARK    3  A    between atoms: C_2  and  C_4
REMARK    4  A    between atoms: C_2  and  O_5
REMARK    5  A    between atoms: O_5  and  C_6
REMARK    6  A    between atoms: C_6  and  C_7
REMARK    7  A    between atoms: C_7  and  C_8
REMARK    8  A    between atoms: C_8  and  N_9
REMARK    9  A    between atoms: C_12  and  C_13
REMARK   10  A    between atoms: C_13  and  N_14
REMARK   11  A    between atoms: C_19  and  C_20
REMARK   12  A    between atoms: C_20  and  O_22
REMARK                            x       y       z     vdW  Elec       q    Type
REMARK                         _______ _______ _______ _____ _____    ______ ____
ROOT
ATOM      1  N   UNL     1      50.272  10.668  14.405  0.00  0.00    +0.000 NA
ATOM      2  C   UNL     1      49.660  10.232  13.143  0.00  0.00    +0.000 C 
ATOM      3  C   UNL     1      48.211   9.797  13.355  0.00  0.00    +0.000 C 
ATOM      4  C   UNL     1      48.111   8.646  14.360  0.00  0.00    +0.000 C 
ATOM      5  C   UNL     1      48.753   9.129  15.671  0.00  0.00    +0.000 C 
ATOM      6  C   UNL     1      50.182   9.652  15.465  0.00  0.00    +0.000 C 
ENDROOT
BRANCH   1   7
ATOM      7  C   UNL     1      51.682  11.073  14.222  0.00  0.00    +0.000 C 
BRANCH   7   8
ATOM      8  C   UNL     1      52.690   9.916  14.176  0.00  0.00    +0.000 C 
BRANCH   8   9
ATOM      9  C   UNL     1      53.217   9.642  12.773  0.00  0.00    +0.000 C 
BRANCH   9  10
ATOM     10  O   UNL     1      52.724   8.382  12.325  0.00  0.00    +0.000 OA
BRANCH  10  12
ATOM     11  C   UNL     1      53.300   7.423  10.135  0.00  0.00    +0.000 C 
ATOM     12  C   UNL     1      52.339   8.300  10.945  0.00  0.00    +0.000 C 
ATOM     13  C   UNL     1      52.208   9.698  10.325  0.00  0.00    +0.000 C 
ATOM     14  C   UNL     1      50.956   7.629  10.945  0.00  0.00    +0.000 C 
ENDBRANCH  10  12
ENDBRANCH   9  10
ENDBRANCH   8   9
ENDBRANCH   7   8
ENDBRANCH   1   7
BRANCH   4  15
ATOM     15  C   UNL     1      48.770   7.335  13.876  0.00  0.00    +0.000 C 
BRANCH  15  16
ATOM     16  N   UNL     1      47.875   6.193  13.801  0.00  0.00    +0.000 N 
ATOM     17  N   UNL     1      47.849   5.324  14.836  0.00  0.00    +0.000 NA
ATOM     18  C   UNL     1      46.890   4.461  14.503  0.00  0.00    +0.000 A 
ATOM     19  C   UNL     1      46.272   4.784  13.279  0.00  0.00    +0.000 A 
ATOM     20  C   UNL     1      45.225   4.242  12.513  0.00  0.00    +0.000 A 
ATOM     21  C   UNL     1      44.873   4.869  11.306  0.00  0.00    +0.000 A 
ATOM     22  C   UNL     1      45.578   5.993  10.856  0.00  0.00    +0.000 A 
ATOM     23  C   UNL     1      46.624   6.543  11.612  0.00  0.00    +0.000 A 
ATOM     24  C   UNL     1      46.942   5.918  12.827  0.00  0.00    +0.000 A 
BRANCH  21  25
ATOM     25  C   UNL     1      43.760   4.272  10.527  0.00  0.00    +0.000 C 
ATOM     26  O   UNL     1      42.967   3.481  11.008  0.00  0.00    +0.000 OA
BRANCH  25  27
ATOM     27  O   UNL     1      43.680   4.712   9.255  0.00  0.00    +0.000 OA
ATOM     28  H   UNL     1      44.239   5.483   9.049  0.00  0.00    +0.000 HD
ENDBRANCH  25  27
ENDBRANCH  21  25
ENDBRANCH  15  16
ENDBRANCH   4  15
TORSDOF 9
ENDMDL
MODEL 7
REMARK VINA RESULT:    -5.713      3.890      5.852
REMARK INTER + INTRA:          -9.256
REMARK INTER:                  -8.114
REMARK INTRA:                  -1.142
REMARK UNBOUND:                -0.705
REMARK  Name = 
REMARK  12 active torsions:
REMARK  status: ('A' for Active; 'I' for Inactive)
REMARK    1  A    between atoms: C_1  and  C_2
REMARK    2  A    between atoms: C_2  and  C_3
REMARK    3  A    between atoms: C_2  and  C_4
REMARK    4  A    between atoms: C_2  and  O_5
REMARK    5  A    between atoms: O_5  and  C_6
REMARK    6  A    between atoms: C_6  and  C_7
REMARK    7  A    between atoms: C_7  and  C_8
REMARK    8  A    between atoms: C_8  and  N_9
REMARK    9  A    between atoms: C_12  and  C_13
REMARK   10  A    between atoms: C_13  and  N_14
REMARK   11  A    between atoms: C_19  and  C_20
REMARK   12  A    between atoms: C_20  and  O_22
REMARK                            x       y       z     vdW  Elec       q    Type
REMARK                         _______ _______ _______ _____ _____    ______ ____
ROOT
ATOM      1  N   UNL     1      50.324   7.551  17.139  0.00  0.00    +0.000 NA
ATOM      2  C   UNL     1      51.032   7.324  15.872  0.00  0.00    +0.000 C 
ATOM      3  C   UNL     1      50.744   8.443  14.872  0.00  0.00    +0.000 C 
ATOM      4  C   UNL     1      49.246   8.558  14.572  0.00  0.00    +0.000 C 
ATOM      5  C   UNL     1      48.531   8.799  15.912  0.00  0.00    +0.000 C 
ATOM      6  C   UNL     1      48.875   7.732  16.961  0.00  0.00    +0.000 C 
ENDROOT
BRANCH   1   7
ATOM      7  C   UNL     1      50.574   6.465  18.111  0.00  0.00    +0.000 C 
BRANCH   7   8
ATOM      8  C   UNL     1      51.388   5.282  17.570  0.00  0.00    +0.000 C 
BRANCH   8   9
ATOM      9  C   UNL     1      50.636   3.959  17.647  0.00  0.00    +0.000 C 
BRANCH   9  10
ATOM     10  O   UNL     1      49.242   4.219  17.781  0.00  0.00    +0.000 OA
BRANCH  10  12
ATOM     11  C   UNL     1      49.100   2.178  16.416  0.00  0.00    +0.000 C 
ATOM     12  C   UNL     1      48.358   3.365  17.041  0.00  0.00    +0.000 C 
ATOM     13  C   UNL     1      47.587   4.158  15.977  0.00  0.00    +0.000 C 
ATOM     14  C   UNL     1      47.357   2.820  18.071  0.00  0.00    +0.000 C 
ENDBRANCH  10  12
ENDBRANCH   9  10
ENDBRANCH   8   9
ENDBRANCH   7   8
ENDBRANCH   1   7
BRANCH   4  15
ATOM     15  C   UNL     1      48.658   7.325  13.850  0.00  0.00    +0.000 C 
BRANCH  15  16
ATOM     16  N   UNL     1      47.367   7.544  13.222  0.00  0.00    +0.000 N 
ATOM     17  N   UNL     1      47.079   8.778  12.752  0.00  0.00    +0.000 NA
ATOM     18  C   UNL     1      45.886   8.629  12.175  0.00  0.00    +0.000 A 
ATOM     19  C   UNL     1      45.416   7.302  12.238  0.00  0.00    +0.000 A 
ATOM     20  C   UNL     1      44.276   6.622  11.778  0.00  0.00    +0.000 A 
ATOM     21  C   UNL     1      44.159   5.245  12.033  0.00  0.00    +0.000 A 
ATOM     22  C   UNL     1      45.144   4.571  12.766  0.00  0.00    +0.000 A 
ATOM     23  C   UNL     1      46.287   5.239  13.230  0.00  0.00    +0.000 A 
ATOM     24  C   UNL     1      46.398   6.608  12.941  0.00  0.00    +0.000 A 
BRANCH  21  25
ATOM     25  C   UNL     1      42.943   4.560  11.528  0.00  0.00    +0.000 C 
ATOM     26  O   UNL     1      42.925   3.377  11.235  0.00  0.00    +0.000 OA
BRANCH  25  27
ATOM     27  O   UNL     1      41.853   5.350  11.462  0.00  0.00    +0.000 OA
ATOM     28  H   UNL     1      41.812   6.055  12.135  0.00  0.00    +0.000 HD
ENDBRANCH  25  27
ENDBRANCH  21  25
ENDBRANCH  15  16
ENDBRANCH   4  15
TORSDOF 9
ENDMDL
MODEL 8
REMARK VINA RESULT:    -5.576      3.226      5.071
REMARK INTER + INTRA:          -9.052
REMARK INTER:                  -7.688
REMARK INTRA:                  -1.364
REMARK UNBOUND:                -0.705
REMARK  Name = 
REMARK  12 active torsions:
REMARK  status: ('A' for Active; 'I' for Inactive)
REMARK    1  A    between atoms: C_1  and  C_2
REMARK    2  A    between atoms: C_2  and  C_3
REMARK    3  A    between atoms: C_2  and  C_4
REMARK    4  A    between atoms: C_2  and  O_5
REMARK    5  A    between atoms: O_5  and  C_6
REMARK    6  A    between atoms: C_6  and  C_7
REMARK    7  A    between atoms: C_7  and  C_8
REMARK    8  A    between atoms: C_8  and  N_9
REMARK    9  A    between atoms: C_12  and  C_13
REMARK   10  A    between atoms: C_13  and  N_14
REMARK   11  A    between atoms: C_19  and  C_20
REMARK   12  A    between atoms: C_20  and  O_22
REMARK                            x       y       z     vdW  Elec       q    Type
REMARK                         _______ _______ _______ _____ _____    ______ ____
ROOT
ATOM      1  N   UNL     1      50.889   9.473  12.852  0.00  0.00    +0.000 NA
ATOM      2  C   UNL     1      50.611   8.030  12.853  0.00  0.00    +0.000 C 
ATOM      3  C   UNL     1      49.638   7.657  11.736  0.00  0.00    +0.000 C 
ATOM      4  C   UNL     1      48.307   8.402  11.877  0.00  0.00    +0.000 C 
ATOM      5  C   UNL     1      48.625   9.907  11.870  0.00  0.00    +0.000 C 
ATOM      6  C   UNL     1      49.669  10.290  12.929  0.00  0.00    +0.000 C 
ENDROOT
BRANCH   1   7
ATOM      7  C   UNL     1      51.814   9.855  13.941  0.00  0.00    +0.000 C 
BRANCH   7   8
ATOM      8  C   UNL     1      52.364   8.685  14.768  0.00  0.00    +0.000 C 
BRANCH   8   9
ATOM      9  C   UNL     1      51.867   8.690  16.209  0.00  0.00    +0.000 C 
BRANCH   9  10
ATOM     10  O   UNL     1      50.473   8.396  16.225  0.00  0.00    +0.000 OA
BRANCH  10  12
ATOM     11  C   UNL     1      48.234   9.356  16.562  0.00  0.00    +0.000 C 
ATOM     12  C   UNL     1      49.660   9.192  17.100  0.00  0.00    +0.000 C 
ATOM     13  C   UNL     1      50.312  10.555  17.368  0.00  0.00    +0.000 C 
ATOM     14  C   UNL     1      49.592   8.409  18.420  0.00  0.00    +0.000 C 
ENDBRANCH  10  12
ENDBRANCH   9  10
ENDBRANCH   8   9
ENDBRANCH   7   8
ENDBRANCH   1   7
BRANCH   4  15
ATOM     15  C   UNL     1      47.507   8.016  13.141  0.00  0.00    +0.000 C 
BRANCH  15  16
ATOM     16  N   UNL     1      47.187   6.604  13.253  0.00  0.00    +0.000 N 
ATOM     17  N   UNL     1      47.682   5.911  14.303  0.00  0.00    +0.000 NA
ATOM     18  C   UNL     1      47.148   4.697  14.164  0.00  0.00    +0.000 A 
ATOM     19  C   UNL     1      46.286   4.609  13.053  0.00  0.00    +0.000 A 
ATOM     20  C   UNL     1      45.476   3.607  12.493  0.00  0.00    +0.000 A 
ATOM     21  C   UNL     1      44.722   3.906  11.345  0.00  0.00    +0.000 A 
ATOM     22  C   UNL     1      44.807   5.170  10.748  0.00  0.00    +0.000 A 
ATOM     23  C   UNL     1      45.612   6.179  11.299  0.00  0.00    +0.000 A 
ATOM     24  C   UNL     1      46.335   5.869  12.461  0.00  0.00    +0.000 A 
BRANCH  21  25
ATOM     25  C   UNL     1      43.876   2.824  10.784  0.00  0.00    +0.000 C 
ATOM     26  O   UNL     1      43.973   2.439   9.632  0.00  0.00    +0.000 OA
BRANCH  25  27
ATOM     27  O   UNL     1      43.022   2.277  11.673  0.00  0.00    +0.000 OA
ATOM     28  H   UNL     1      42.103   2.597  11.615  0.00  0.00    +0.000 HD
ENDBRANCH  25  27
ENDBRANCH  21  25
ENDBRANCH  15  16
ENDBRANCH   4  15
TORSDOF 9
ENDMDL
MODEL 9
REMARK VINA RESULT:    -5.544      3.213      8.435
REMARK INTER + INTRA:          -9.003
REMARK INTER:                  -7.775
REMARK INTRA:                  -1.228
REMARK UNBOUND:                -0.705
REMARK  Name = 
REMARK  12 active torsions:
REMARK  status: ('A' for Active; 'I' for Inactive)
REMARK    1  A    between atoms: C_1  and  C_2
REMARK    2  A    between atoms: C_2  and  C_3
REMARK    3  A    between atoms: C_2  and  C_4
REMARK    4  A    between atoms: C_2  and  O_5
REMARK    5  A    between atoms: O_5  and  C_6
REMARK    6  A    between atoms: C_6  and  C_7
REMARK    7  A    between atoms: C_7  and  C_8
REMARK    8  A    between atoms: C_8  and  N_9
REMARK    9  A    between atoms: C_12  and  C_13
REMARK   10  A    between atoms: C_13  and  N_14
REMARK   11  A    between atoms: C_19  and  C_20
REMARK   12  A    between atoms: C_20  and  O_22
REMARK                            x       y       z     vdW  Elec       q    Type
REMARK                         _______ _______ _______ _____ _____    ______ ____
ROOT
ATOM      1  N   UNL     1      47.336   7.739  11.742  0.00  0.00    +0.000 NA
ATOM      2  C   UNL     1      47.252   9.125  12.221  0.00  0.00    +0.000 C 
ATOM      3  C   UNL     1      48.577   9.859  12.018  0.00  0.00    +0.000 C 
ATOM      4  C   UNL     1      49.723   9.164  12.757  0.00  0.00    +0.000 C 
ATOM      5  C   UNL     1      49.792   7.719  12.235  0.00  0.00    +0.000 C 
ATOM      6  C   UNL     1      48.446   6.990  12.350  0.00  0.00    +0.000 C 
ENDROOT
BRANCH   1   7
ATOM      7  C   UNL     1      46.068   7.007  11.951  0.00  0.00    +0.000 C 
BRANCH   7   8
ATOM      8  C   UNL     1      46.003   6.173  13.238  0.00  0.00    +0.000 C 
BRANCH   8   9
ATOM      9  C   UNL     1      45.228   4.872  13.064  0.00  0.00    +0.000 C 
BRANCH   9  10
ATOM     10  O   UNL     1      45.181   4.535  11.681  0.00  0.00    +0.000 OA
BRANCH  10  12
ATOM     11  C   UNL     1      42.862   5.295  11.382  0.00  0.00    +0.000 C 
ATOM     12  C   UNL     1      43.894   4.186  11.150  0.00  0.00    +0.000 C 
ATOM     13  C   UNL     1      43.408   2.847  11.721  0.00  0.00    +0.000 C 
ATOM     14  C   UNL     1      44.104   4.030   9.636  0.00  0.00    +0.000 C 
ENDBRANCH  10  12
ENDBRANCH   9  10
ENDBRANCH   8   9
ENDBRANCH   7   8
ENDBRANCH   1   7
BRANCH   4  15
ATOM     15  C   UNL     1      49.579   9.186  14.295  0.00  0.00    +0.000 C 
BRANCH  15  16
ATOM     16  N   UNL     1      50.389   8.206  14.999  0.00  0.00    +0.000 N 
ATOM     17  N   UNL     1      51.720   8.417  15.091  0.00  0.00    +0.000 NA
ATOM     18  C   UNL     1      52.151   7.408  15.849  0.00  0.00    +0.000 A 
ATOM     19  C   UNL     1      51.104   6.567  16.276  0.00  0.00    +0.000 A 
ATOM     20  C   UNL     1      51.008   5.422  17.085  0.00  0.00    +0.000 A 
ATOM     21  C   UNL     1      49.744   4.846  17.297  0.00  0.00    +0.000 A 
ATOM     22  C   UNL     1      48.605   5.382  16.682  0.00  0.00    +0.000 A 
ATOM     23  C   UNL     1      48.689   6.525  15.873  0.00  0.00    +0.000 A 
ATOM     24  C   UNL     1      49.956   7.102  15.696  0.00  0.00    +0.000 A 
BRANCH  21  25
ATOM     25  C   UNL     1      49.681   3.640  18.160  0.00  0.00    +0.000 C 
ATOM     26  O   UNL     1      49.996   2.530  17.768  0.00  0.00    +0.000 OA
BRANCH  25  27
ATOM     27  O   UNL     1      49.285   3.889  19.425  0.00  0.00    +0.000 OA
ATOM     28  H   UNL     1      49.554   3.220  20.081  0.00  0.00    +0.000 HD
ENDBRANCH  25  27
ENDBRANCH  21  25
ENDBRANCH  15  16
ENDBRANCH   4  15
TORSDOF 9
ENDMDL
