MODEL 1
REMARK VINA RESULT:    -8.791      0.000      0.000
REMARK INTER + INTRA:         -13.085
REMARK INTER:                 -12.388
REMARK INTRA:                  -0.697
REMARK UNBOUND:                -0.697
REMARK  Name = 
REMARK  7 active torsions:
REMARK  status: ('A' for Active; 'I' for Inactive)
REMARK    1  A    between atoms: C_2  and  C_4
REMARK    2  A    between atoms: C_7  and  N_8
REMARK    3  A    between atoms: N_8  and  C_9
REMARK    4  A    between atoms: C_9  and  C_10
REMARK    5  A    between atoms: C_10  and  C_12
REMARK    6  A    between atoms: C_16  and  C_17
REMARK    7  A    between atoms: C_17  and  C_18
REMARK                            x       y       z     vdW  Elec       q    Type
REMARK                         _______ _______ _______ _____ _____    ______ ____
ROOT
ATOM      1  C   UNL     1      43.226   4.178  11.319  0.00  0.00    +0.000 C 
ENDROOT
BRANCH   1   2
ATOM      2  N   UNL     1      43.688   4.654  10.000  0.00  0.00    +0.000 N 
ATOM      3  H   UNL     1      42.901   4.914   9.404  0.00  0.00    +0.000 HD
BRANCH   2   7
ATOM      4  C   UNL     1      46.366   2.290   7.861  0.00  0.00    +0.000 A 
ATOM      5  C   UNL     1      46.401   3.658   7.641  0.00  0.00    +0.000 A 
ATOM      6  C   UNL     1      45.528   4.470   8.367  0.00  0.00    +0.000 A 
ATOM      7  C   UNL     1      44.658   3.917   9.312  0.00  0.00    +0.000 A 
ATOM      8  C   UNL     1      44.693   2.520   9.423  0.00  0.00    +0.000 A 
ATOM      9  N   UNL     1      45.523   1.690   8.740  0.00  0.00    +0.000 NA
BRANCH   4  11
ATOM     10  N   UNL     1      48.353   2.008   6.508  0.00  0.00    +0.000 N 
ATOM     11  C   UNL     1      47.271   1.392   7.071  0.00  0.00    +0.000 C 
ATOM     12  O   UNL     1      47.067   0.193   6.941  0.00  0.00    +0.000 OA
ATOM     13  H   UNL     1      49.033   1.458   6.000  0.00  0.00    +0.000 HD
ATOM     14  H   UNL     1      48.506   2.996   6.671  0.00  0.00    +0.000 HD
ENDBRANCH   4  11
ENDBRANCH   2   7
ENDBRANCH   1   2
BRANCH   1  15
ATOM     15  C   UNL     1      43.375   5.278  12.389  0.00  0.00    +0.000 C 
ATOM     16  F   UNL     1      42.568   4.941  13.448  0.00  0.00    +0.000 F 
BRANCH  15  17
ATOM     17  C   UNL     1      44.819   5.488  12.802  0.00  0.00    +0.000 A 
ATOM     18  C   UNL     1      45.558   6.516  12.227  0.00  0.00    +0.000 A 
ATOM     19  C   UNL     1      46.910   6.620  12.533  0.00  0.00    +0.000 A 
ATOM     20  C   UNL     1      47.493   5.697  13.399  0.00  0.00    +0.000 A 
ATOM     21  C   UNL     1      46.699   4.704  13.959  0.00  0.00    +0.000 A 
ATOM     22  N   UNL     1      45.378   4.594  13.661  0.00  0.00    +0.000 NA
BRANCH  21  23
ATOM     23  C   UNL     1      47.284   3.583  14.777  0.00  0.00    +0.000 C 
BRANCH  23  24
ATOM     24  C   UNL     1      47.536   3.866  16.252  0.00  0.00    +0.000 C 
ATOM     25  C   UNL     1      48.717   3.301  17.057  0.00  0.00    +0.000 C 
ATOM     26  C   UNL     1      47.667   3.173  18.168  0.00  0.00    +0.000 C 
ATOM     27  O   UNL     1      46.599   3.215  17.170  0.00  0.00    +0.000 OA
ENDBRANCH  23  24
ENDBRANCH  21  23
ENDBRANCH  15  17
ENDBRANCH   1  15
TORSDOF 7
ENDMDL
MODEL 2
REMARK VINA RESULT:    -8.287      2.734      4.465
REMARK INTER + INTRA:         -12.375
REMARK INTER:                 -11.437
REMARK INTRA:                  -0.938
REMARK UNBOUND:                -0.697
REMARK  Name = 
REMARK  7 active torsions:
REMARK  status: ('A' for Active; 'I' for Inactive)
REMARK    1  A    between atoms: C_2  and  C_4
REMARK    2  A    between atoms: C_7  and  N_8
REMARK    3  A    between atoms: N_8  and  C_9
REMARK    4  A    between atoms: C_9  and  C_10
REMARK    5  A    between atoms: C_10  and  C_12
REMARK    6  A    between atoms: C_16  and  C_17
REMARK    7  A    between atoms: C_17  and  C_18
REMARK                            x       y       z     vdW  Elec       q    Type
REMARK                         _______ _______ _______ _____ _____    ______ ____
ROOT
ATOM      1  C   UNL     1      43.164   4.109  11.298  0.00  0.00    +0.000 C 
ENDROOT
BRANCH   1   2
ATOM      2  N   UNL     1      43.865   4.755  10.171  0.00  0.00    +0.000 N 
ATOM      3  H   UNL     1      43.241   5.375   9.654  0.00  0.00    +0.000 HD
BRANCH   2   7
ATOM      4  C   UNL     1      46.457   2.581   7.744  0.00  0.00    +0.000 A 
ATOM      5  C   UNL     1      45.626   1.868   8.595  0.00  0.00    +0.000 A 
ATOM      6  C   UNL     1      44.732   2.579   9.398  0.00  0.00    +0.000 A 
ATOM      7  C   UNL     1      44.661   3.973   9.326  0.00  0.00    +0.000 A 
ATOM      8  C   UNL     1      45.572   4.582   8.452  0.00  0.00    +0.000 A 
ATOM      9  N   UNL     1      46.458   3.935   7.652  0.00  0.00    +0.000 NA
BRANCH   4  11
ATOM     10  N   UNL     1      48.494   2.596   6.436  0.00  0.00    +0.000 N 
ATOM     11  C   UNL     1      47.449   1.844   6.894  0.00  0.00    +0.000 C 
ATOM     12  O   UNL     1      47.343   0.655   6.631  0.00  0.00    +0.000 OA
ATOM     13  H   UNL     1      49.227   2.157   5.895  0.00  0.00    +0.000 HD
ATOM     14  H   UNL     1      48.565   3.570   6.707  0.00  0.00    +0.000 HD
ENDBRANCH   4  11
ENDBRANCH   2   7
ENDBRANCH   1   2
BRANCH   1  15
ATOM     15  C   UNL     1      43.271   4.961  12.579  0.00  0.00    +0.000 C 
ATOM     16  F   UNL     1      42.960   4.153  13.645  0.00  0.00    +0.000 F 
BRANCH  15  17
ATOM     17  C   UNL     1      44.631   5.616  12.724  0.00  0.00    +0.000 A 
ATOM     18  C   UNL     1      45.683   4.903  13.288  0.00  0.00    +0.000 A 
ATOM     19  C   UNL     1      46.888   5.558  13.518  0.00  0.00    +0.000 A 
ATOM     20  C   UNL     1      47.014   6.906  13.186  0.00  0.00    +0.000 A 
ATOM     21  C   UNL     1      45.934   7.559  12.605  0.00  0.00    +0.000 A 
ATOM     22  N   UNL     1      44.753   6.928  12.382  0.00  0.00    +0.000 NA
BRANCH  21  23
ATOM     23  C   UNL     1      45.941   9.046  12.362  0.00  0.00    +0.000 C 
BRANCH  23  24
ATOM     24  C   UNL     1      44.604   9.693  12.023  0.00  0.00    +0.000 C 
ATOM     25  C   UNL     1      44.006   9.764  10.609  0.00  0.00    +0.000 C 
ATOM     26  C   UNL     1      43.570  11.165  11.057  0.00  0.00    +0.000 C 
ATOM     27  O   UNL     1      44.594  11.156  12.100  0.00  0.00    +0.000 OA
ENDBRANCH  23  24
ENDBRANCH  21  23
ENDBRANCH  15  17
ENDBRANCH   1  15
TORSDOF 7
ENDMDL
MODEL 3
REMARK VINA RESULT:    -7.852      2.428      3.629
REMARK INTER + INTRA:         -11.762
REMARK INTER:                 -10.799
REMARK INTRA:                  -0.963
REMARK UNBOUND:                -0.697
REMARK  Name = 
REMARK  7 active torsions:
REMARK  status: ('A' for Active; 'I' for Inactive)
REMARK    1  A    between atoms: C_2  and  C_4
REMARK    2  A    between atoms: C_7  and  N_8
REMARK    3  A    between atoms: N_8  and  C_9
REMARK    4  A    between atoms: C_9  and  C_10
REMARK    5  A    between atoms: C_10  and  C_12
REMARK    6  A    between atoms: C_16  and  C_17
REMARK    7  A    between atoms: C_17  and  C_18
REMARK                            x       y       z     vdW  Elec       q    Type
REMARK                         _______ _______ _______ _____ _____    ______ ____
ROOT
ATOM      1  C   UNL     1      43.046   4.299  11.192  0.00  0.00    +0.000 C 
ENDROOT
BRANCH   1   2
ATOM      2  N   UNL     1      43.823   4.856  10.067  0.00  0.00    +0.000 N 
ATOM      3  H   UNL     1      43.224   5.377   9.425  0.00  0.00    +0.000 HD
BRANCH   2   7
ATOM      4  C   UNL     1      46.316   2.235   8.003  0.00  0.00    +0.000 A 
ATOM      5  C   UNL     1      46.384   3.580   7.672  0.00  0.00    +0.000 A 
ATOM      6  C   UNL     1      45.574   4.478   8.371  0.00  0.00    +0.000 A 
ATOM      7  C   UNL     1      44.734   4.032   9.396  0.00  0.00    +0.000 A 
ATOM      8  C   UNL     1      44.730   2.648   9.617  0.00  0.00    +0.000 A 
ATOM      9  N   UNL     1      45.498   1.737   8.966  0.00  0.00    +0.000 NA
BRANCH   4  11
ATOM     10  N   UNL     1      48.169   1.787   6.513  0.00  0.00    +0.000 N 
ATOM     11  C   UNL     1      47.152   1.246   7.247  0.00  0.00    +0.000 C 
ATOM     12  O   UNL     1      46.950   0.041   7.285  0.00  0.00    +0.000 OA
ATOM     13  H   UNL     1      48.804   1.178   6.013  0.00  0.00    +0.000 HD
ATOM     14  H   UNL     1      48.327   2.788   6.538  0.00  0.00    +0.000 HD
ENDBRANCH   4  11
ENDBRANCH   2   7
ENDBRANCH   1   2
BRANCH   1  15
ATOM     15  C   UNL     1      43.247   5.136  12.471  0.00  0.00    +0.000 C 
ATOM     16  F   UNL     1      42.659   4.457  13.510  0.00  0.00    +0.000 F 
BRANCH  15  17
ATOM     17  C   UNL     1      44.708   5.448  12.733  0.00  0.00    +0.000 A 
ATOM     18  C   UNL     1      45.533   4.473  13.285  0.00  0.00    +0.000 A 
ATOM     19  C   UNL     1      46.837   4.814  13.625  0.00  0.00    +0.000 A 
ATOM     20  C   UNL     1      47.286   6.116  13.412  0.00  0.00    +0.000 A 
ATOM     21  C   UNL     1      46.422   7.041  12.837  0.00  0.00    +0.000 A 
ATOM     22  N   UNL     1      45.146   6.716  12.507  0.00  0.00    +0.000 NA
BRANCH  21  23
ATOM     23  C   UNL     1      46.781   8.499  12.719  0.00  0.00    +0.000 C 
BRANCH  23  24
ATOM     24  C   UNL     1      48.255   8.831  12.520  0.00  0.00    +0.000 C 
ATOM     25  C   UNL     1      49.068   9.760  13.435  0.00  0.00    +0.000 C 
ATOM     26  C   UNL     1      49.694  10.220  12.112  0.00  0.00    +0.000 C 
ATOM     27  O   UNL     1      48.537   9.705  11.380  0.00  0.00    +0.000 OA
ENDBRANCH  23  24
ENDBRANCH  21  23
ENDBRANCH  15  17
ENDBRANCH   1  15
TORSDOF 7
ENDMDL
MODEL 4
REMARK VINA RESULT:    -7.513      2.156      7.476
REMARK INTER + INTRA:         -11.285
REMARK INTER:                 -10.381
REMARK INTRA:                  -0.904
REMARK UNBOUND:                -0.697
REMARK  Name = 
REMARK  7 active torsions:
REMARK  status: ('A' for Active; 'I' for Inactive)
REMARK    1  A    between atoms: C_2  and  C_4
REMARK    2  A    between atoms: C_7  and  N_8
REMARK    3  A    between atoms: N_8  and  C_9
REMARK    4  A    between atoms: C_9  and  C_10
REMARK    5  A    between atoms: C_10  and  C_12
REMARK    6  A    between atoms: C_16  and  C_17
REMARK    7  A    between atoms: C_17  and  C_18
REMARK                            x       y       z     vdW  Elec       q    Type
REMARK                         _______ _______ _______ _____ _____    ______ ____
ROOT
ATOM      1  C   UNL     1      45.898   6.955  12.541  0.00  0.00    +0.000 C 
ENDROOT
BRANCH   1   2
ATOM      2  N   UNL     1      47.303   6.662  12.888  0.00  0.00    +0.000 N 
ATOM      3  H   UNL     1      47.839   6.392  12.062  0.00  0.00    +0.000 HD
BRANCH   2   7
ATOM      4  C   UNL     1      48.056   4.456  16.338  0.00  0.00    +0.000 A 
ATOM      5  C   UNL     1      47.168   3.922  15.416  0.00  0.00    +0.000 A 
ATOM      6  C   UNL     1      46.922   4.636  14.242  0.00  0.00    +0.000 A 
ATOM      7  C   UNL     1      47.576   5.845  13.991  0.00  0.00    +0.000 A 
ATOM      8  C   UNL     1      48.426   6.297  15.010  0.00  0.00    +0.000 A 
ATOM      9  N   UNL     1      48.698   5.640  16.167  0.00  0.00    +0.000 NA
BRANCH   4  11
ATOM     10  N   UNL     1      47.295   2.921  18.048  0.00  0.00    +0.000 N 
ATOM     11  C   UNL     1      48.314   3.726  17.622  0.00  0.00    +0.000 C 
ATOM     12  O   UNL     1      49.360   3.830  18.246  0.00  0.00    +0.000 OA
ATOM     13  H   UNL     1      47.414   2.361  18.882  0.00  0.00    +0.000 HD
ATOM     14  H   UNL     1      46.459   2.833  17.482  0.00  0.00    +0.000 HD
ENDBRANCH   4  11
ENDBRANCH   2   7
ENDBRANCH   1   2
BRANCH   1  15
ATOM     15  C   UNL     1      45.547   6.409  11.143  0.00  0.00    +0.000 C 
ATOM     16  F   UNL     1      46.720   6.268  10.443  0.00  0.00    +0.000 F 
BRANCH  15  17
ATOM     17  C   UNL     1      44.752   5.119  11.210  0.00  0.00    +0.000 A 
ATOM     18  C   UNL     1      44.045   4.804  12.365  0.00  0.00    +0.000 A 
ATOM     19  C   UNL     1      43.419   3.566  12.450  0.00  0.00    +0.000 A 
ATOM     20  C   UNL     1      43.517   2.670  11.387  0.00  0.00    +0.000 A 
ATOM     21  C   UNL     1      44.220   3.050  10.250  0.00  0.00    +0.000 A 
ATOM     22  N   UNL     1      44.838   4.256  10.162  0.00  0.00    +0.000 NA
BRANCH  21  23
ATOM     23  C   UNL     1      44.500   2.084   9.128  0.00  0.00    +0.000 C 
BRANCH  23  24
ATOM     24  C   UNL     1      45.929   2.038   8.601  0.00  0.00    +0.000 C 
ATOM     25  C   UNL     1      46.383   2.649   7.266  0.00  0.00    +0.000 C 
ATOM     26  C   UNL     1      47.250   1.386   7.188  0.00  0.00    +0.000 C 
ATOM     27  O   UNL     1      46.372   0.718   8.147  0.00  0.00    +0.000 OA
ENDBRANCH  23  24
ENDBRANCH  21  23
ENDBRANCH  15  17
ENDBRANCH   1  15
TORSDOF 7
ENDMDL
MODEL 5
REMARK VINA RESULT:    -7.454      1.664      2.288
REMARK INTER + INTRA:         -11.201
REMARK INTER:                 -10.754
REMARK INTRA:                  -0.446
REMARK UNBOUND:                -0.697
REMARK  Name = 
REMARK  7 active torsions:
REMARK  status: ('A' for Active; 'I' for Inactive)
REMARK    1  A    between atoms: C_2  and  C_4
REMARK    2  A    between atoms: C_7  and  N_8
REMARK    3  A    between atoms: N_8  and  C_9
REMARK    4  A    between atoms: C_9  and  C_10
REMARK    5  A    between atoms: C_10  and  C_12
REMARK    6  A    between atoms: C_16  and  C_17
REMARK    7  A    between atoms: C_17  and  C_18
REMARK                            x       y       z     vdW  Elec       q    Type
REMARK                         _______ _______ _______ _____ _____    ______ ____
ROOT
ATOM      1  C   UNL     1      44.946   4.198  12.478  0.00  0.00    +0.000 C 
ENDROOT
BRANCH   1   2
ATOM      2  N   UNL     1      44.169   4.225  11.223  0.00  0.00    +0.000 N 
ATOM      3  H   UNL     1      43.217   3.886  11.369  0.00  0.00    +0.000 HD
BRANCH   2   7
ATOM      4  C   UNL     1      46.109   2.864   7.799  0.00  0.00    +0.000 A 
ATOM      5  C   UNL     1      45.616   1.912   8.678  0.00  0.00    +0.000 A 
ATOM      6  C   UNL     1      44.941   2.349   9.819  0.00  0.00    +0.000 A 
ATOM      7  C   UNL     1      44.744   3.713  10.054  0.00  0.00    +0.000 A 
ATOM      8  C   UNL     1      45.314   4.578   9.110  0.00  0.00    +0.000 A 
ATOM      9  N   UNL     1      45.978   4.202   7.987  0.00  0.00    +0.000 NA
BRANCH   4  11
ATOM     10  N   UNL     1      47.098   3.400   5.656  0.00  0.00    +0.000 N 
ATOM     11  C   UNL     1      46.866   2.423   6.582  0.00  0.00    +0.000 C 
ATOM     12  O   UNL     1      47.258   1.275   6.425  0.00  0.00    +0.000 OA
ATOM     13  H   UNL     1      47.644   3.188   4.831  0.00  0.00    +0.000 HD
ATOM     14  H   UNL     1      46.790   4.347   5.841  0.00  0.00    +0.000 HD
ENDBRANCH   4  11
ENDBRANCH   2   7
ENDBRANCH   1   2
BRANCH   1  15
ATOM     15  C   UNL     1      46.178   5.120  12.387  0.00  0.00    +0.000 C 
ATOM     16  F   UNL     1      45.768   6.312  11.842  0.00  0.00    +0.000 F 
BRANCH  15  17
ATOM     17  C   UNL     1      46.864   5.300  13.727  0.00  0.00    +0.000 A 
ATOM     18  C   UNL     1      47.781   6.331  13.900  0.00  0.00    +0.000 A 
ATOM     19  C   UNL     1      48.484   6.408  15.098  0.00  0.00    +0.000 A 
ATOM     20  C   UNL     1      48.260   5.455  16.090  0.00  0.00    +0.000 A 
ATOM     21  C   UNL     1      47.316   4.461  15.867  0.00  0.00    +0.000 A 
ATOM     22  N   UNL     1      46.629   4.376  14.699  0.00  0.00    +0.000 NA
BRANCH  21  23
ATOM     23  C   UNL     1      47.130   3.311  16.823  0.00  0.00    +0.000 C 
BRANCH  23  24
ATOM     24  C   UNL     1      48.364   2.477  17.143  0.00  0.00    +0.000 C 
ATOM     25  C   UNL     1      49.653   3.034  17.766  0.00  0.00    +0.000 C 
ATOM     26  C   UNL     1      50.331   2.061  16.793  0.00  0.00    +0.000 C 
ATOM     27  O   UNL     1      49.122   2.031  15.972  0.00  0.00    +0.000 OA
ENDBRANCH  23  24
ENDBRANCH  21  23
ENDBRANCH  15  17
ENDBRANCH   1  15
TORSDOF 7
ENDMDL
MODEL 6
REMARK VINA RESULT:    -7.144      3.217      4.897
REMARK INTER + INTRA:         -10.764
REMARK INTER:                  -9.727
REMARK INTRA:                  -1.037
REMARK UNBOUND:                -0.697
REMARK  Name = 
REMARK  7 active torsions:
REMARK  status: ('A' for Active; 'I' for Inactive)
REMARK    1  A    between atoms: C_2  and  C_4
REMARK    2  A    between atoms: C_7  and  N_8
REMARK    3  A    between atoms: N_8  and  C_9
REMARK    4  A    between atoms: C_9  and  C_10
REMARK    5  A    between atoms: C_10  and  C_12
REMARK    6  A    between atoms: C_16  and  C_17
REMARK    7  A    between atoms: C_17  and  C_18
REMARK                            x       y       z     vdW  Elec       q    Type
REMARK                         _______ _______ _______ _____ _____    ______ ____
ROOT
ATOM      1  C   UNL     1      48.653   7.010  13.373  0.00  0.00    +0.000 C 
ENDROOT
BRANCH   1   2
ATOM      2  N   UNL     1      47.196   6.880  13.573  0.00  0.00    +0.000 N 
ATOM      3  H   UNL     1      46.958   6.883  14.566  0.00  0.00    +0.000 HD
BRANCH   2   7
ATOM      4  C   UNL     1      44.921   3.965  11.660  0.00  0.00    +0.000 A 
ATOM      5  C   UNL     1      45.257   5.096  10.932  0.00  0.00    +0.000 A 
ATOM      6  C   UNL     1      46.041   6.073  11.549  0.00  0.00    +0.000 A 
ATOM      7  C   UNL     1      46.496   5.901  12.859  0.00  0.00    +0.000 A 
ATOM      8  C   UNL     1      46.065   4.732  13.501  0.00  0.00    +0.000 A 
ATOM      9  N   UNL     1      45.305   3.754  12.945  0.00  0.00    +0.000 NA
BRANCH   4  11
ATOM     10  N   UNL     1      44.612   2.257   9.973  0.00  0.00    +0.000 N 
ATOM     11  C   UNL     1      44.053   2.915  11.032  0.00  0.00    +0.000 C 
ATOM     12  O   UNL     1      42.929   2.654  11.436  0.00  0.00    +0.000 OA
ATOM     13  H   UNL     1      44.104   1.503   9.528  0.00  0.00    +0.000 HD
ATOM     14  H   UNL     1      45.560   2.476   9.692  0.00  0.00    +0.000 HD
ENDBRANCH   4  11
ENDBRANCH   2   7
ENDBRANCH   1   2
BRANCH   1  15
ATOM     15  C   UNL     1      49.350   7.486  14.663  0.00  0.00    +0.000 C 
ATOM     16  F   UNL     1      49.226   8.852  14.724  0.00  0.00    +0.000 F 
BRANCH  15  17
ATOM     17  C   UNL     1      48.806   6.797  15.900  0.00  0.00    +0.000 A 
ATOM     18  C   UNL     1      48.734   7.493  17.102  0.00  0.00    +0.000 A 
ATOM     19  C   UNL     1      48.342   6.811  18.248  0.00  0.00    +0.000 A 
ATOM     20  C   UNL     1      48.037   5.453  18.170  0.00  0.00    +0.000 A 
ATOM     21  C   UNL     1      48.106   4.817  16.937  0.00  0.00    +0.000 A 
ATOM     22  N   UNL     1      48.492   5.476  15.815  0.00  0.00    +0.000 NA
BRANCH  21  23
ATOM     23  C   UNL     1      47.942   3.326  16.801  0.00  0.00    +0.000 C 
BRANCH  23  24
ATOM     24  C   UNL     1      49.103   2.460  17.272  0.00  0.00    +0.000 C 
ATOM     25  C   UNL     1      50.473   3.004  17.708  0.00  0.00    +0.000 C 
ATOM     26  C   UNL     1      50.999   1.765  16.973  0.00  0.00    +0.000 C 
ATOM     27  O   UNL     1      49.751   1.676  16.218  0.00  0.00    +0.000 OA
ENDBRANCH  23  24
ENDBRANCH  21  23
ENDBRANCH  15  17
ENDBRANCH   1  15
TORSDOF 7
ENDMDL
MODEL 7
REMARK VINA RESULT:    -6.537      3.379      4.920
REMARK INTER + INTRA:          -9.908
REMARK INTER:                  -8.859
REMARK INTRA:                  -1.049
REMARK UNBOUND:                -0.697
REMARK  Name = 
REMARK  7 active torsions:
REMARK  status: ('A' for Active; 'I' for Inactive)
REMARK    1  A    between atoms: C_2  and  C_4
REMARK    2  A    between atoms: C_7  and  N_8
REMARK    3  A    between atoms: N_8  and  C_9
REMARK    4  A    between atoms: C_9  and  C_10
REMARK    5  A    between atoms: C_10  and  C_12
REMARK    6  A    between atoms: C_16  and  C_17
REMARK    7  A    between atoms: C_17  and  C_18
REMARK                            x       y       z     vdW  Elec       q    Type
REMARK                         _______ _______ _______ _____ _____    ______ ____
ROOT
ATOM      1  C   UNL     1      47.700   7.949  12.870  0.00  0.00    +0.000 C 
ENDROOT
BRANCH   1   2
ATOM      2  N   UNL     1      46.855   6.993  13.613  0.00  0.00    +0.000 N 
ATOM      3  H   UNL     1      47.320   6.672  14.463  0.00  0.00    +0.000 HD
BRANCH   2   7
ATOM      4  C   UNL     1      44.801   3.895  11.736  0.00  0.00    +0.000 A 
ATOM      5  C   UNL     1      45.181   4.977  10.957  0.00  0.00    +0.000 A 
ATOM      6  C   UNL     1      45.893   6.014  11.564  0.00  0.00    +0.000 A 
ATOM      7  C   UNL     1      46.235   5.949  12.917  0.00  0.00    +0.000 A 
ATOM      8  C   UNL     1      45.769   4.820  13.606  0.00  0.00    +0.000 A 
ATOM      9  N   UNL     1      45.076   3.788  13.062  0.00  0.00    +0.000 NA
BRANCH   4  11
ATOM     10  N   UNL     1      44.500   2.308   9.934  0.00  0.00    +0.000 N 
ATOM     11  C   UNL     1      44.009   2.782  11.118  0.00  0.00    +0.000 C 
ATOM     12  O   UNL     1      42.999   2.322  11.631  0.00  0.00    +0.000 OA
ATOM     13  H   UNL     1      44.044   1.526   9.481  0.00  0.00    +0.000 HD
ATOM     14  H   UNL     1      45.360   2.690   9.561  0.00  0.00    +0.000 HD
ENDBRANCH   4  11
ENDBRANCH   2   7
ENDBRANCH   1   2
BRANCH   1  15
ATOM     15  C   UNL     1      49.136   7.411  12.709  0.00  0.00    +0.000 C 
ATOM     16  F   UNL     1      49.744   8.136  11.714  0.00  0.00    +0.000 F 
BRANCH  15  17
ATOM     17  C   UNL     1      49.914   7.445  14.011  0.00  0.00    +0.000 A 
ATOM     18  C   UNL     1      51.107   8.155  14.083  0.00  0.00    +0.000 A 
ATOM     19  C   UNL     1      51.862   8.079  15.248  0.00  0.00    +0.000 A 
ATOM     20  C   UNL     1      51.414   7.295  16.309  0.00  0.00    +0.000 A 
ATOM     21  C   UNL     1      50.202   6.625  16.186  0.00  0.00    +0.000 A 
ATOM     22  N   UNL     1      49.462   6.692  15.050  0.00  0.00    +0.000 NA
BRANCH  21  23
ATOM     23  C   UNL     1      49.728   5.641  17.223  0.00  0.00    +0.000 C 
BRANCH  23  24
ATOM     24  C   UNL     1      48.457   4.865  16.904  0.00  0.00    +0.000 C 
ATOM     25  C   UNL     1      47.338   4.574  17.917  0.00  0.00    +0.000 C 
ATOM     26  C   UNL     1      47.294   3.214  17.208  0.00  0.00    +0.000 C 
ATOM     27  O   UNL     1      48.651   3.426  16.706  0.00  0.00    +0.000 OA
ENDBRANCH  23  24
ENDBRANCH  21  23
ENDBRANCH  15  17
ENDBRANCH   1  15
TORSDOF 7
ENDMDL
MODEL 8
REMARK VINA RESULT:    -6.170      3.294      5.551
REMARK INTER + INTRA:          -9.391
REMARK INTER:                  -8.201
REMARK INTRA:                  -1.190
REMARK UNBOUND:                -0.697
REMARK  Name = 
REMARK  7 active torsions:
REMARK  status: ('A' for Active; 'I' for Inactive)
REMARK    1  A    between atoms: C_2  and  C_4
REMARK    2  A    between atoms: C_7  and  N_8
REMARK    3  A    between atoms: N_8  and  C_9
REMARK    4  A    between atoms: C_9  and  C_10
REMARK    5  A    between atoms: C_10  and  C_12
REMARK    6  A    between atoms: C_16  and  C_17
REMARK    7  A    between atoms: C_17  and  C_18
REMARK                            x       y       z     vdW  Elec       q    Type
REMARK                         _______ _______ _______ _____ _____    ______ ____
ROOT
ATOM      1  C   UNL     1      47.180   3.775  15.381  0.00  0.00    +0.000 C 
ENDROOT
BRANCH   1   2
ATOM      2  N   UNL     1      46.271   4.770  14.780  0.00  0.00    +0.000 N 
ATOM      3  H   UNL     1      45.381   4.808  15.280  0.00  0.00    +0.000 HD
BRANCH   2   7
ATOM      4  C   UNL     1      45.508   4.715  10.687  0.00  0.00    +0.000 A 
ATOM      5  C   UNL     1      45.974   5.899  11.236  0.00  0.00    +0.000 A 
ATOM      6  C   UNL     1      46.260   5.930  12.603  0.00  0.00    +0.000 A 
ATOM      7  C   UNL     1      46.102   4.786  13.390  0.00  0.00    +0.000 A 
ATOM      8  C   UNL     1      45.596   3.659  12.728  0.00  0.00    +0.000 A 
ATOM      9  N   UNL     1      45.304   3.580  11.404  0.00  0.00    +0.000 NA
BRANCH   4  11
ATOM     10  N   UNL     1      43.857   4.375   8.950  0.00  0.00    +0.000 N 
ATOM     11  C   UNL     1      45.163   4.664   9.228  0.00  0.00    +0.000 C 
ATOM     12  O   UNL     1      45.982   4.872   8.345  0.00  0.00    +0.000 OA
ATOM     13  H   UNL     1      43.539   4.369   7.989  0.00  0.00    +0.000 HD
ATOM     14  H   UNL     1      43.200   4.246   9.710  0.00  0.00    +0.000 HD
ENDBRANCH   4  11
ENDBRANCH   2   7
ENDBRANCH   1   2
BRANCH   1  15
ATOM     15  C   UNL     1      47.691   4.251  16.756  0.00  0.00    +0.000 C 
ATOM     16  F   UNL     1      47.817   3.144  17.560  0.00  0.00    +0.000 F 
BRANCH  15  17
ATOM     17  C   UNL     1      48.980   5.042  16.650  0.00  0.00    +0.000 A 
ATOM     18  C   UNL     1      50.026   4.776  17.527  0.00  0.00    +0.000 A 
ATOM     19  C   UNL     1      51.154   5.588  17.490  0.00  0.00    +0.000 A 
ATOM     20  C   UNL     1      51.210   6.647  16.585  0.00  0.00    +0.000 A 
ATOM     21  C   UNL     1      50.143   6.850  15.719  0.00  0.00    +0.000 A 
ATOM     22  N   UNL     1      49.036   6.063  15.753  0.00  0.00    +0.000 NA
BRANCH  21  23
ATOM     23  C   UNL     1      50.062   8.059  14.825  0.00  0.00    +0.000 C 
BRANCH  23  24
ATOM     24  C   UNL     1      49.192   7.937  13.580  0.00  0.00    +0.000 C 
ATOM     25  C   UNL     1      49.702   7.487  12.203  0.00  0.00    +0.000 C 
ATOM     26  C   UNL     1      48.744   8.570  11.692  0.00  0.00    +0.000 C 
ATOM     27  O   UNL     1      48.764   9.214  13.004  0.00  0.00    +0.000 OA
ENDBRANCH  23  24
ENDBRANCH  21  23
ENDBRANCH  15  17
ENDBRANCH   1  15
TORSDOF 7
ENDMDL
MODEL 9
REMARK VINA RESULT:    -6.137      2.698      7.690
REMARK INTER + INTRA:          -9.344
REMARK INTER:                  -8.702
REMARK INTRA:                  -0.643
REMARK UNBOUND:                -0.697
REMARK  Name = 
REMARK  7 active torsions:
REMARK  status: ('A' for Active; 'I' for Inactive)
REMARK    1  A    between atoms: C_2  and  C_4
REMARK    2  A    between atoms: C_7  and  N_8
REMARK    3  A    between atoms: N_8  and  C_9
REMARK    4  A    between atoms: C_9  and  C_10
REMARK    5  A    between atoms: C_10  and  C_12
REMARK    6  A    between atoms: C_16  and  C_17
REMARK    7  A    between atoms: C_17  and  C_18
REMARK                            x       y       z     vdW  Elec       q    Type
REMARK                         _______ _______ _______ _____ _____    ______ ____
ROOT
ATOM      1  C   UNL     1      46.794   6.609  11.370  0.00  0.00    +0.000 C 
ENDROOT
BRANCH   1   2
ATOM      2  N   UNL     1      47.621   7.624  12.052  0.00  0.00    +0.000 N 
ATOM      3  H   UNL     1      48.435   7.876  11.490  0.00  0.00    +0.000 HD
BRANCH   2   7
ATOM      4  C   UNL     1      48.772   6.911  15.990  0.00  0.00    +0.000 A 
ATOM      5  C   UNL     1      48.698   8.232  15.572  0.00  0.00    +0.000 A 
ATOM      6  C   UNL     1      48.290   8.491  14.262  0.00  0.00    +0.000 A 
ATOM      7  C   UNL     1      47.940   7.446  13.403  0.00  0.00    +0.000 A 
ATOM      8  C   UNL     1      48.084   6.155  13.930  0.00  0.00    +0.000 A 
ATOM      9  N   UNL     1      48.476   5.852  15.194  0.00  0.00    +0.000 NA
BRANCH   4  11
ATOM     10  N   UNL     1      48.556   5.603  18.014  0.00  0.00    +0.000 N 
ATOM     11  C   UNL     1      49.238   6.603  17.381  0.00  0.00    +0.000 C 
ATOM     12  O   UNL     1      50.166   7.193  17.916  0.00  0.00    +0.000 OA
ATOM     13  H   UNL     1      48.844   5.307  18.938  0.00  0.00    +0.000 HD
ATOM     14  H   UNL     1      47.818   5.113  17.523  0.00  0.00    +0.000 HD
ENDBRANCH   4  11
ENDBRANCH   2   7
ENDBRANCH   1   2
BRANCH   1  15
ATOM     15  C   UNL     1      45.311   6.743  11.769  0.00  0.00    +0.000 C 
ATOM     16  F   UNL     1      44.741   7.684  10.947  0.00  0.00    +0.000 F 
BRANCH  15  17
ATOM     17  C   UNL     1      44.580   5.415  11.727  0.00  0.00    +0.000 A 
ATOM     18  C   UNL     1      43.945   4.940  12.870  0.00  0.00    +0.000 A 
ATOM     19  C   UNL     1      43.381   3.670  12.843  0.00  0.00    +0.000 A 
ATOM     20  C   UNL     1      43.467   2.902  11.683  0.00  0.00    +0.000 A 
ATOM     21  C   UNL     1      44.095   3.439  10.566  0.00  0.00    +0.000 A 
ATOM     22  N   UNL     1      44.652   4.677  10.586  0.00  0.00    +0.000 NA
BRANCH  21  23
ATOM     23  C   UNL     1      44.362   2.618   9.332  0.00  0.00    +0.000 C 
BRANCH  23  24
ATOM     24  C   UNL     1      45.743   2.754   8.701  0.00  0.00    +0.000 C 
ATOM     25  C   UNL     1      46.015   3.407   7.338  0.00  0.00    +0.000 C 
ATOM     26  C   UNL     1      47.031   2.267   7.195  0.00  0.00    +0.000 C 
ATOM     27  O   UNL     1      46.320   1.498   8.215  0.00  0.00    +0.000 OA
ENDBRANCH  23  24
ENDBRANCH  21  23
ENDBRANCH  15  17
ENDBRANCH   1  15
TORSDOF 7
ENDMDL
