MODEL 1
REMARK VINA RESULT:    -7.940      0.000      0.000
REMARK INTER + INTRA:         -11.307
REMARK INTER:                 -10.261
REMARK INTRA:                  -1.046
REMARK UNBOUND:                -1.046
REMARK  Name = 
REMARK  7 active torsions:
REMARK  status: ('A' for Active; 'I' for Inactive)
REMARK    1  A    between atoms: C_1  and  C_2
REMARK    2  A    between atoms: C_2  and  N_3
REMARK    3  A    between atoms: C_2  and  C_17
REMARK    4  A    between atoms: C_4  and  C_6
REMARK    5  A    between atoms: N_12  and  C_13
REMARK    6  A    between atoms: N_21  and  C_22
REMARK    7  A    between atoms: C_22  and  C_23
REMARK                            x       y       z     vdW  Elec       q    Type
REMARK                         _______ _______ _______ _____ _____    ______ ____
ROOT
ATOM      1  C   UNL     1      47.529   8.365  12.136  0.00  0.00    +0.000 C 
ATOM      2  C   UNL     1      47.047   7.373  13.202  0.00  0.00    +0.000 C 
ENDROOT
BRANCH   2   3
ATOM      3  C   UNL     1      46.346   6.174  12.600  0.00  0.00    +0.000 A 
ATOM      4  C   UNL     1      46.007   5.042  13.338  0.00  0.00    +0.000 A 
ATOM      5  C   UNL     1      45.519   3.915  12.686  0.00  0.00    +0.000 A 
ATOM      6  C   UNL     1      45.303   3.949  11.313  0.00  0.00    +0.000 A 
ATOM      7  N   UNL     1      44.877   2.760  10.713  0.00  0.00    +0.000 N 
ATOM      8  N   UNL     1      45.517   5.063  10.592  0.00  0.00    +0.000 NA
ATOM      9  C   UNL     1      46.037   6.139  11.240  0.00  0.00    +0.000 A 
ATOM     10  H   UNL     1      45.627   2.081  10.772  0.00  0.00    +0.000 HD
BRANCH   7  11
ATOM     11  C   UNL     1      44.376   2.857   9.349  0.00  0.00    +0.000 C 
BRANCH  11  12
ATOM     12  C   UNL     1      45.490   2.422   8.421  0.00  0.00    +0.000 A 
ATOM     13  C   UNL     1      45.943   3.295   7.434  0.00  0.00    +0.000 A 
ATOM     14  N   UNL     1      46.885   2.957   6.521  0.00  0.00    +0.000 NA
ATOM     15  C   UNL     1      47.349   1.693   6.617  0.00  0.00    +0.000 A 
ATOM     16  C   UNL     1      46.894   0.808   7.581  0.00  0.00    +0.000 A 
ATOM     17  N   UNL     1      45.957   1.145   8.499  0.00  0.00    +0.000 NA
ENDBRANCH  11  12
ENDBRANCH   7  11
ENDBRANCH   2   3
BRANCH   2  18
ATOM     18  N   UNL     1      48.155   6.950  14.032  0.00  0.00    +0.000 N 
ATOM     19  C   UNL     1      48.668   7.747  15.032  0.00  0.00    +0.000 C 
ATOM     20  O   UNL     1      48.135   8.790  15.383  0.00  0.00    +0.000 OA
ATOM     21  H   UNL     1      48.755   6.241  13.628  0.00  0.00    +0.000 HD
BRANCH  19  22
ATOM     22  C   UNL     1      49.860   7.222  15.709  0.00  0.00    +0.000 A 
ATOM     23  C   UNL     1      51.098   7.821  15.515  0.00  0.00    +0.000 A 
ATOM     24  S   UNL     1      52.333   7.161  16.491  0.00  0.00    +0.000 S 
ATOM     25  C   UNL     1      51.268   6.015  17.162  0.00  0.00    +0.000 A 
ATOM     26  N   UNL     1      51.681   5.142  18.114  0.00  0.00    +0.000 NA
ATOM     27  C   UNL     1      50.773   4.311  18.509  0.00  0.00    +0.000 A 
ATOM     28  N   UNL     1      49.482   4.243  18.025  0.00  0.00    +0.000 N 
ATOM     29  C   UNL     1      48.561   3.239  18.512  0.00  0.00    +0.000 C 
ATOM     30  C   UNL     1      49.030   5.119  17.045  0.00  0.00    +0.000 A 
ATOM     31  O   UNL     1      47.891   5.076  16.585  0.00  0.00    +0.000 OA
ATOM     32  C   UNL     1      50.003   6.109  16.619  0.00  0.00    +0.000 A 
ENDBRANCH  19  22
ENDBRANCH   2  18
TORSDOF 5
ENDMDL
MODEL 2
REMARK VINA RESULT:    -7.788      1.760      2.105
REMARK INTER + INTRA:         -11.111
REMARK INTER:                 -10.226
REMARK INTRA:                  -0.885
REMARK UNBOUND:                -1.046
REMARK  Name = 
REMARK  7 active torsions:
REMARK  status: ('A' for Active; 'I' for Inactive)
REMARK    1  A    between atoms: C_1  and  C_2
REMARK    2  A    between atoms: C_2  and  N_3
REMARK    3  A    between atoms: C_2  and  C_17
REMARK    4  A    between atoms: C_4  and  C_6
REMARK    5  A    between atoms: N_12  and  C_13
REMARK    6  A    between atoms: N_21  and  C_22
REMARK    7  A    between atoms: C_22  and  C_23
REMARK                            x       y       z     vdW  Elec       q    Type
REMARK                         _______ _______ _______ _____ _____    ______ ____
ROOT
ATOM      1  C   UNL     1      49.374   7.310  13.055  0.00  0.00    +0.000 C 
ATOM      2  C   UNL     1      47.950   7.487  13.598  0.00  0.00    +0.000 C 
ENDROOT
BRANCH   2   3
ATOM      3  C   UNL     1      46.964   6.538  12.952  0.00  0.00    +0.000 A 
ATOM      4  C   UNL     1      46.320   5.520  13.650  0.00  0.00    +0.000 A 
ATOM      5  C   UNL     1      45.558   4.583  12.959  0.00  0.00    +0.000 A 
ATOM      6  C   UNL     1      45.383   4.713  11.585  0.00  0.00    +0.000 A 
ATOM      7  N   UNL     1      44.664   3.701  10.943  0.00  0.00    +0.000 N 
ATOM      8  N   UNL     1      45.902   5.748  10.902  0.00  0.00    +0.000 NA
ATOM      9  C   UNL     1      46.681   6.626  11.589  0.00  0.00    +0.000 A 
ATOM     10  H   UNL     1      45.202   2.843  10.988  0.00  0.00    +0.000 HD
BRANCH   7  11
ATOM     11  C   UNL     1      44.231   3.967   9.579  0.00  0.00    +0.000 C 
BRANCH  11  12
ATOM     12  C   UNL     1      45.183   3.245   8.649  0.00  0.00    +0.000 A 
ATOM     13  C   UNL     1      45.452   1.893   8.855  0.00  0.00    +0.000 A 
ATOM     14  N   UNL     1      46.343   1.192   8.113  0.00  0.00    +0.000 NA
ATOM     15  C   UNL     1      46.981   1.906   7.160  0.00  0.00    +0.000 A 
ATOM     16  C   UNL     1      46.739   3.255   6.958  0.00  0.00    +0.000 A 
ATOM     17  N   UNL     1      45.843   3.955   7.694  0.00  0.00    +0.000 NA
ENDBRANCH  11  12
ENDBRANCH   7  11
ENDBRANCH   2   3
BRANCH   2  18
ATOM     18  N   UNL     1      47.938   7.330  15.037  0.00  0.00    +0.000 N 
ATOM     19  C   UNL     1      48.519   8.251  15.881  0.00  0.00    +0.000 C 
ATOM     20  O   UNL     1      48.948   9.327  15.487  0.00  0.00    +0.000 OA
ATOM     21  H   UNL     1      47.825   6.380  15.369  0.00  0.00    +0.000 HD
BRANCH  19  22
ATOM     22  C   UNL     1      48.519   7.893  17.304  0.00  0.00    +0.000 A 
ATOM     23  C   UNL     1      48.265   8.857  18.270  0.00  0.00    +0.000 A 
ATOM     24  S   UNL     1      48.169   8.226  19.853  0.00  0.00    +0.000 S 
ATOM     25  C   UNL     1      48.522   6.653  19.307  0.00  0.00    +0.000 A 
ATOM     26  N   UNL     1      48.560   5.602  20.164  0.00  0.00    +0.000 NA
ATOM     27  C   UNL     1      48.870   4.474  19.614  0.00  0.00    +0.000 A 
ATOM     28  N   UNL     1      49.178   4.288  18.281  0.00  0.00    +0.000 N 
ATOM     29  C   UNL     1      49.555   2.983  17.784  0.00  0.00    +0.000 C 
ATOM     30  C   UNL     1      49.154   5.346  17.380  0.00  0.00    +0.000 A 
ATOM     31  O   UNL     1      49.436   5.215  16.190  0.00  0.00    +0.000 OA
ATOM     32  C   UNL     1      48.750   6.619  17.947  0.00  0.00    +0.000 A 
ENDBRANCH  19  22
ENDBRANCH   2  18
TORSDOF 5
ENDMDL
MODEL 3
REMARK VINA RESULT:    -7.383      1.670      2.474
REMARK INTER + INTRA:         -10.588
REMARK INTER:                  -9.681
REMARK INTRA:                  -0.906
REMARK UNBOUND:                -1.046
REMARK  Name = 
REMARK  7 active torsions:
REMARK  status: ('A' for Active; 'I' for Inactive)
REMARK    1  A    between atoms: C_1  and  C_2
REMARK    2  A    between atoms: C_2  and  N_3
REMARK    3  A    between atoms: C_2  and  C_17
REMARK    4  A    between atoms: C_4  and  C_6
REMARK    5  A    between atoms: N_12  and  C_13
REMARK    6  A    between atoms: N_21  and  C_22
REMARK    7  A    between atoms: C_22  and  C_23
REMARK                            x       y       z     vdW  Elec       q    Type
REMARK                         _______ _______ _______ _____ _____    ______ ____
ROOT
ATOM      1  C   UNL     1      49.214   7.592  12.654  0.00  0.00    +0.000 C 
ATOM      2  C   UNL     1      48.015   7.248  13.547  0.00  0.00    +0.000 C 
ENDROOT
BRANCH   2   3
ATOM      3  C   UNL     1      46.947   6.472  12.806  0.00  0.00    +0.000 A 
ATOM      4  C   UNL     1      46.014   5.661  13.448  0.00  0.00    +0.000 A 
ATOM      5  C   UNL     1      45.173   4.849  12.696  0.00  0.00    +0.000 A 
ATOM      6  C   UNL     1      45.217   4.906  11.307  0.00  0.00    +0.000 A 
ATOM      7  N   UNL     1      44.394   4.014  10.614  0.00  0.00    +0.000 N 
ATOM      8  N   UNL     1      46.031   5.759  10.661  0.00  0.00    +0.000 NA
ATOM      9  C   UNL     1      46.877   6.511  11.414  0.00  0.00    +0.000 A 
ATOM     10  H   UNL     1      44.728   3.070  10.777  0.00  0.00    +0.000 HD
BRANCH   7  11
ATOM     11  C   UNL     1      44.216   4.257   9.189  0.00  0.00    +0.000 C 
BRANCH  11  12
ATOM     12  C   UNL     1      45.187   3.361   8.449  0.00  0.00    +0.000 A 
ATOM     13  C   UNL     1      45.355   2.041   8.860  0.00  0.00    +0.000 A 
ATOM     14  N   UNL     1      46.252   1.196   8.298  0.00  0.00    +0.000 NA
ATOM     15  C   UNL     1      47.001   1.733   7.310  0.00  0.00    +0.000 A 
ATOM     16  C   UNL     1      46.859   3.050   6.904  0.00  0.00    +0.000 A 
ATOM     17  N   UNL     1      45.958   3.893   7.461  0.00  0.00    +0.000 NA
ENDBRANCH  11  12
ENDBRANCH   7  11
ENDBRANCH   2   3
BRANCH   2  18
ATOM     18  N   UNL     1      48.454   6.518  14.717  0.00  0.00    +0.000 N 
ATOM     19  C   UNL     1      48.737   7.146  15.911  0.00  0.00    +0.000 C 
ATOM     20  O   UNL     1      48.496   8.329  16.106  0.00  0.00    +0.000 OA
ATOM     21  H   UNL     1      48.887   5.621  14.533  0.00  0.00    +0.000 HD
BRANCH  19  22
ATOM     22  C   UNL     1      49.276   6.282  16.967  0.00  0.00    +0.000 A 
ATOM     23  C   UNL     1      48.430   5.730  17.921  0.00  0.00    +0.000 A 
ATOM     24  S   UNL     1      49.214   4.645  18.980  0.00  0.00    +0.000 S 
ATOM     25  C   UNL     1      50.721   4.920  18.236  0.00  0.00    +0.000 A 
ATOM     26  N   UNL     1      51.837   4.264  18.641  0.00  0.00    +0.000 NA
ATOM     27  C   UNL     1      52.913   4.596  18.007  0.00  0.00    +0.000 A 
ATOM     28  N   UNL     1      52.997   5.550  17.012  0.00  0.00    +0.000 N 
ATOM     29  C   UNL     1      54.268   5.872  16.401  0.00  0.00    +0.000 C 
ATOM     30  C   UNL     1      51.873   6.245  16.580  0.00  0.00    +0.000 A 
ATOM     31  O   UNL     1      51.917   7.109  15.706  0.00  0.00    +0.000 OA
ATOM     32  C   UNL     1      50.632   5.856  17.225  0.00  0.00    +0.000 A 
ENDBRANCH  19  22
ENDBRANCH   2  18
TORSDOF 5
ENDMDL
MODEL 4
REMARK VINA RESULT:    -7.164      1.294      1.820
REMARK INTER + INTRA:         -10.305
REMARK INTER:                  -9.416
REMARK INTRA:                  -0.889
REMARK UNBOUND:                -1.046
REMARK  Name = 
REMARK  7 active torsions:
REMARK  status: ('A' for Active; 'I' for Inactive)
REMARK    1  A    between atoms: C_1  and  C_2
REMARK    2  A    between atoms: C_2  and  N_3
REMARK    3  A    between atoms: C_2  and  C_17
REMARK    4  A    between atoms: C_4  and  C_6
REMARK    5  A    between atoms: N_12  and  C_13
REMARK    6  A    between atoms: N_21  and  C_22
REMARK    7  A    between atoms: C_22  and  C_23
REMARK                            x       y       z     vdW  Elec       q    Type
REMARK                         _______ _______ _______ _____ _____    ______ ____
ROOT
ATOM      1  C   UNL     1      47.875   9.502  12.952  0.00  0.00    +0.000 C 
ATOM      2  C   UNL     1      47.141   8.357  13.660  0.00  0.00    +0.000 C 
ENDROOT
BRANCH   2   3
ATOM      3  C   UNL     1      46.319   7.519  12.704  0.00  0.00    +0.000 A 
ATOM      4  C   UNL     1      45.501   8.071  11.721  0.00  0.00    +0.000 A 
ATOM      5  C   UNL     1      44.648   7.248  10.993  0.00  0.00    +0.000 A 
ATOM      6  C   UNL     1      44.670   5.873  11.198  0.00  0.00    +0.000 A 
ATOM      7  N   UNL     1      43.740   5.114  10.483  0.00  0.00    +0.000 N 
ATOM      8  N   UNL     1      45.528   5.302  12.062  0.00  0.00    +0.000 NA
ATOM      9  C   UNL     1      46.320   6.128  12.797  0.00  0.00    +0.000 A 
ATOM     10  H   UNL     1      42.810   5.342  10.816  0.00  0.00    +0.000 HD
BRANCH   7  11
ATOM     11  C   UNL     1      43.942   3.672  10.468  0.00  0.00    +0.000 C 
BRANCH  11  12
ATOM     12  C   UNL     1      44.838   3.350   9.291  0.00  0.00    +0.000 A 
ATOM     13  C   UNL     1      45.309   2.049   9.121  0.00  0.00    +0.000 A 
ATOM     14  N   UNL     1      46.170   1.694   8.137  0.00  0.00    +0.000 NA
ATOM     15  C   UNL     1      46.565   2.702   7.331  0.00  0.00    +0.000 A 
ATOM     16  C   UNL     1      46.121   4.004   7.499  0.00  0.00    +0.000 A 
ATOM     17  N   UNL     1      45.256   4.359   8.478  0.00  0.00    +0.000 NA
ENDBRANCH  11  12
ENDBRANCH   7  11
ENDBRANCH   2   3
BRANCH   2  18
ATOM     18  N   UNL     1      48.083   7.527  14.381  0.00  0.00    +0.000 N 
ATOM     19  C   UNL     1      48.626   7.912  15.587  0.00  0.00    +0.000 C 
ATOM     20  O   UNL     1      48.241   8.899  16.199  0.00  0.00    +0.000 OA
ATOM     21  H   UNL     1      48.594   6.859  13.817  0.00  0.00    +0.000 HD
BRANCH  19  22
ATOM     22  C   UNL     1      49.648   7.013  16.136  0.00  0.00    +0.000 A 
ATOM     23  C   UNL     1      50.975   7.416  16.202  0.00  0.00    +0.000 A 
ATOM     24  S   UNL     1      51.989   6.295  16.996  0.00  0.00    +0.000 S 
ATOM     25  C   UNL     1      50.700   5.208  17.226  0.00  0.00    +0.000 A 
ATOM     26  N   UNL     1      50.875   4.037  17.887  0.00  0.00    +0.000 NA
ATOM     27  C   UNL     1      49.817   3.298  17.959  0.00  0.00    +0.000 A 
ATOM     28  N   UNL     1      48.588   3.601  17.408  0.00  0.00    +0.000 N 
ATOM     29  C   UNL     1      47.481   2.675  17.514  0.00  0.00    +0.000 C 
ATOM     30  C   UNL     1      48.377   4.790  16.719  0.00  0.00    +0.000 A 
ATOM     31  O   UNL     1      47.299   5.082  16.206  0.00  0.00    +0.000 OA
ATOM     32  C   UNL     1      49.526   5.675  16.670  0.00  0.00    +0.000 A 
ENDBRANCH  19  22
ENDBRANCH   2  18
TORSDOF 5
ENDMDL
MODEL 5
REMARK VINA RESULT:    -6.915      2.553      3.514
REMARK INTER + INTRA:          -9.983
REMARK INTER:                  -8.753
REMARK INTRA:                  -1.229
REMARK UNBOUND:                -1.046
REMARK  Name = 
REMARK  7 active torsions:
REMARK  status: ('A' for Active; 'I' for Inactive)
REMARK    1  A    between atoms: C_1  and  C_2
REMARK    2  A    between atoms: C_2  and  N_3
REMARK    3  A    between atoms: C_2  and  C_17
REMARK    4  A    between atoms: C_4  and  C_6
REMARK    5  A    between atoms: N_12  and  C_13
REMARK    6  A    between atoms: N_21  and  C_22
REMARK    7  A    between atoms: C_22  and  C_23
REMARK                            x       y       z     vdW  Elec       q    Type
REMARK                         _______ _______ _______ _____ _____    ______ ____
ROOT
ATOM      1  C   UNL     1      50.526   7.757  11.413  0.00  0.00    +0.000 C 
ATOM      2  C   UNL     1      49.766   8.138  12.689  0.00  0.00    +0.000 C 
ENDROOT
BRANCH   2   3
ATOM      3  C   UNL     1      48.264   8.066  12.509  0.00  0.00    +0.000 A 
ATOM      4  C   UNL     1      47.370   8.805  13.281  0.00  0.00    +0.000 A 
ATOM      5  C   UNL     1      46.005   8.562  13.176  0.00  0.00    +0.000 A 
ATOM      6  C   UNL     1      45.536   7.638  12.249  0.00  0.00    +0.000 A 
ATOM      7  N   UNL     1      44.159   7.394  12.244  0.00  0.00    +0.000 N 
ATOM      8  N   UNL     1      46.368   6.990  11.415  0.00  0.00    +0.000 NA
ATOM      9  C   UNL     1      47.702   7.208  11.565  0.00  0.00    +0.000 A 
ATOM     10  H   UNL     1      43.908   6.937  13.113  0.00  0.00    +0.000 HD
BRANCH   7  11
ATOM     11  C   UNL     1      43.628   6.660  11.105  0.00  0.00    +0.000 C 
BRANCH  11  12
ATOM     12  C   UNL     1      43.569   5.197  11.491  0.00  0.00    +0.000 A 
ATOM     13  C   UNL     1      43.439   4.846  12.834  0.00  0.00    +0.000 A 
ATOM     14  N   UNL     1      43.449   3.563  13.269  0.00  0.00    +0.000 NA
ATOM     15  C   UNL     1      43.618   2.633  12.305  0.00  0.00    +0.000 A 
ATOM     16  C   UNL     1      43.768   2.968  10.969  0.00  0.00    +0.000 A 
ATOM     17  N   UNL     1      43.751   4.249  10.531  0.00  0.00    +0.000 NA
ENDBRANCH  11  12
ENDBRANCH   7  11
ENDBRANCH   2   3
BRANCH   2  18
ATOM     18  N   UNL     1      50.186   7.301  13.792  0.00  0.00    +0.000 N 
ATOM     19  C   UNL     1      50.590   7.828  15.000  0.00  0.00    +0.000 C 
ATOM     20  O   UNL     1      50.480   9.015  15.271  0.00  0.00    +0.000 OA
ATOM     21  H   UNL     1      50.516   6.378  13.537  0.00  0.00    +0.000 HD
BRANCH  19  22
ATOM     22  C   UNL     1      51.090   6.854  15.978  0.00  0.00    +0.000 A 
ATOM     23  C   UNL     1      52.420   6.883  16.379  0.00  0.00    +0.000 A 
ATOM     24  S   UNL     1      52.780   5.769  17.621  0.00  0.00    +0.000 S 
ATOM     25  C   UNL     1      51.186   5.171  17.624  0.00  0.00    +0.000 A 
ATOM     26  N   UNL     1      50.797   4.206  18.493  0.00  0.00    +0.000 NA
ATOM     27  C   UNL     1      49.568   3.828  18.360  0.00  0.00    +0.000 A 
ATOM     28  N   UNL     1      48.680   4.304  17.416  0.00  0.00    +0.000 N 
ATOM     29  C   UNL     1      47.336   3.775  17.331  0.00  0.00    +0.000 C 
ATOM     30  C   UNL     1      49.050   5.289  16.507  0.00  0.00    +0.000 A 
ATOM     31  O   UNL     1      48.286   5.723  15.646  0.00  0.00    +0.000 OA
ATOM     32  C   UNL     1      50.405   5.783  16.665  0.00  0.00    +0.000 A 
ENDBRANCH  19  22
ENDBRANCH   2  18
TORSDOF 5
ENDMDL
MODEL 6
REMARK VINA RESULT:    -6.860      4.819      8.167
REMARK INTER + INTRA:          -9.912
REMARK INTER:                  -8.831
REMARK INTRA:                  -1.081
REMARK UNBOUND:                -1.046
REMARK  Name = 
REMARK  7 active torsions:
REMARK  status: ('A' for Active; 'I' for Inactive)
REMARK    1  A    between atoms: C_1  and  C_2
REMARK    2  A    between atoms: C_2  and  N_3
REMARK    3  A    between atoms: C_2  and  C_17
REMARK    4  A    between atoms: C_4  and  C_6
REMARK    5  A    between atoms: N_12  and  C_13
REMARK    6  A    between atoms: N_21  and  C_22
REMARK    7  A    between atoms: C_22  and  C_23
REMARK                            x       y       z     vdW  Elec       q    Type
REMARK                         _______ _______ _______ _____ _____    ______ ____
ROOT
ATOM      1  C   UNL     1      46.403   8.894  13.542  0.00  0.00    +0.000 C 
ATOM      2  C   UNL     1      46.780   8.438  12.127  0.00  0.00    +0.000 C 
ENDROOT
BRANCH   2   3
ATOM      3  C   UNL     1      48.270   8.518  11.873  0.00  0.00    +0.000 A 
ATOM      4  C   UNL     1      49.012   9.681  12.063  0.00  0.00    +0.000 A 
ATOM      5  C   UNL     1      50.339   9.728  11.650  0.00  0.00    +0.000 A 
ATOM      6  C   UNL     1      50.939   8.592  11.118  0.00  0.00    +0.000 A 
ATOM      7  N   UNL     1      52.252   8.728  10.661  0.00  0.00    +0.000 N 
ATOM      8  N   UNL     1      50.279   7.424  11.024  0.00  0.00    +0.000 NA
ATOM      9  C   UNL     1      48.970   7.412  11.391  0.00  0.00    +0.000 A 
ATOM     10  H   UNL     1      52.252   9.340   9.853  0.00  0.00    +0.000 HD
BRANCH   7  11
ATOM     11  C   UNL     1      52.978   7.499  10.375  0.00  0.00    +0.000 C 
BRANCH  11  12
ATOM     12  C   UNL     1      53.272   7.477   8.890  0.00  0.00    +0.000 A 
ATOM     13  C   UNL     1      52.498   6.681   8.048  0.00  0.00    +0.000 A 
ATOM     14  N   UNL     1      52.739   6.551   6.721  0.00  0.00    +0.000 NA
ATOM     15  C   UNL     1      53.809   7.237   6.264  0.00  0.00    +0.000 A 
ATOM     16  C   UNL     1      54.599   8.016   7.093  0.00  0.00    +0.000 A 
ATOM     17  N   UNL     1      54.356   8.153   8.418  0.00  0.00    +0.000 NA
ENDBRANCH  11  12
ENDBRANCH   7  11
ENDBRANCH   2   3
BRANCH   2  18
ATOM     18  N   UNL     1      46.296   7.095  11.886  0.00  0.00    +0.000 N 
ATOM     19  C   UNL     1      44.988   6.839  11.534  0.00  0.00    +0.000 C 
ATOM     20  O   UNL     1      44.195   7.727  11.256  0.00  0.00    +0.000 OA
ATOM     21  H   UNL     1      46.826   6.355  12.330  0.00  0.00    +0.000 HD
BRANCH  19  22
ATOM     22  C   UNL     1      44.627   5.420  11.434  0.00  0.00    +0.000 A 
ATOM     23  C   UNL     1      43.942   4.796  12.469  0.00  0.00    +0.000 A 
ATOM     24  S   UNL     1      43.489   3.189  12.112  0.00  0.00    +0.000 S 
ATOM     25  C   UNL     1      44.243   3.255  10.588  0.00  0.00    +0.000 A 
ATOM     26  N   UNL     1      44.199   2.202   9.734  0.00  0.00    +0.000 NA
ATOM     27  C   UNL     1      44.841   2.383   8.627  0.00  0.00    +0.000 A 
ATOM     28  N   UNL     1      45.555   3.515   8.289  0.00  0.00    +0.000 N 
ATOM     29  C   UNL     1      46.274   3.590   7.035  0.00  0.00    +0.000 C 
ATOM     30  C   UNL     1      45.624   4.608   9.144  0.00  0.00    +0.000 A 
ATOM     31  O   UNL     1      46.263   5.625   8.878  0.00  0.00    +0.000 OA
ATOM     32  C   UNL     1      44.865   4.468  10.373  0.00  0.00    +0.000 A 
ENDBRANCH  19  22
ENDBRANCH   2  18
TORSDOF 5
ENDMDL
MODEL 7
REMARK VINA RESULT:    -6.311      2.477      3.647
REMARK INTER + INTRA:          -9.202
REMARK INTER:                  -7.926
REMARK INTRA:                  -1.276
REMARK UNBOUND:                -1.046
REMARK  Name = 
REMARK  7 active torsions:
REMARK  status: ('A' for Active; 'I' for Inactive)
REMARK    1  A    between atoms: C_1  and  C_2
REMARK    2  A    between atoms: C_2  and  N_3
REMARK    3  A    between atoms: C_2  and  C_17
REMARK    4  A    between atoms: C_4  and  C_6
REMARK    5  A    between atoms: N_12  and  C_13
REMARK    6  A    between atoms: N_21  and  C_22
REMARK    7  A    between atoms: C_22  and  C_23
REMARK                            x       y       z     vdW  Elec       q    Type
REMARK                         _______ _______ _______ _____ _____    ______ ____
ROOT
ATOM      1  C   UNL     1      51.321   8.526  13.547  0.00  0.00    +0.000 C 
ATOM      2  C   UNL     1      49.996   8.716  14.295  0.00  0.00    +0.000 C 
ENDROOT
BRANCH   2   3
ATOM      3  C   UNL     1      48.795   8.368  13.441  0.00  0.00    +0.000 A 
ATOM      4  C   UNL     1      47.631   9.133  13.418  0.00  0.00    +0.000 A 
ATOM      5  C   UNL     1      46.510   8.663  12.742  0.00  0.00    +0.000 A 
ATOM      6  C   UNL     1      46.581   7.470  12.031  0.00  0.00    +0.000 A 
ATOM      7  N   UNL     1      45.400   7.022  11.432  0.00  0.00    +0.000 N 
ATOM      8  N   UNL     1      47.724   6.767  11.944  0.00  0.00    +0.000 NA
ATOM      9  C   UNL     1      48.794   7.220  12.650  0.00  0.00    +0.000 A 
ATOM     10  H   UNL     1      44.742   6.772  12.161  0.00  0.00    +0.000 HD
BRANCH   7  11
ATOM     11  C   UNL     1      45.525   5.947  10.459  0.00  0.00    +0.000 C 
BRANCH  11  12
ATOM     12  C   UNL     1      44.783   4.746  11.009  0.00  0.00    +0.000 A 
ATOM     13  C   UNL     1      44.458   3.691  10.159  0.00  0.00    +0.000 A 
ATOM     14  N   UNL     1      43.736   2.615  10.555  0.00  0.00    +0.000 NA
ATOM     15  C   UNL     1      43.327   2.642  11.841  0.00  0.00    +0.000 A 
ATOM     16  C   UNL     1      43.626   3.694  12.692  0.00  0.00    +0.000 A 
ATOM     17  N   UNL     1      44.353   4.767  12.301  0.00  0.00    +0.000 NA
ENDBRANCH  11  12
ENDBRANCH   7  11
ENDBRANCH   2   3
BRANCH   2  18
ATOM     18  N   UNL     1      49.992   7.938  15.516  0.00  0.00    +0.000 N 
ATOM     19  C   UNL     1      49.462   8.423  16.692  0.00  0.00    +0.000 C 
ATOM     20  O   UNL     1      48.831   9.469  16.750  0.00  0.00    +0.000 OA
ATOM     21  H   UNL     1      50.694   7.211  15.570  0.00  0.00    +0.000 HD
BRANCH  19  22
ATOM     22  C   UNL     1      49.634   7.558  17.866  0.00  0.00    +0.000 A 
ATOM     23  C   UNL     1      50.211   8.058  19.026  0.00  0.00    +0.000 A 
ATOM     24  S   UNL     1      50.198   6.949  20.324  0.00  0.00    +0.000 S 
ATOM     25  C   UNL     1      49.475   5.745  19.362  0.00  0.00    +0.000 A 
ATOM     26  N   UNL     1      49.151   4.533  19.876  0.00  0.00    +0.000 NA
ATOM     27  C   UNL     1      48.637   3.709  19.023  0.00  0.00    +0.000 A 
ATOM     28  N   UNL     1      48.435   3.965  17.682  0.00  0.00    +0.000 N 
ATOM     29  C   UNL     1      47.890   2.949  16.808  0.00  0.00    +0.000 C 
ATOM     30  C   UNL     1      48.763   5.195  17.123  0.00  0.00    +0.000 A 
ATOM     31  O   UNL     1      48.607   5.450  15.930  0.00  0.00    +0.000 OA
ATOM     32  C   UNL     1      49.286   6.170  18.063  0.00  0.00    +0.000 A 
ENDBRANCH  19  22
ENDBRANCH   2  18
TORSDOF 5
ENDMDL
MODEL 8
REMARK VINA RESULT:    -6.048      3.912      8.510
REMARK INTER + INTRA:          -8.863
REMARK INTER:                  -8.104
REMARK INTRA:                  -0.759
REMARK UNBOUND:                -1.046
REMARK  Name = 
REMARK  7 active torsions:
REMARK  status: ('A' for Active; 'I' for Inactive)
REMARK    1  A    between atoms: C_1  and  C_2
REMARK    2  A    between atoms: C_2  and  N_3
REMARK    3  A    between atoms: C_2  and  C_17
REMARK    4  A    between atoms: C_4  and  C_6
REMARK    5  A    between atoms: N_12  and  C_13
REMARK    6  A    between atoms: N_21  and  C_22
REMARK    7  A    between atoms: C_22  and  C_23
REMARK                            x       y       z     vdW  Elec       q    Type
REMARK                         _______ _______ _______ _____ _____    ______ ____
ROOT
ATOM      1  C   UNL     1      47.151   2.723  17.692  0.00  0.00    +0.000 C 
ATOM      2  C   UNL     1      47.676   4.153  17.521  0.00  0.00    +0.000 C 
ENDROOT
BRANCH   2   3
ATOM      3  C   UNL     1      49.189   4.215  17.509  0.00  0.00    +0.000 A 
ATOM      4  C   UNL     1      49.995   3.085  17.387  0.00  0.00    +0.000 A 
ATOM      5  C   UNL     1      51.371   3.199  17.553  0.00  0.00    +0.000 A 
ATOM      6  C   UNL     1      51.941   4.449  17.766  0.00  0.00    +0.000 A 
ATOM      7  N   UNL     1      53.320   4.482  17.993  0.00  0.00    +0.000 N 
ATOM      8  N   UNL     1      51.200   5.570  17.779  0.00  0.00    +0.000 NA
ATOM      9  C   UNL     1      49.852   5.432  17.661  0.00  0.00    +0.000 A 
ATOM     10  H   UNL     1      53.514   4.029  18.880  0.00  0.00    +0.000 HD
BRANCH   7  11
ATOM     11  C   UNL     1      53.965   5.786  17.929  0.00  0.00    +0.000 C 
BRANCH  11  12
ATOM     12  C   UNL     1      54.483   5.969  16.518  0.00  0.00    +0.000 A 
ATOM     13  C   UNL     1      53.913   6.941  15.697  0.00  0.00    +0.000 A 
ATOM     14  N   UNL     1      54.270   7.121  14.403  0.00  0.00    +0.000 NA
ATOM     15  C   UNL     1      55.214   6.271  13.946  0.00  0.00    +0.000 A 
ATOM     16  C   UNL     1      55.775   5.287  14.744  0.00  0.00    +0.000 A 
ATOM     17  N   UNL     1      55.424   5.109  16.040  0.00  0.00    +0.000 NA
ENDBRANCH  11  12
ENDBRANCH   7  11
ENDBRANCH   2   3
BRANCH   2  18
ATOM     18  N   UNL     1      47.135   4.747  16.316  0.00  0.00    +0.000 N 
ATOM     19  C   UNL     1      47.177   4.102  15.099  0.00  0.00    +0.000 C 
ATOM     20  O   UNL     1      47.532   2.938  14.981  0.00  0.00    +0.000 OA
ATOM     21  H   UNL     1      47.068   5.757  16.322  0.00  0.00    +0.000 HD
BRANCH  19  22
ATOM     22  C   UNL     1      46.688   4.881  13.955  0.00  0.00    +0.000 A 
ATOM     23  C   UNL     1      45.599   4.435  13.217  0.00  0.00    +0.000 A 
ATOM     24  S   UNL     1      45.091   5.538  12.018  0.00  0.00    +0.000 S 
ATOM     25  C   UNL     1      46.345   6.623  12.406  0.00  0.00    +0.000 A 
ATOM     26  N   UNL     1      46.470   7.813  11.768  0.00  0.00    +0.000 NA
ATOM     27  C   UNL     1      47.485   8.519  12.144  0.00  0.00    +0.000 A 
ATOM     28  N   UNL     1      48.419   8.142  13.088  0.00  0.00    +0.000 N 
ATOM     29  C   UNL     1      49.544   8.997  13.400  0.00  0.00    +0.000 C 
ATOM     30  C   UNL     1      48.323   6.926  13.755  0.00  0.00    +0.000 A 
ATOM     31  O   UNL     1      49.145   6.556  14.591  0.00  0.00    +0.000 OA
ATOM     32  C   UNL     1      47.161   6.131  13.405  0.00  0.00    +0.000 A 
ENDBRANCH  19  22
ENDBRANCH   2  18
TORSDOF 5
ENDMDL
MODEL 9
REMARK VINA RESULT:    -5.934      3.309      4.149
REMARK INTER + INTRA:          -8.714
REMARK INTER:                  -8.274
REMARK INTRA:                  -0.440
REMARK UNBOUND:                -1.046
REMARK  Name = 
REMARK  7 active torsions:
REMARK  status: ('A' for Active; 'I' for Inactive)
REMARK    1  A    between atoms: C_1  and  C_2
REMARK    2  A    between atoms: C_2  and  N_3
REMARK    3  A    between atoms: C_2  and  C_17
REMARK    4  A    between atoms: C_4  and  C_6
REMARK    5  A    between atoms: N_12  and  C_13
REMARK    6  A    between atoms: N_21  and  C_22
REMARK    7  A    between atoms: C_22  and  C_23
REMARK                            x       y       z     vdW  Elec       q    Type
REMARK                         _______ _______ _______ _____ _____    ______ ____
ROOT
ATOM      1  C   UNL     1      46.054   9.087  13.385  0.00  0.00    +0.000 C 
ATOM      2  C   UNL     1      46.821   7.784  13.130  0.00  0.00    +0.000 C 
ENDROOT
BRANCH   2   3
ATOM      3  C   UNL     1      46.054   6.826  12.244  0.00  0.00    +0.000 A 
ATOM      4  C   UNL     1      45.002   7.227  11.423  0.00  0.00    +0.000 A 
ATOM      5  C   UNL     1      44.236   6.269  10.767  0.00  0.00    +0.000 A 
ATOM      6  C   UNL     1      44.570   4.924  10.874  0.00  0.00    +0.000 A 
ATOM      7  N   UNL     1      43.718   4.011  10.245  0.00  0.00    +0.000 N 
ATOM      8  N   UNL     1      45.646   4.517  11.571  0.00  0.00    +0.000 NA
ATOM      9  C   UNL     1      46.354   5.464  12.242  0.00  0.00    +0.000 A 
ATOM     10  H   UNL     1      42.822   4.024  10.719  0.00  0.00    +0.000 HD
BRANCH   7  11
ATOM     11  C   UNL     1      44.207   2.647  10.106  0.00  0.00    +0.000 C 
BRANCH  11  12
ATOM     12  C   UNL     1      45.181   2.627   8.946  0.00  0.00    +0.000 A 
ATOM     13  C   UNL     1      45.223   3.707   8.066  0.00  0.00    +0.000 A 
ATOM     14  N   UNL     1      46.014   3.737   6.966  0.00  0.00    +0.000 NA
ATOM     15  C   UNL     1      46.753   2.626   6.763  0.00  0.00    +0.000 A 
ATOM     16  C   UNL     1      46.706   1.537   7.618  0.00  0.00    +0.000 A 
ATOM     17  N   UNL     1      45.922   1.508   8.722  0.00  0.00    +0.000 NA
ENDBRANCH  11  12
ENDBRANCH   7  11
ENDBRANCH   2   3
BRANCH   2  18
ATOM     18  N   UNL     1      48.122   8.069  12.562  0.00  0.00    +0.000 N 
ATOM     19  C   UNL     1      49.276   7.498  13.051  0.00  0.00    +0.000 C 
ATOM     20  O   UNL     1      49.267   6.607  13.889  0.00  0.00    +0.000 OA
ATOM     21  H   UNL     1      48.195   8.948  12.064  0.00  0.00    +0.000 HD
BRANCH  19  22
ATOM     22  C   UNL     1      50.524   7.973  12.441  0.00  0.00    +0.000 A 
ATOM     23  C   UNL     1      50.827   7.652  11.124  0.00  0.00    +0.000 A 
ATOM     24  S   UNL     1      52.245   8.408  10.549  0.00  0.00    +0.000 S 
ATOM     25  C   UNL     1      52.533   9.143  12.057  0.00  0.00    +0.000 A 
ATOM     26  N   UNL     1      53.589   9.972  12.247  0.00  0.00    +0.000 NA
ATOM     27  C   UNL     1      53.699  10.433  13.450  0.00  0.00    +0.000 A 
ATOM     28  N   UNL     1      52.866  10.125  14.506  0.00  0.00    +0.000 N 
ATOM     29  C   UNL     1      53.113  10.667  15.825  0.00  0.00    +0.000 C 
ATOM     30  C   UNL     1      51.780   9.273  14.346  0.00  0.00    +0.000 A 
ATOM     31  O   UNL     1      51.028   8.969  15.271  0.00  0.00    +0.000 OA
ATOM     32  C   UNL     1      51.585   8.783  12.994  0.00  0.00    +0.000 A 
ENDBRANCH  19  22
ENDBRANCH   2  18
TORSDOF 5
ENDMDL
