MODEL 1
REMARK VINA RESULT:    -8.618      0.000      0.000
REMARK INTER + INTRA:         -11.939
REMARK INTER:                 -11.137
REMARK INTRA:                  -0.802
REMARK UNBOUND:                -0.802
REMARK  Name = 
REMARK  5 active torsions:
REMARK  status: ('A' for Active; 'I' for Inactive)
REMARK    1  A    between atoms: C_2  and  C_4
REMARK    2  A    between atoms: C_7  and  O_8
REMARK    3  A    between atoms: O_8  and  C_9
REMARK    4  A    between atoms: C_9  and  C_10
REMARK    5  A    between atoms: C_14  and  C_15
REMARK                            x       y       z     vdW  Elec       q    Type
REMARK                         _______ _______ _______ _____ _____    ______ ____
ROOT
ATOM      1  C   UNL     1      43.668   4.247  11.255  0.00  0.00    +0.000 C 
ENDROOT
BRANCH   1   2
ATOM      2  C   UNL     1      44.874   4.712  12.041  0.00  0.00    +0.000 A 
ATOM      3  C   UNL     1      45.561   3.807  12.859  0.00  0.00    +0.000 A 
ATOM      4  C   UNL     1      46.699   4.212  13.550  0.00  0.00    +0.000 A 
ATOM      5  C   UNL     1      47.178   5.516  13.405  0.00  0.00    +0.000 A 
ATOM      6  C   UNL     1      46.550   6.438  12.547  0.00  0.00    +0.000 A 
ATOM      7  C   UNL     1      45.383   6.012  11.887  0.00  0.00    +0.000 A 
BRANCH   6   8
ATOM      8  C   UNL     1      47.132   7.771  12.287  0.00  0.00    +0.000 A 
ATOM      9  C   UNL     1      48.460   7.923  11.862  0.00  0.00    +0.000 A 
ATOM     10  C   UNL     1      48.972   9.180  11.550  0.00  0.00    +0.000 A 
ATOM     11  C   UNL     1      48.136  10.274  11.662  0.00  0.00    +0.000 A 
ATOM     12  N   UNL     1      46.856  10.193  12.077  0.00  0.00    +0.000 NA
ATOM     13  C   UNL     1      46.391   8.953  12.381  0.00  0.00    +0.000 A 
ENDBRANCH   6   8
ENDBRANCH   1   2
BRANCH   1  14
ATOM     14  O   UNL     1      43.755   4.704   9.901  0.00  0.00    +0.000 OA
BRANCH  14  18
ATOM     15  C   UNL     1      46.438   2.460   7.735  0.00  0.00    +0.000 A 
ATOM     16  C   UNL     1      45.579   1.829   8.638  0.00  0.00    +0.000 A 
ATOM     17  C   UNL     1      44.676   2.602   9.369  0.00  0.00    +0.000 A 
ATOM     18  C   UNL     1      44.665   3.974   9.165  0.00  0.00    +0.000 A 
ATOM     19  N   UNL     1      45.490   4.610   8.306  0.00  0.00    +0.000 NA
ATOM     20  C   UNL     1      46.366   3.841   7.617  0.00  0.00    +0.000 A 
BRANCH  15  22
ATOM     21  N   UNL     1      48.496   2.456   6.445  0.00  0.00    +0.000 N 
ATOM     22  C   UNL     1      47.431   1.740   6.914  0.00  0.00    +0.000 C 
ATOM     23  O   UNL     1      47.329   0.541   6.696  0.00  0.00    +0.000 OA
ATOM     24  H   UNL     1      49.224   1.921   5.987  0.00  0.00    +0.000 HD
ATOM     25  H   UNL     1      48.747   3.363   6.812  0.00  0.00    +0.000 HD
ENDBRANCH  15  22
ENDBRANCH  14  18
ENDBRANCH   1  14
TORSDOF 5
ENDMDL
MODEL 2
REMARK VINA RESULT:    -8.344      2.190      3.427
REMARK INTER + INTRA:         -11.585
REMARK INTER:                 -10.775
REMARK INTRA:                  -0.810
REMARK UNBOUND:                -0.802
REMARK  Name = 
REMARK  5 active torsions:
REMARK  status: ('A' for Active; 'I' for Inactive)
REMARK    1  A    between atoms: C_2  and  C_4
REMARK    2  A    between atoms: C_7  and  O_8
REMARK    3  A    between atoms: O_8  and  C_9
REMARK    4  A    between atoms: C_9  and  C_10
REMARK    5  A    between atoms: C_14  and  C_15
REMARK                            x       y       z     vdW  Elec       q    Type
REMARK                         _______ _______ _______ _____ _____    ______ ____
ROOT
ATOM      1  C   UNL     1      43.770   4.518  11.155  0.00  0.00    +0.000 C 
ENDROOT
BRANCH   1   2
ATOM      2  C   UNL     1      44.901   5.308  11.773  0.00  0.00    +0.000 A 
ATOM      3  C   UNL     1      45.171   6.605  11.322  0.00  0.00    +0.000 A 
ATOM      4  C   UNL     1      46.180   7.358  11.915  0.00  0.00    +0.000 A 
ATOM      5  C   UNL     1      46.907   6.832  12.986  0.00  0.00    +0.000 A 
ATOM      6  C   UNL     1      46.627   5.556  13.507  0.00  0.00    +0.000 A 
ATOM      7  C   UNL     1      45.625   4.804  12.867  0.00  0.00    +0.000 A 
BRANCH   6   8
ATOM      8  C   UNL     1      47.299   5.053  14.723  0.00  0.00    +0.000 A 
ATOM      9  C   UNL     1      48.219   5.840  15.432  0.00  0.00    +0.000 A 
ATOM     10  C   UNL     1      48.789   5.380  16.617  0.00  0.00    +0.000 A 
ATOM     11  C   UNL     1      48.420   4.133  17.081  0.00  0.00    +0.000 A 
ATOM     12  N   UNL     1      47.552   3.327  16.438  0.00  0.00    +0.000 NA
ATOM     13  C   UNL     1      47.021   3.802  15.282  0.00  0.00    +0.000 A 
ENDBRANCH   6   8
ENDBRANCH   1   2
BRANCH   1  14
ATOM     14  O   UNL     1      43.728   4.737   9.741  0.00  0.00    +0.000 OA
BRANCH  14  18
ATOM     15  C   UNL     1      46.361   2.274   7.759  0.00  0.00    +0.000 A 
ATOM     16  C   UNL     1      45.484   1.733   8.701  0.00  0.00    +0.000 A 
ATOM     17  C   UNL     1      44.598   2.579   9.369  0.00  0.00    +0.000 A 
ATOM     18  C   UNL     1      44.621   3.933   9.065  0.00  0.00    +0.000 A 
ATOM     19  N   UNL     1      45.466   4.483   8.166  0.00  0.00    +0.000 NA
ATOM     20  C   UNL     1      46.324   3.644   7.540  0.00  0.00    +0.000 A 
BRANCH  15  22
ATOM     21  N   UNL     1      48.401   2.131   6.447  0.00  0.00    +0.000 N 
ATOM     22  C   UNL     1      47.338   1.471   6.998  0.00  0.00    +0.000 C 
ATOM     23  O   UNL     1      47.227   0.258   6.898  0.00  0.00    +0.000 OA
ATOM     24  H   UNL     1      49.119   1.549   6.034  0.00  0.00    +0.000 HD
ATOM     25  H   UNL     1      48.662   3.068   6.722  0.00  0.00    +0.000 HD
ENDBRANCH  15  22
ENDBRANCH  14  18
ENDBRANCH   1  14
TORSDOF 5
ENDMDL
MODEL 3
REMARK VINA RESULT:    -8.194      1.474      1.675
REMARK INTER + INTRA:         -11.390
REMARK INTER:                 -10.596
REMARK INTRA:                  -0.794
REMARK UNBOUND:                -0.802
REMARK  Name = 
REMARK  5 active torsions:
REMARK  status: ('A' for Active; 'I' for Inactive)
REMARK    1  A    between atoms: C_2  and  C_4
REMARK    2  A    between atoms: C_7  and  O_8
REMARK    3  A    between atoms: O_8  and  C_9
REMARK    4  A    between atoms: C_9  and  C_10
REMARK    5  A    between atoms: C_14  and  C_15
REMARK                            x       y       z     vdW  Elec       q    Type
REMARK                         _______ _______ _______ _____ _____    ______ ____
ROOT
ATOM      1  C   UNL     1      44.325   5.797  10.562  0.00  0.00    +0.000 C 
ENDROOT
BRANCH   1   2
ATOM      2  C   UNL     1      45.320   5.649  11.690  0.00  0.00    +0.000 A 
ATOM      3  C   UNL     1      45.139   4.648  12.651  0.00  0.00    +0.000 A 
ATOM      4  C   UNL     1      46.073   4.474  13.667  0.00  0.00    +0.000 A 
ATOM      5  C   UNL     1      47.214   5.278  13.713  0.00  0.00    +0.000 A 
ATOM      6  C   UNL     1      47.463   6.256  12.733  0.00  0.00    +0.000 A 
ATOM      7  C   UNL     1      46.486   6.433  11.737  0.00  0.00    +0.000 A 
BRANCH   6   8
ATOM      8  C   UNL     1      48.732   7.012  12.701  0.00  0.00    +0.000 A 
ATOM      9  C   UNL     1      49.236   7.551  11.507  0.00  0.00    +0.000 A 
ATOM     10  C   UNL     1      50.394   8.324  11.505  0.00  0.00    +0.000 A 
ATOM     11  C   UNL     1      51.031   8.553  12.709  0.00  0.00    +0.000 A 
ATOM     12  N   UNL     1      50.603   8.052  13.885  0.00  0.00    +0.000 NA
ATOM     13  C   UNL     1      49.475   7.297  13.850  0.00  0.00    +0.000 A 
ENDBRANCH   6   8
ENDBRANCH   1   2
BRANCH   1  14
ATOM     14  O   UNL     1      43.824   4.514  10.173  0.00  0.00    +0.000 OA
BRANCH  14  18
ATOM     15  C   UNL     1      46.413   2.450   7.732  0.00  0.00    +0.000 A 
ATOM     16  C   UNL     1      45.701   1.766   8.719  0.00  0.00    +0.000 A 
ATOM     17  C   UNL     1      44.827   2.478   9.542  0.00  0.00    +0.000 A 
ATOM     18  C   UNL     1      44.699   3.845   9.343  0.00  0.00    +0.000 A 
ATOM     19  N   UNL     1      45.384   4.532   8.404  0.00  0.00    +0.000 NA
ATOM     20  C   UNL     1      46.234   3.822   7.625  0.00  0.00    +0.000 A 
BRANCH  15  22
ATOM     21  N   UNL     1      48.468   2.508   6.437  0.00  0.00    +0.000 N 
ATOM     22  C   UNL     1      47.362   1.796   6.809  0.00  0.00    +0.000 C 
ATOM     23  O   UNL     1      47.190   0.648   6.425  0.00  0.00    +0.000 OA
ATOM     24  H   UNL     1      49.162   2.001   5.902  0.00  0.00    +0.000 HD
ATOM     25  H   UNL     1      48.772   3.338   6.926  0.00  0.00    +0.000 HD
ENDBRANCH  15  22
ENDBRANCH  14  18
ENDBRANCH   1  14
TORSDOF 5
ENDMDL
MODEL 4
REMARK VINA RESULT:    -7.950      1.684      2.436
REMARK INTER + INTRA:         -11.075
REMARK INTER:                 -10.336
REMARK INTRA:                  -0.739
REMARK UNBOUND:                -0.802
REMARK  Name = 
REMARK  5 active torsions:
REMARK  status: ('A' for Active; 'I' for Inactive)
REMARK    1  A    between atoms: C_2  and  C_4
REMARK    2  A    between atoms: C_7  and  O_8
REMARK    3  A    between atoms: O_8  and  C_9
REMARK    4  A    between atoms: C_9  and  C_10
REMARK    5  A    between atoms: C_14  and  C_15
REMARK                            x       y       z     vdW  Elec       q    Type
REMARK                         _______ _______ _______ _____ _____    ______ ____
ROOT
ATOM      1  C   UNL     1      44.296   4.838  11.348  0.00  0.00    +0.000 C 
ENDROOT
BRANCH   1   2
ATOM      2  C   UNL     1      44.996   6.152  11.616  0.00  0.00    +0.000 A 
ATOM      3  C   UNL     1      44.335   7.358  11.354  0.00  0.00    +0.000 A 
ATOM      4  C   UNL     1      44.952   8.571  11.640  0.00  0.00    +0.000 A 
ATOM      5  C   UNL     1      46.222   8.590  12.221  0.00  0.00    +0.000 A 
ATOM      6  C   UNL     1      46.894   7.401  12.555  0.00  0.00    +0.000 A 
ATOM      7  C   UNL     1      46.262   6.189  12.224  0.00  0.00    +0.000 A 
BRANCH   6   8
ATOM      8  C   UNL     1      48.174   7.418  13.293  0.00  0.00    +0.000 A 
ATOM      9  C   UNL     1      49.204   8.309  12.957  0.00  0.00    +0.000 A 
ATOM     10  C   UNL     1      50.376   8.363  13.709  0.00  0.00    +0.000 A 
ATOM     11  C   UNL     1      50.496   7.522  14.797  0.00  0.00    +0.000 A 
ATOM     12  N   UNL     1      49.547   6.636  15.161  0.00  0.00    +0.000 NA
ATOM     13  C   UNL     1      48.421   6.604  14.403  0.00  0.00    +0.000 A 
ENDBRANCH   6   8
ENDBRANCH   1   2
BRANCH   1  14
ATOM     14  O   UNL     1      43.890   4.765   9.977  0.00  0.00    +0.000 OA
BRANCH  14  18
ATOM     15  C   UNL     1      46.489   2.500   7.731  0.00  0.00    +0.000 A 
ATOM     16  C   UNL     1      45.641   1.874   8.648  0.00  0.00    +0.000 A 
ATOM     17  C   UNL     1      44.766   2.654   9.406  0.00  0.00    +0.000 A 
ATOM     18  C   UNL     1      44.772   4.028   9.214  0.00  0.00    +0.000 A 
ATOM     19  N   UNL     1      45.588   4.659   8.343  0.00  0.00    +0.000 NA
ATOM     20  C   UNL     1      46.436   3.883   7.628  0.00  0.00    +0.000 A 
BRANCH  15  22
ATOM     21  N   UNL     1      48.512   2.479   6.387  0.00  0.00    +0.000 N 
ATOM     22  C   UNL     1      47.452   1.773   6.882  0.00  0.00    +0.000 C 
ATOM     23  O   UNL     1      47.331   0.576   6.662  0.00  0.00    +0.000 OA
ATOM     24  H   UNL     1      49.222   1.937   5.909  0.00  0.00    +0.000 HD
ATOM     25  H   UNL     1      48.783   3.381   6.751  0.00  0.00    +0.000 HD
ENDBRANCH  15  22
ENDBRANCH  14  18
ENDBRANCH   1  14
TORSDOF 5
ENDMDL
MODEL 5
REMARK VINA RESULT:    -7.375      2.547      6.669
REMARK INTER + INTRA:         -10.333
REMARK INTER:                  -9.464
REMARK INTRA:                  -0.869
REMARK UNBOUND:                -0.802
REMARK  Name = 
REMARK  5 active torsions:
REMARK  status: ('A' for Active; 'I' for Inactive)
REMARK    1  A    between atoms: C_2  and  C_4
REMARK    2  A    between atoms: C_7  and  O_8
REMARK    3  A    between atoms: O_8  and  C_9
REMARK    4  A    between atoms: C_9  and  C_10
REMARK    5  A    between atoms: C_14  and  C_15
REMARK                            x       y       z     vdW  Elec       q    Type
REMARK                         _______ _______ _______ _____ _____    ______ ____
ROOT
ATOM      1  C   UNL     1      44.319   6.716  11.398  0.00  0.00    +0.000 C 
ENDROOT
BRANCH   1   2
ATOM      2  C   UNL     1      44.279   5.237  11.083  0.00  0.00    +0.000 A 
ATOM      3  C   UNL     1      43.402   4.400  11.782  0.00  0.00    +0.000 A 
ATOM      4  C   UNL     1      43.323   3.048  11.467  0.00  0.00    +0.000 A 
ATOM      5  C   UNL     1      44.099   2.525  10.430  0.00  0.00    +0.000 A 
ATOM      6  C   UNL     1      44.949   3.343   9.665  0.00  0.00    +0.000 A 
ATOM      7  C   UNL     1      45.034   4.700  10.026  0.00  0.00    +0.000 A 
BRANCH   6   8
ATOM      8  C   UNL     1      45.665   2.822   8.482  0.00  0.00    +0.000 A 
ATOM      9  C   UNL     1      46.021   3.657   7.412  0.00  0.00    +0.000 A 
ATOM     10  C   UNL     1      46.760   3.167   6.338  0.00  0.00    +0.000 A 
ATOM     11  C   UNL     1      47.140   1.839   6.355  0.00  0.00    +0.000 A 
ATOM     12  N   UNL     1      46.818   0.986   7.348  0.00  0.00    +0.000 NA
ATOM     13  C   UNL     1      46.090   1.494   8.376  0.00  0.00    +0.000 A 
ENDBRANCH   6   8
ENDBRANCH   1   2
BRANCH   1  14
ATOM     14  O   UNL     1      44.938   6.933  12.671  0.00  0.00    +0.000 OA
BRANCH  14  18
ATOM     15  C   UNL     1      48.953   7.761  12.334  0.00  0.00    +0.000 A 
ATOM     16  C   UNL     1      48.542   6.502  12.775  0.00  0.00    +0.000 A 
ATOM     17  C   UNL     1      47.177   6.235  12.888  0.00  0.00    +0.000 A 
ATOM     18  C   UNL     1      46.278   7.236  12.551  0.00  0.00    +0.000 A 
ATOM     19  N   UNL     1      46.649   8.465  12.132  0.00  0.00    +0.000 NA
ATOM     20  C   UNL     1      47.978   8.705  12.042  0.00  0.00    +0.000 A 
BRANCH  15  22
ATOM     21  N   UNL     1      51.128   7.427  11.304  0.00  0.00    +0.000 N 
ATOM     22  C   UNL     1      50.369   8.151  12.180  0.00  0.00    +0.000 C 
ATOM     23  O   UNL     1      50.835   9.109  12.779  0.00  0.00    +0.000 OA
ATOM     24  H   UNL     1      52.059   7.783  11.124  0.00  0.00    +0.000 HD
ATOM     25  H   UNL     1      50.725   6.811  10.613  0.00  0.00    +0.000 HD
ENDBRANCH  15  22
ENDBRANCH  14  18
ENDBRANCH   1  14
TORSDOF 5
ENDMDL
MODEL 6
REMARK VINA RESULT:    -7.173      4.567      8.194
REMARK INTER + INTRA:         -10.072
REMARK INTER:                  -9.504
REMARK INTRA:                  -0.568
REMARK UNBOUND:                -0.802
REMARK  Name = 
REMARK  5 active torsions:
REMARK  status: ('A' for Active; 'I' for Inactive)
REMARK    1  A    between atoms: C_2  and  C_4
REMARK    2  A    between atoms: C_7  and  O_8
REMARK    3  A    between atoms: O_8  and  C_9
REMARK    4  A    between atoms: C_9  and  C_10
REMARK    5  A    between atoms: C_14  and  C_15
REMARK                            x       y       z     vdW  Elec       q    Type
REMARK                         _______ _______ _______ _____ _____    ______ ____
ROOT
ATOM      1  C   UNL     1      46.021   5.195  13.974  0.00  0.00    +0.000 C 
ENDROOT
BRANCH   1   2
ATOM      2  C   UNL     1      45.098   4.908  12.811  0.00  0.00    +0.000 A 
ATOM      3  C   UNL     1      43.790   5.405  12.823  0.00  0.00    +0.000 A 
ATOM      4  C   UNL     1      42.947   5.187  11.737  0.00  0.00    +0.000 A 
ATOM      5  C   UNL     1      43.415   4.495  10.617  0.00  0.00    +0.000 A 
ATOM      6  C   UNL     1      44.740   4.031  10.542  0.00  0.00    +0.000 A 
ATOM      7  C   UNL     1      45.560   4.237  11.666  0.00  0.00    +0.000 A 
BRANCH   6   8
ATOM      8  C   UNL     1      45.276   3.422   9.307  0.00  0.00    +0.000 A 
ATOM      9  C   UNL     1      45.735   4.209   8.240  0.00  0.00    +0.000 A 
ATOM     10  C   UNL     1      46.306   3.622   7.113  0.00  0.00    +0.000 A 
ATOM     11  C   UNL     1      46.416   2.246   7.075  0.00  0.00    +0.000 A 
ATOM     12  N   UNL     1      45.982   1.437   8.063  0.00  0.00    +0.000 NA
ATOM     13  C   UNL     1      45.423   2.041   9.143  0.00  0.00    +0.000 A 
ENDBRANCH   6   8
ENDBRANCH   1   2
BRANCH   1  14
ATOM     14  O   UNL     1      46.500   3.970  14.539  0.00  0.00    +0.000 OA
BRANCH  14  18
ATOM     15  C   UNL     1      48.363   4.620  18.149  0.00  0.00    +0.000 A 
ATOM     16  C   UNL     1      48.665   5.438  17.059  0.00  0.00    +0.000 A 
ATOM     17  C   UNL     1      48.029   5.206  15.839  0.00  0.00    +0.000 A 
ATOM     18  C   UNL     1      47.113   4.167  15.759  0.00  0.00    +0.000 A 
ATOM     19  N   UNL     1      46.810   3.355  16.795  0.00  0.00    +0.000 NA
ATOM     20  C   UNL     1      47.449   3.592  17.964  0.00  0.00    +0.000 A 
BRANCH  15  22
ATOM     21  N   UNL     1      48.591   3.902  20.459  0.00  0.00    +0.000 N 
ATOM     22  C   UNL     1      48.977   4.777  19.482  0.00  0.00    +0.000 C 
ATOM     23  O   UNL     1      49.830   5.627  19.695  0.00  0.00    +0.000 OA
ATOM     24  H   UNL     1      49.109   3.950  21.327  0.00  0.00    +0.000 HD
ATOM     25  H   UNL     1      48.098   3.044  20.258  0.00  0.00    +0.000 HD
ENDBRANCH  15  22
ENDBRANCH  14  18
ENDBRANCH   1  14
TORSDOF 5
ENDMDL
MODEL 7
REMARK VINA RESULT:    -7.015      2.930      7.327
REMARK INTER + INTRA:          -9.868
REMARK INTER:                  -9.370
REMARK INTRA:                  -0.498
REMARK UNBOUND:                -0.802
REMARK  Name = 
REMARK  5 active torsions:
REMARK  status: ('A' for Active; 'I' for Inactive)
REMARK    1  A    between atoms: C_2  and  C_4
REMARK    2  A    between atoms: C_7  and  O_8
REMARK    3  A    between atoms: O_8  and  C_9
REMARK    4  A    between atoms: C_9  and  C_10
REMARK    5  A    between atoms: C_14  and  C_15
REMARK                            x       y       z     vdW  Elec       q    Type
REMARK                         _______ _______ _______ _____ _____    ______ ____
ROOT
ATOM      1  C   UNL     1      45.075   6.572  11.274  0.00  0.00    +0.000 C 
ENDROOT
BRANCH   1   2
ATOM      2  C   UNL     1      44.810   5.146  10.843  0.00  0.00    +0.000 A 
ATOM      3  C   UNL     1      43.772   4.421  11.440  0.00  0.00    +0.000 A 
ATOM      4  C   UNL     1      43.490   3.126  11.018  0.00  0.00    +0.000 A 
ATOM      5  C   UNL     1      44.222   2.555   9.974  0.00  0.00    +0.000 A 
ATOM      6  C   UNL     1      45.233   3.271   9.310  0.00  0.00    +0.000 A 
ATOM      7  C   UNL     1      45.520   4.567   9.778  0.00  0.00    +0.000 A 
BRANCH   6   8
ATOM      8  C   UNL     1      45.914   2.722   8.119  0.00  0.00    +0.000 A 
ATOM      9  C   UNL     1      46.159   3.510   6.984  0.00  0.00    +0.000 A 
ATOM     10  C   UNL     1      46.867   3.000   5.899  0.00  0.00    +0.000 A 
ATOM     11  C   UNL     1      47.329   1.700   5.970  0.00  0.00    +0.000 A 
ATOM     12  N   UNL     1      47.114   0.891   7.026  0.00  0.00    +0.000 NA
ATOM     13  C   UNL     1      46.413   1.418   8.064  0.00  0.00    +0.000 A 
ENDBRANCH   6   8
ENDBRANCH   1   2
BRANCH   1  14
ATOM     14  O   UNL     1      46.478   6.852  11.219  0.00  0.00    +0.000 OA
BRANCH  14  18
ATOM     15  C   UNL     1      48.298   6.553  14.897  0.00  0.00    +0.000 A 
ATOM     16  C   UNL     1      48.413   7.735  14.163  0.00  0.00    +0.000 A 
ATOM     17  C   UNL     1      47.793   7.823  12.915  0.00  0.00    +0.000 A 
ATOM     18  C   UNL     1      47.080   6.726  12.453  0.00  0.00    +0.000 A 
ATOM     19  N   UNL     1      46.963   5.568  13.138  0.00  0.00    +0.000 NA
ATOM     20  C   UNL     1      47.582   5.502  14.340  0.00  0.00    +0.000 A 
BRANCH  15  22
ATOM     21  N   UNL     1      48.320   6.965  17.291  0.00  0.00    +0.000 N 
ATOM     22  C   UNL     1      48.913   6.352  16.223  0.00  0.00    +0.000 C 
ATOM     23  O   UNL     1      49.890   5.631  16.370  0.00  0.00    +0.000 OA
ATOM     24  H   UNL     1      48.685   6.719  18.203  0.00  0.00    +0.000 HD
ATOM     25  H   UNL     1      47.385   7.344  17.251  0.00  0.00    +0.000 HD
ENDBRANCH  15  22
ENDBRANCH  14  18
ENDBRANCH   1  14
TORSDOF 5
ENDMDL
MODEL 8
REMARK VINA RESULT:    -6.639      4.582      8.236
REMARK INTER + INTRA:          -9.381
REMARK INTER:                  -8.711
REMARK INTRA:                  -0.670
REMARK UNBOUND:                -0.802
REMARK  Name = 
REMARK  5 active torsions:
REMARK  status: ('A' for Active; 'I' for Inactive)
REMARK    1  A    between atoms: C_2  and  C_4
REMARK    2  A    between atoms: C_7  and  O_8
REMARK    3  A    between atoms: O_8  and  C_9
REMARK    4  A    between atoms: C_9  and  C_10
REMARK    5  A    between atoms: C_14  and  C_15
REMARK                            x       y       z     vdW  Elec       q    Type
REMARK                         _______ _______ _______ _____ _____    ______ ____
ROOT
ATOM      1  C   UNL     1      48.030   6.962  13.948  0.00  0.00    +0.000 C 
ENDROOT
BRANCH   1   2
ATOM      2  C   UNL     1      46.817   7.041  13.048  0.00  0.00    +0.000 A 
ATOM      3  C   UNL     1      46.129   8.252  12.914  0.00  0.00    +0.000 A 
ATOM      4  C   UNL     1      45.041   8.348  12.052  0.00  0.00    +0.000 A 
ATOM      5  C   UNL     1      44.650   7.242  11.294  0.00  0.00    +0.000 A 
ATOM      6  C   UNL     1      45.351   6.025  11.355  0.00  0.00    +0.000 A 
ATOM      7  C   UNL     1      46.427   5.946  12.259  0.00  0.00    +0.000 A 
BRANCH   6   8
ATOM      8  C   UNL     1      45.026   4.899  10.455  0.00  0.00    +0.000 A 
ATOM      9  C   UNL     1      45.512   4.846   9.140  0.00  0.00    +0.000 A 
ATOM     10  C   UNL     1      45.258   3.743   8.328  0.00  0.00    +0.000 A 
ATOM     11  C   UNL     1      44.522   2.699   8.852  0.00  0.00    +0.000 A 
ATOM     12  N   UNL     1      44.018   2.698  10.102  0.00  0.00    +0.000 NA
ATOM     13  C   UNL     1      44.277   3.792  10.865  0.00  0.00    +0.000 A 
ENDBRANCH   6   8
ENDBRANCH   1   2
BRANCH   1  14
ATOM     14  O   UNL     1      48.250   5.609  14.362  0.00  0.00    +0.000 OA
BRANCH  14  18
ATOM     15  C   UNL     1      48.285   5.174  18.453  0.00  0.00    +0.000 A 
ATOM     16  C   UNL     1      47.534   4.294  17.671  0.00  0.00    +0.000 A 
ATOM     17  C   UNL     1      47.528   4.454  16.285  0.00  0.00    +0.000 A 
ATOM     18  C   UNL     1      48.277   5.485  15.736  0.00  0.00    +0.000 A 
ATOM     19  N   UNL     1      49.002   6.356  16.470  0.00  0.00    +0.000 NA
ATOM     20  C   UNL     1      48.983   6.188  17.813  0.00  0.00    +0.000 A 
BRANCH  15  22
ATOM     21  N   UNL     1      48.497   3.857  20.484  0.00  0.00    +0.000 N 
ATOM     22  C   UNL     1      48.360   5.097  19.925  0.00  0.00    +0.000 C 
ATOM     23  O   UNL     1      48.344   6.104  20.618  0.00  0.00    +0.000 OA
ATOM     24  H   UNL     1      48.667   3.836  21.482  0.00  0.00    +0.000 HD
ATOM     25  H   UNL     1      48.771   3.045  19.948  0.00  0.00    +0.000 HD
ENDBRANCH  15  22
ENDBRANCH  14  18
ENDBRANCH   1  14
TORSDOF 5
ENDMDL
MODEL 9
REMARK VINA RESULT:    -6.315      5.458      7.475
REMARK INTER + INTRA:          -8.963
REMARK INTER:                  -8.380
REMARK INTRA:                  -0.583
REMARK UNBOUND:                -0.802
REMARK  Name = 
REMARK  5 active torsions:
REMARK  status: ('A' for Active; 'I' for Inactive)
REMARK    1  A    between atoms: C_2  and  C_4
REMARK    2  A    between atoms: C_7  and  O_8
REMARK    3  A    between atoms: O_8  and  C_9
REMARK    4  A    between atoms: C_9  and  C_10
REMARK    5  A    between atoms: C_14  and  C_15
REMARK                            x       y       z     vdW  Elec       q    Type
REMARK                         _______ _______ _______ _____ _____    ______ ____
ROOT
ATOM      1  C   UNL     1      47.060   4.302  16.020  0.00  0.00    +0.000 C 
ENDROOT
BRANCH   1   2
ATOM      2  C   UNL     1      48.180   4.460  17.024  0.00  0.00    +0.000 A 
ATOM      3  C   UNL     1      48.012   5.308  18.125  0.00  0.00    +0.000 A 
ATOM      4  C   UNL     1      49.018   5.426  19.079  0.00  0.00    +0.000 A 
ATOM      5  C   UNL     1      50.188   4.673  18.957  0.00  0.00    +0.000 A 
ATOM      6  C   UNL     1      50.371   3.766  17.898  0.00  0.00    +0.000 A 
ATOM      7  C   UNL     1      49.352   3.691  16.931  0.00  0.00    +0.000 A 
BRANCH   6   8
ATOM      8  C   UNL     1      51.544   2.869  17.842  0.00  0.00    +0.000 A 
ATOM      9  C   UNL     1      52.796   3.266  18.334  0.00  0.00    +0.000 A 
ATOM     10  C   UNL     1      53.874   2.384  18.341  0.00  0.00    +0.000 A 
ATOM     11  C   UNL     1      53.678   1.106  17.857  0.00  0.00    +0.000 A 
ATOM     12  N   UNL     1      52.503   0.671  17.359  0.00  0.00    +0.000 NA
ATOM     13  C   UNL     1      51.475   1.558  17.360  0.00  0.00    +0.000 A 
ENDBRANCH   6   8
ENDBRANCH   1   2
BRANCH   1  14
ATOM     14  O   UNL     1      47.595   4.006  14.726  0.00  0.00    +0.000 OA
BRANCH  14  18
ATOM     15  C   UNL     1      44.867   4.751  11.737  0.00  0.00    +0.000 A 
ATOM     16  C   UNL     1      45.474   5.819  12.401  0.00  0.00    +0.000 A 
ATOM     17  C   UNL     1      46.395   5.553  13.415  0.00  0.00    +0.000 A 
ATOM     18  C   UNL     1      46.676   4.229  13.722  0.00  0.00    +0.000 A 
ATOM     19  N   UNL     1      46.096   3.179  13.103  0.00  0.00    +0.000 NA
ATOM     20  C   UNL     1      45.197   3.461  12.131  0.00  0.00    +0.000 A 
BRANCH  15  22
ATOM     21  N   UNL     1      44.215   4.439   9.418  0.00  0.00    +0.000 N 
ATOM     22  C   UNL     1      43.880   4.918  10.653  0.00  0.00    +0.000 C 
ATOM     23  O   UNL     1      42.787   5.427  10.859  0.00  0.00    +0.000 OA
ATOM     24  H   UNL     1      43.480   4.455   8.721  0.00  0.00    +0.000 HD
ATOM     25  H   UNL     1      44.979   3.794   9.272  0.00  0.00    +0.000 HD
ENDBRANCH  15  22
ENDBRANCH  14  18
ENDBRANCH   1  14
TORSDOF 5
ENDMDL
