MODEL 1
REMARK VINA RESULT:    -7.746      0.000      0.000
REMARK INTER + INTRA:          -9.701
REMARK INTER:                  -9.331
REMARK INTRA:                  -0.370
REMARK UNBOUND:                -0.370
REMARK  Name = 
REMARK  4 active torsions:
REMARK  status: ('A' for Active; 'I' for Inactive)
REMARK    1  A    between atoms: N_1  and  C_2
REMARK    2  A    between atoms: C_2  and  C_3
REMARK    3  A    between atoms: C_7  and  C_8
REMARK    4  A    between atoms: C_8  and  N_9
REMARK                            x       y       z     vdW  Elec       q    Type
REMARK                         _______ _______ _______ _____ _____    ______ ____
ROOT
ATOM      1  C   UNL     1      46.502   2.018   7.678  0.00  0.00    +0.000 A 
ATOM      2  C   UNL     1      46.660   3.288   7.136  0.00  0.00    +0.000 A 
ATOM      3  N   UNL     1      46.034   4.395   7.593  0.00  0.00    +0.000 NA
ATOM      4  C   UNL     1      45.203   4.234   8.645  0.00  0.00    +0.000 A 
ATOM      5  C   UNL     1      44.957   3.014   9.265  0.00  0.00    +0.000 A 
ATOM      6  C   UNL     1      45.629   1.893   8.766  0.00  0.00    +0.000 A 
ENDROOT
BRANCH   1   7
ATOM      7  C   UNL     1      47.248   0.838   7.126  0.00  0.00    +0.000 C 
BRANCH   7   8
ATOM      8  N   UNL     1      46.805  -0.415   7.724  0.00  0.00    +0.000 NA
ATOM      9  H   UNL     1      46.217  -0.913   7.059  0.00  0.00    +0.000 HD
ATOM     10  H   UNL     1      46.209  -0.210   8.527  0.00  0.00    +0.000 HD
ENDBRANCH   7   8
ENDBRANCH   1   7
BRANCH   5  11
ATOM     11  C   UNL     1      43.947   2.905  10.364  0.00  0.00    +0.000 C 
BRANCH  11  12
ATOM     12  N   UNL     1      43.948   4.028  11.301  0.00  0.00    +0.000 N 
ATOM     13  C   UNL     1      43.186   5.161  11.123  0.00  0.00    +0.000 A 
ATOM     14  C   UNL     1      43.827   6.200  11.752  0.00  0.00    +0.000 A 
ATOM     15  C   UNL     1      44.963   5.669  12.423  0.00  0.00    +0.000 A 
ATOM     16  C   UNL     1      46.000   6.228  13.179  0.00  0.00    +0.000 A 
ATOM     17  N   UNL     1      46.927   5.437  13.776  0.00  0.00    +0.000 NA
ATOM     18  C   UNL     1      46.820   4.098  13.634  0.00  0.00    +0.000 A 
ATOM     19  C   UNL     1      45.867   3.448  12.863  0.00  0.00    +0.000 A 
ATOM     20  C   UNL     1      44.942   4.284  12.227  0.00  0.00    +0.000 A 
ENDBRANCH  11  12
ENDBRANCH   5  11
TORSDOF 4
ENDMDL
MODEL 2
REMARK VINA RESULT:    -7.482      1.301      5.844
REMARK INTER + INTRA:          -9.383
REMARK INTER:                  -8.991
REMARK INTRA:                  -0.392
REMARK UNBOUND:                -0.370
REMARK  Name = 
REMARK  4 active torsions:
REMARK  status: ('A' for Active; 'I' for Inactive)
REMARK    1  A    between atoms: N_1  and  C_2
REMARK    2  A    between atoms: C_2  and  C_3
REMARK    3  A    between atoms: C_7  and  C_8
REMARK    4  A    between atoms: C_8  and  N_9
REMARK                            x       y       z     vdW  Elec       q    Type
REMARK                         _______ _______ _______ _____ _____    ______ ____
ROOT
ATOM      1  C   UNL     1      45.478   4.928  12.998  0.00  0.00    +0.000 A 
ATOM      2  C   UNL     1      44.167   5.312  13.255  0.00  0.00    +0.000 A 
ATOM      3  N   UNL     1      43.233   5.517  12.301  0.00  0.00    +0.000 NA
ATOM      4  C   UNL     1      43.620   5.335  11.020  0.00  0.00    +0.000 A 
ATOM      5  C   UNL     1      44.903   4.962  10.638  0.00  0.00    +0.000 A 
ATOM      6  C   UNL     1      45.840   4.752  11.657  0.00  0.00    +0.000 A 
ENDROOT
BRANCH   1   7
ATOM      7  C   UNL     1      46.455   4.700  14.115  0.00  0.00    +0.000 C 
BRANCH   7   8
ATOM      8  N   UNL     1      47.162   3.434  13.971  0.00  0.00    +0.000 NA
ATOM      9  H   UNL     1      47.105   3.129  13.001  0.00  0.00    +0.000 HD
ATOM     10  H   UNL     1      46.683   2.719  14.519  0.00  0.00    +0.000 HD
ENDBRANCH   7   8
ENDBRANCH   1   7
BRANCH   5  11
ATOM     11  C   UNL     1      45.276   4.875   9.192  0.00  0.00    +0.000 C 
BRANCH  11  12
ATOM     12  N   UNL     1      45.206   3.527   8.628  0.00  0.00    +0.000 N 
ATOM     13  C   UNL     1      44.405   2.534   9.146  0.00  0.00    +0.000 A 
ATOM     14  C   UNL     1      44.987   1.326   8.841  0.00  0.00    +0.000 A 
ATOM     15  C   UNL     1      46.123   1.584   8.025  0.00  0.00    +0.000 A 
ATOM     16  C   UNL     1      47.114   0.779   7.451  0.00  0.00    +0.000 A 
ATOM     17  N   UNL     1      48.053   1.315   6.632  0.00  0.00    +0.000 NA
ATOM     18  C   UNL     1      48.004   2.640   6.374  0.00  0.00    +0.000 A 
ATOM     19  C   UNL     1      47.100   3.532   6.934  0.00  0.00    +0.000 A 
ATOM     20  C   UNL     1      46.162   2.964   7.803  0.00  0.00    +0.000 A 
ENDBRANCH  11  12
ENDBRANCH   5  11
TORSDOF 4
ENDMDL
MODEL 3
REMARK VINA RESULT:    -7.479      1.645      2.264
REMARK INTER + INTRA:          -9.379
REMARK INTER:                  -8.965
REMARK INTRA:                  -0.414
REMARK UNBOUND:                -0.370
REMARK  Name = 
REMARK  4 active torsions:
REMARK  status: ('A' for Active; 'I' for Inactive)
REMARK    1  A    between atoms: N_1  and  C_2
REMARK    2  A    between atoms: C_2  and  C_3
REMARK    3  A    between atoms: C_7  and  C_8
REMARK    4  A    between atoms: C_8  and  N_9
REMARK                            x       y       z     vdW  Elec       q    Type
REMARK                         _______ _______ _______ _____ _____    ______ ____
ROOT
ATOM      1  C   UNL     1      46.704   2.473   6.752  0.00  0.00    +0.000 A 
ATOM      2  C   UNL     1      46.786   1.235   7.379  0.00  0.00    +0.000 A 
ATOM      3  N   UNL     1      46.045   0.873   8.450  0.00  0.00    +0.000 NA
ATOM      4  C   UNL     1      45.176   1.791   8.928  0.00  0.00    +0.000 A 
ATOM      5  C   UNL     1      45.013   3.063   8.392  0.00  0.00    +0.000 A 
ATOM      6  C   UNL     1      45.794   3.397   7.280  0.00  0.00    +0.000 A 
ENDROOT
BRANCH   1   7
ATOM      7  C   UNL     1      47.549   2.795   5.554  0.00  0.00    +0.000 C 
BRANCH   7   8
ATOM      8  N   UNL     1      48.590   1.797   5.336  0.00  0.00    +0.000 NA
ATOM      9  H   UNL     1      48.789   1.326   6.216  0.00  0.00    +0.000 HD
ATOM     10  H   UNL     1      49.454   2.268   5.068  0.00  0.00    +0.000 HD
ENDBRANCH   7   8
ENDBRANCH   1   7
BRANCH   5  11
ATOM     11  C   UNL     1      44.098   4.054   9.041  0.00  0.00    +0.000 C 
BRANCH  11  12
ATOM     12  N   UNL     1      44.254   4.162  10.491  0.00  0.00    +0.000 N 
ATOM     13  C   UNL     1      43.391   3.575  11.389  0.00  0.00    +0.000 A 
ATOM     14  C   UNL     1      43.416   4.321  12.543  0.00  0.00    +0.000 A 
ATOM     15  C   UNL     1      44.399   5.336  12.384  0.00  0.00    +0.000 A 
ATOM     16  C   UNL     1      44.840   6.400  13.180  0.00  0.00    +0.000 A 
ATOM     17  N   UNL     1      45.880   7.176  12.785  0.00  0.00    +0.000 NA
ATOM     18  C   UNL     1      46.487   6.892  11.612  0.00  0.00    +0.000 A 
ATOM     19  C   UNL     1      46.094   5.899  10.726  0.00  0.00    +0.000 A 
ATOM     20  C   UNL     1      44.997   5.134  11.137  0.00  0.00    +0.000 A 
ENDBRANCH  11  12
ENDBRANCH   5  11
TORSDOF 4
ENDMDL
MODEL 4
REMARK VINA RESULT:    -6.903      1.371      2.097
REMARK INTER + INTRA:          -8.685
REMARK INTER:                  -8.094
REMARK INTRA:                  -0.592
REMARK UNBOUND:                -0.370
REMARK  Name = 
REMARK  4 active torsions:
REMARK  status: ('A' for Active; 'I' for Inactive)
REMARK    1  A    between atoms: N_1  and  C_2
REMARK    2  A    between atoms: C_2  and  C_3
REMARK    3  A    between atoms: C_7  and  C_8
REMARK    4  A    between atoms: C_8  and  N_9
REMARK                            x       y       z     vdW  Elec       q    Type
REMARK                         _______ _______ _______ _____ _____    ______ ____
ROOT
ATOM      1  C   UNL     1      45.988   3.503   8.028  0.00  0.00    +0.000 A 
ATOM      2  C   UNL     1      45.805   2.146   8.267  0.00  0.00    +0.000 A 
ATOM      3  N   UNL     1      44.939   1.642   9.173  0.00  0.00    +0.000 NA
ATOM      4  C   UNL     1      44.216   2.534   9.886  0.00  0.00    +0.000 A 
ATOM      5  C   UNL     1      44.318   3.912   9.744  0.00  0.00    +0.000 A 
ATOM      6  C   UNL     1      45.222   4.394   8.789  0.00  0.00    +0.000 A 
ENDROOT
BRANCH   1   7
ATOM      7  C   UNL     1      46.957   3.987   6.988  0.00  0.00    +0.000 C 
BRANCH   7   8
ATOM      8  N   UNL     1      47.929   2.961   6.630  0.00  0.00    +0.000 NA
ATOM      9  H   UNL     1      48.864   3.362   6.659  0.00  0.00    +0.000 HD
ATOM     10  H   UNL     1      47.775   2.678   5.662  0.00  0.00    +0.000 HD
ENDBRANCH   7   8
ENDBRANCH   1   7
BRANCH   5  11
ATOM     11  C   UNL     1      43.551   4.833  10.640  0.00  0.00    +0.000 C 
BRANCH  11  12
ATOM     12  N   UNL     1      44.385   5.682  11.491  0.00  0.00    +0.000 N 
ATOM     13  C   UNL     1      44.562   7.030  11.270  0.00  0.00    +0.000 A 
ATOM     14  C   UNL     1      45.786   7.381  11.787  0.00  0.00    +0.000 A 
ATOM     15  C   UNL     1      46.330   6.238  12.434  0.00  0.00    +0.000 A 
ATOM     16  C   UNL     1      47.537   5.971  13.090  0.00  0.00    +0.000 A 
ATOM     17  N   UNL     1      47.747   4.774  13.695  0.00  0.00    +0.000 NA
ATOM     18  C   UNL     1      46.762   3.851  13.657  0.00  0.00    +0.000 A 
ATOM     19  C   UNL     1      45.555   3.994  12.988  0.00  0.00    +0.000 A 
ATOM     20  C   UNL     1      45.373   5.222  12.342  0.00  0.00    +0.000 A 
ENDBRANCH  11  12
ENDBRANCH   5  11
TORSDOF 4
ENDMDL
MODEL 5
REMARK VINA RESULT:    -6.796      1.575      5.415
REMARK INTER + INTRA:          -8.556
REMARK INTER:                  -8.001
REMARK INTRA:                  -0.555
REMARK UNBOUND:                -0.370
REMARK  Name = 
REMARK  4 active torsions:
REMARK  status: ('A' for Active; 'I' for Inactive)
REMARK    1  A    between atoms: N_1  and  C_2
REMARK    2  A    between atoms: C_2  and  C_3
REMARK    3  A    between atoms: C_7  and  C_8
REMARK    4  A    between atoms: C_8  and  N_9
REMARK                            x       y       z     vdW  Elec       q    Type
REMARK                         _______ _______ _______ _____ _____    ______ ____
ROOT
ATOM      1  C   UNL     1      46.918   5.162  14.038  0.00  0.00    +0.000 A 
ATOM      2  C   UNL     1      47.974   5.896  13.513  0.00  0.00    +0.000 A 
ATOM      3  N   UNL     1      47.895   6.655  12.398  0.00  0.00    +0.000 NA
ATOM      4  C   UNL     1      46.702   6.684  11.765  0.00  0.00    +0.000 A 
ATOM      5  C   UNL     1      45.577   5.986  12.188  0.00  0.00    +0.000 A 
ATOM      6  C   UNL     1      45.699   5.217  13.351  0.00  0.00    +0.000 A 
ENDROOT
BRANCH   1   7
ATOM      7  C   UNL     1      47.079   4.356  15.295  0.00  0.00    +0.000 C 
BRANCH   7   8
ATOM      8  N   UNL     1      47.708   3.066  15.038  0.00  0.00    +0.000 NA
ATOM      9  H   UNL     1      47.629   2.486  15.871  0.00  0.00    +0.000 HD
ATOM     10  H   UNL     1      48.708   3.206  14.887  0.00  0.00    +0.000 HD
ENDBRANCH   7   8
ENDBRANCH   1   7
BRANCH   5  11
ATOM     11  C   UNL     1      44.320   5.996  11.376  0.00  0.00    +0.000 C 
BRANCH  11  12
ATOM     12  N   UNL     1      43.958   4.699  10.805  0.00  0.00    +0.000 N 
ATOM     13  C   UNL     1      43.220   3.755  11.483  0.00  0.00    +0.000 A 
ATOM     14  C   UNL     1      43.566   2.520  10.991  0.00  0.00    +0.000 A 
ATOM     15  C   UNL     1      44.467   2.719   9.909  0.00  0.00    +0.000 A 
ATOM     16  C   UNL     1      45.179   1.862   9.061  0.00  0.00    +0.000 A 
ATOM     17  N   UNL     1      45.920   2.357   8.039  0.00  0.00    +0.000 NA
ATOM     18  C   UNL     1      45.948   3.695   7.851  0.00  0.00    +0.000 A 
ATOM     19  C   UNL     1      45.326   4.631   8.664  0.00  0.00    +0.000 A 
ATOM     20  C   UNL     1      44.596   4.101   9.733  0.00  0.00    +0.000 A 
ENDBRANCH  11  12
ENDBRANCH   5  11
TORSDOF 4
ENDMDL
MODEL 6
REMARK VINA RESULT:    -6.716      1.499      5.976
REMARK INTER + INTRA:          -8.459
REMARK INTER:                  -8.578
REMARK INTRA:                   0.118
REMARK UNBOUND:                -0.370
REMARK  Name = 
REMARK  4 active torsions:
REMARK  status: ('A' for Active; 'I' for Inactive)
REMARK    1  A    between atoms: N_1  and  C_2
REMARK    2  A    between atoms: C_2  and  C_3
REMARK    3  A    between atoms: C_7  and  C_8
REMARK    4  A    between atoms: C_8  and  N_9
REMARK                            x       y       z     vdW  Elec       q    Type
REMARK                         _______ _______ _______ _____ _____    ______ ____
ROOT
ATOM      1  C   UNL     1      46.873   6.343  12.510  0.00  0.00    +0.000 A 
ATOM      2  C   UNL     1      46.116   5.570  13.383  0.00  0.00    +0.000 A 
ATOM      3  N   UNL     1      45.167   4.691  12.993  0.00  0.00    +0.000 NA
ATOM      4  C   UNL     1      44.952   4.575  11.665  0.00  0.00    +0.000 A 
ATOM      5  C   UNL     1      45.637   5.301  10.698  0.00  0.00    +0.000 A 
ATOM      6  C   UNL     1      46.618   6.195  11.141  0.00  0.00    +0.000 A 
ENDROOT
BRANCH   1   7
ATOM      7  C   UNL     1      47.925   7.286  13.019  0.00  0.00    +0.000 C 
BRANCH   7   8
ATOM      8  N   UNL     1      49.182   6.601  13.295  0.00  0.00    +0.000 NA
ATOM      9  H   UNL     1      49.001   5.606  13.409  0.00  0.00    +0.000 HD
ATOM     10  H   UNL     1      49.548   6.924  14.191  0.00  0.00    +0.000 HD
ENDBRANCH   7   8
ENDBRANCH   1   7
BRANCH   5  11
ATOM     11  C   UNL     1      45.272   5.183   9.251  0.00  0.00    +0.000 C 
BRANCH  11  12
ATOM     12  N   UNL     1      45.134   3.808   8.772  0.00  0.00    +0.000 N 
ATOM     13  C   UNL     1      44.305   2.882   9.363  0.00  0.00    +0.000 A 
ATOM     14  C   UNL     1      44.830   1.635   9.120  0.00  0.00    +0.000 A 
ATOM     15  C   UNL     1      45.957   1.796   8.268  0.00  0.00    +0.000 A 
ATOM     16  C   UNL     1      46.902   0.917   7.725  0.00  0.00    +0.000 A 
ATOM     17  N   UNL     1      47.844   1.364   6.856  0.00  0.00    +0.000 NA
ATOM     18  C   UNL     1      47.843   2.672   6.520  0.00  0.00    +0.000 A 
ATOM     19  C   UNL     1      46.989   3.633   7.043  0.00  0.00    +0.000 A 
ATOM     20  C   UNL     1      46.048   3.157   7.963  0.00  0.00    +0.000 A 
ENDBRANCH  11  12
ENDBRANCH   5  11
TORSDOF 4
ENDMDL
MODEL 7
REMARK VINA RESULT:    -6.227      1.860      3.396
REMARK INTER + INTRA:          -7.871
REMARK INTER:                  -7.433
REMARK INTRA:                  -0.438
REMARK UNBOUND:                -0.370
REMARK  Name = 
REMARK  4 active torsions:
REMARK  status: ('A' for Active; 'I' for Inactive)
REMARK    1  A    between atoms: N_1  and  C_2
REMARK    2  A    between atoms: C_2  and  C_3
REMARK    3  A    between atoms: C_7  and  C_8
REMARK    4  A    between atoms: C_8  and  N_9
REMARK                            x       y       z     vdW  Elec       q    Type
REMARK                         _______ _______ _______ _____ _____    ______ ____
ROOT
ATOM      1  C   UNL     1      45.340   3.252   8.471  0.00  0.00    +0.000 A 
ATOM      2  C   UNL     1      44.513   2.234   8.932  0.00  0.00    +0.000 A 
ATOM      3  N   UNL     1      43.849   2.266  10.108  0.00  0.00    +0.000 NA
ATOM      4  C   UNL     1      44.016   3.367  10.872  0.00  0.00    +0.000 A 
ATOM      5  C   UNL     1      44.823   4.443  10.524  0.00  0.00    +0.000 A 
ATOM      6  C   UNL     1      45.489   4.375   9.295  0.00  0.00    +0.000 A 
ENDROOT
BRANCH   1   7
ATOM      7  C   UNL     1      46.031   3.152   7.142  0.00  0.00    +0.000 C 
BRANCH   7   8
ATOM      8  N   UNL     1      46.832   4.335   6.853  0.00  0.00    +0.000 NA
ATOM      9  H   UNL     1      46.515   4.746   5.978  0.00  0.00    +0.000 HD
ATOM     10  H   UNL     1      47.800   4.054   6.697  0.00  0.00    +0.000 HD
ENDBRANCH   7   8
ENDBRANCH   1   7
BRANCH   5  11
ATOM     11  C   UNL     1      45.030   5.583  11.472  0.00  0.00    +0.000 C 
BRANCH  11  12
ATOM     12  N   UNL     1      46.171   5.421  12.373  0.00  0.00    +0.000 N 
ATOM     13  C   UNL     1      46.157   4.584  13.465  0.00  0.00    +0.000 A 
ATOM     14  C   UNL     1      47.039   5.088  14.391  0.00  0.00    +0.000 A 
ATOM     15  C   UNL     1      47.688   6.210  13.806  0.00  0.00    +0.000 A 
ATOM     16  C   UNL     1      48.632   7.138  14.262  0.00  0.00    +0.000 A 
ATOM     17  N   UNL     1      49.139   8.079  13.427  0.00  0.00    +0.000 NA
ATOM     18  C   UNL     1      48.720   8.094  12.143  0.00  0.00    +0.000 A 
ATOM     19  C   UNL     1      47.751   7.258  11.606  0.00  0.00    +0.000 A 
ATOM     20  C   UNL     1      47.216   6.319  12.495  0.00  0.00    +0.000 A 
ENDBRANCH  11  12
ENDBRANCH   5  11
TORSDOF 4
ENDMDL
MODEL 8
REMARK VINA RESULT:    -6.085      1.870      5.680
REMARK INTER + INTRA:          -7.699
REMARK INTER:                  -7.334
REMARK INTRA:                  -0.365
REMARK UNBOUND:                -0.370
REMARK  Name = 
REMARK  4 active torsions:
REMARK  status: ('A' for Active; 'I' for Inactive)
REMARK    1  A    between atoms: N_1  and  C_2
REMARK    2  A    between atoms: C_2  and  C_3
REMARK    3  A    between atoms: C_7  and  C_8
REMARK    4  A    between atoms: C_8  and  N_9
REMARK                            x       y       z     vdW  Elec       q    Type
REMARK                         _______ _______ _______ _____ _____    ______ ____
ROOT
ATOM      1  C   UNL     1      48.193   6.952  12.948  0.00  0.00    +0.000 A 
ATOM      2  C   UNL     1      48.042   6.028  13.975  0.00  0.00    +0.000 A 
ATOM      3  N   UNL     1      46.948   5.253  14.147  0.00  0.00    +0.000 NA
ATOM      4  C   UNL     1      45.948   5.405  13.252  0.00  0.00    +0.000 A 
ATOM      5  C   UNL     1      45.980   6.301  12.191  0.00  0.00    +0.000 A 
ATOM      6  C   UNL     1      47.132   7.081  12.044  0.00  0.00    +0.000 A 
ENDROOT
BRANCH   1   7
ATOM      7  C   UNL     1      49.449   7.765  12.812  0.00  0.00    +0.000 C 
BRANCH   7   8
ATOM      8  N   UNL     1      50.327   7.242  11.772  0.00  0.00    +0.000 NA
ATOM      9  H   UNL     1      51.135   7.854  11.680  0.00  0.00    +0.000 HD
ATOM     10  H   UNL     1      49.842   7.279  10.875  0.00  0.00    +0.000 HD
ENDBRANCH   7   8
ENDBRANCH   1   7
BRANCH   5  11
ATOM     11  C   UNL     1      44.789   6.475  11.301  0.00  0.00    +0.000 C 
BRANCH  11  12
ATOM     12  N   UNL     1      44.189   5.224  10.841  0.00  0.00    +0.000 N 
ATOM     13  C   UNL     1      43.278   4.505  11.582  0.00  0.00    +0.000 A 
ATOM     14  C   UNL     1      43.385   3.186  11.212  0.00  0.00    +0.000 A 
ATOM     15  C   UNL     1      44.315   3.109  10.139  0.00  0.00    +0.000 A 
ATOM     16  C   UNL     1      44.855   2.056   9.391  0.00  0.00    +0.000 A 
ATOM     17  N   UNL     1      45.686   2.304   8.347  0.00  0.00    +0.000 NA
ATOM     18  C   UNL     1      45.971   3.588   8.040  0.00  0.00    +0.000 A 
ATOM     19  C   UNL     1      45.534   4.697   8.750  0.00  0.00    +0.000 A 
ATOM     20  C   UNL     1      44.708   4.417   9.844  0.00  0.00    +0.000 A 
ENDBRANCH  11  12
ENDBRANCH   5  11
TORSDOF 4
ENDMDL
MODEL 9
REMARK VINA RESULT:    -5.766      2.297      6.059
REMARK INTER + INTRA:          -7.315
REMARK INTER:                  -7.035
REMARK INTRA:                  -0.280
REMARK UNBOUND:                -0.370
REMARK  Name = 
REMARK  4 active torsions:
REMARK  status: ('A' for Active; 'I' for Inactive)
REMARK    1  A    between atoms: N_1  and  C_2
REMARK    2  A    between atoms: C_2  and  C_3
REMARK    3  A    between atoms: C_7  and  C_8
REMARK    4  A    between atoms: C_8  and  N_9
REMARK                            x       y       z     vdW  Elec       q    Type
REMARK                         _______ _______ _______ _____ _____    ______ ____
ROOT
ATOM      1  C   UNL     1      45.115   8.975  11.886  0.00  0.00    +0.000 A 
ATOM      2  C   UNL     1      46.369   9.492  12.189  0.00  0.00    +0.000 A 
ATOM      3  N   UNL     1      47.401   8.758  12.661  0.00  0.00    +0.000 NA
ATOM      4  C   UNL     1      47.176   7.439  12.846  0.00  0.00    +0.000 A 
ATOM      5  C   UNL     1      45.963   6.811  12.589  0.00  0.00    +0.000 A 
ATOM      6  C   UNL     1      44.921   7.605  12.095  0.00  0.00    +0.000 A 
ENDROOT
BRANCH   1   7
ATOM      7  C   UNL     1      44.022   9.853  11.346  0.00  0.00    +0.000 C 
BRANCH   7   8
ATOM      8  N   UNL     1      42.913   9.074  10.809  0.00  0.00    +0.000 NA
ATOM      9  H   UNL     1      42.342   9.672  10.215  0.00  0.00    +0.000 HD
ATOM     10  H   UNL     1      42.308   8.781  11.577  0.00  0.00    +0.000 HD
ENDBRANCH   7   8
ENDBRANCH   1   7
BRANCH   5  11
ATOM     11  C   UNL     1      45.767   5.363  12.913  0.00  0.00    +0.000 C 
BRANCH  11  12
ATOM     12  N   UNL     1      44.778   4.684  12.076  0.00  0.00    +0.000 N 
ATOM     13  C   UNL     1      43.780   3.884  12.585  0.00  0.00    +0.000 A 
ATOM     14  C   UNL     1      43.451   2.961  11.621  0.00  0.00    +0.000 A 
ATOM     15  C   UNL     1      44.198   3.269  10.451  0.00  0.00    +0.000 A 
ATOM     16  C   UNL     1      44.320   2.677   9.188  0.00  0.00    +0.000 A 
ATOM     17  N   UNL     1      45.071   3.260   8.220  0.00  0.00    +0.000 NA
ATOM     18  C   UNL     1      45.689   4.428   8.498  0.00  0.00    +0.000 A 
ATOM     19  C   UNL     1      45.678   5.066   9.730  0.00  0.00    +0.000 A 
ATOM     20  C   UNL     1      44.926   4.430  10.724  0.00  0.00    +0.000 A 
ENDBRANCH  11  12
ENDBRANCH   5  11
TORSDOF 4
ENDMDL
