MODEL 1
REMARK VINA RESULT:    -6.967      0.000      0.000
REMARK INTER + INTRA:         -10.813
REMARK INTER:                  -9.615
REMARK INTRA:                  -1.198
REMARK UNBOUND:                -1.198
REMARK  Name = 
REMARK  7 active torsions:
REMARK  status: ('A' for Active; 'I' for Inactive)
REMARK    1  A    between atoms: C_2  and  C_20
REMARK    2  A    between atoms: N_3  and  C_4
REMARK    3  A    between atoms: C_4  and  C_5
REMARK    4  A    between atoms: C_8  and  C_9
REMARK    5  A    between atoms: C_9  and  C_10
REMARK    6  A    between atoms: C_10  and  O_11
REMARK    7  A    between atoms: C_10  and  C_12
REMARK                            x       y       z     vdW  Elec       q    Type
REMARK                         _______ _______ _______ _____ _____    ______ ____
ROOT
ATOM      1  C   UNL     1      46.726   7.307  12.917  0.00  0.00    +0.000 A 
ATOM      2  C   UNL     1      45.655   7.899  12.246  0.00  0.00    +0.000 A 
ATOM      3  C   UNL     1      44.818   7.118  11.454  0.00  0.00    +0.000 A 
ATOM      4  C   UNL     1      45.089   5.758  11.323  0.00  0.00    +0.000 A 
ATOM      5  N   UNL     1      46.129   5.162  11.954  0.00  0.00    +0.000 NA
ATOM      6  C   UNL     1      46.922   5.945  12.724  0.00  0.00    +0.000 A 
ENDROOT
BRANCH   1   7
ATOM      7  C   UNL     1      47.644   8.102  13.795  0.00  0.00    +0.000 C 
BRANCH   7  10
ATOM      8  O   UNL     1      50.137   7.100  14.627  0.00  0.00    +0.000 OA
ATOM      9  C   UNL     1      49.173   6.996  15.382  0.00  0.00    +0.000 C 
ATOM     10  N   UNL     1      47.919   7.426  15.034  0.00  0.00    +0.000 N 
ATOM     11  H   UNL     1      47.204   7.494  15.753  0.00  0.00    +0.000 HD
BRANCH   9  12
ATOM     12  C   UNL     1      49.288   6.350  16.693  0.00  0.00    +0.000 A 
ATOM     13  C   UNL     1      50.014   6.960  17.709  0.00  0.00    +0.000 A 
ATOM     14  S   UNL     1      50.080   6.041  19.146  0.00  0.00    +0.000 S 
ATOM     15  C   UNL     1      49.099   4.820  18.478  0.00  0.00    +0.000 A 
ATOM     16  N   UNL     1      48.749   3.725  19.205  0.00  0.00    +0.000 NA
ATOM     17  C   UNL     1      47.965   2.905  18.589  0.00  0.00    +0.000 A 
ATOM     18  N   UNL     1      47.505   3.077  17.307  0.00  0.00    +0.000 N 
ATOM     19  C   UNL     1      47.898   4.123  16.512  0.00  0.00    +0.000 A 
ATOM     20  O   UNL     1      47.587   4.167  15.325  0.00  0.00    +0.000 OA
ATOM     21  C   UNL     1      48.744   5.098  17.172  0.00  0.00    +0.000 A 
ATOM     22  H   UNL     1      46.917   2.382  16.872  0.00  0.00    +0.000 HD
ENDBRANCH   9  12
ENDBRANCH   7  10
ENDBRANCH   1   7
BRANCH   4  23
ATOM     23  C   UNL     1      44.211   4.867  10.475  0.00  0.00    +0.000 C 
BRANCH  23  24
ATOM     24  C   UNL     1      44.852   3.501  10.163  0.00  0.00    +0.000 C 
BRANCH  24  25
ATOM     25  C   UNL     1      44.352   2.868   8.838  0.00  0.00    +0.000 C 
ATOM     26  C   UNL     1      44.888   1.430   8.661  0.00  0.00    +0.000 C 
ATOM     27  C   UNL     1      46.381   1.418   8.331  0.00  0.00    +0.000 C 
ATOM     28  N   UNL     1      46.664   2.194   7.120  0.00  0.00    +0.000 NA
ATOM     29  C   UNL     1      46.214   3.580   7.252  0.00  0.00    +0.000 C 
ATOM     30  C   UNL     1      44.723   3.670   7.580  0.00  0.00    +0.000 C 
ATOM     31  H   UNL     1      46.174   1.761   6.337  0.00  0.00    +0.000 HD
ENDBRANCH  24  25
BRANCH  24  32
ATOM     32  O   UNL     1      44.571   2.571  11.219  0.00  0.00    +0.000 OA
ATOM     33  H   UNL     1      45.098   2.824  11.998  0.00  0.00    +0.000 HD
ENDBRANCH  24  32
ENDBRANCH  23  24
ENDBRANCH   4  23
TORSDOF 7
ENDMDL
MODEL 2
REMARK VINA RESULT:    -6.957      2.270      3.003
REMARK INTER + INTRA:         -10.799
REMARK INTER:                  -9.706
REMARK INTRA:                  -1.093
REMARK UNBOUND:                -1.198
REMARK  Name = 
REMARK  7 active torsions:
REMARK  status: ('A' for Active; 'I' for Inactive)
REMARK    1  A    between atoms: C_2  and  C_20
REMARK    2  A    between atoms: N_3  and  C_4
REMARK    3  A    between atoms: C_4  and  C_5
REMARK    4  A    between atoms: C_8  and  C_9
REMARK    5  A    between atoms: C_9  and  C_10
REMARK    6  A    between atoms: C_10  and  O_11
REMARK    7  A    between atoms: C_10  and  C_12
REMARK                            x       y       z     vdW  Elec       q    Type
REMARK                         _______ _______ _______ _____ _____    ______ ____
ROOT
ATOM      1  C   UNL     1      47.813   6.459  13.561  0.00  0.00    +0.000 A 
ATOM      2  C   UNL     1      47.510   7.062  12.340  0.00  0.00    +0.000 A 
ATOM      3  C   UNL     1      46.481   6.552  11.553  0.00  0.00    +0.000 A 
ATOM      4  C   UNL     1      45.793   5.422  11.990  0.00  0.00    +0.000 A 
ATOM      5  N   UNL     1      46.077   4.811  13.165  0.00  0.00    +0.000 NA
ATOM      6  C   UNL     1      47.077   5.335  13.914  0.00  0.00    +0.000 A 
ENDROOT
BRANCH   1   7
ATOM      7  C   UNL     1      48.899   6.982  14.452  0.00  0.00    +0.000 C 
BRANCH   7  10
ATOM      8  O   UNL     1      49.967   5.508  16.597  0.00  0.00    +0.000 OA
ATOM      9  C   UNL     1      49.074   6.323  16.821  0.00  0.00    +0.000 C 
ATOM     10  N   UNL     1      48.478   7.051  15.825  0.00  0.00    +0.000 N 
ATOM     11  H   UNL     1      47.887   7.839  16.077  0.00  0.00    +0.000 HD
BRANCH   9  12
ATOM     12  C   UNL     1      48.543   6.531  18.173  0.00  0.00    +0.000 A 
ATOM     13  C   UNL     1      48.373   5.450  19.028  0.00  0.00    +0.000 A 
ATOM     14  S   UNL     1      47.701   5.874  20.538  0.00  0.00    +0.000 S 
ATOM     15  C   UNL     1      47.660   7.524  20.120  0.00  0.00    +0.000 A 
ATOM     16  N   UNL     1      47.200   8.459  20.995  0.00  0.00    +0.000 NA
ATOM     17  C   UNL     1      47.270   9.674  20.563  0.00  0.00    +0.000 A 
ATOM     18  N   UNL     1      47.752  10.039  19.331  0.00  0.00    +0.000 N 
ATOM     19  C   UNL     1      48.149   9.124  18.389  0.00  0.00    +0.000 A 
ATOM     20  O   UNL     1      48.433   9.473  17.247  0.00  0.00    +0.000 OA
ATOM     21  C   UNL     1      48.132   7.746  18.841  0.00  0.00    +0.000 A 
ATOM     22  H   UNL     1      47.752  11.005  19.041  0.00  0.00    +0.000 HD
ENDBRANCH   9  12
ENDBRANCH   7  10
ENDBRANCH   1   7
BRANCH   4  23
ATOM     23  C   UNL     1      44.669   4.829  11.172  0.00  0.00    +0.000 C 
BRANCH  23  24
ATOM     24  C   UNL     1      44.951   3.387  10.708  0.00  0.00    +0.000 C 
BRANCH  24  25
ATOM     25  C   UNL     1      44.299   3.035   9.345  0.00  0.00    +0.000 C 
ATOM     26  C   UNL     1      44.698   1.618   8.878  0.00  0.00    +0.000 C 
ATOM     27  C   UNL     1      46.155   1.560   8.418  0.00  0.00    +0.000 C 
ATOM     28  N   UNL     1      46.409   2.517   7.337  0.00  0.00    +0.000 NA
ATOM     29  C   UNL     1      46.088   3.885   7.743  0.00  0.00    +0.000 C 
ATOM     30  C   UNL     1      44.639   4.019   8.214  0.00  0.00    +0.000 C 
ATOM     31  H   UNL     1      45.826   2.264   6.538  0.00  0.00    +0.000 HD
ENDBRANCH  24  25
BRANCH  24  32
ATOM     32  O   UNL     1      44.457   2.452  11.677  0.00  0.00    +0.000 OA
ATOM     33  H   UNL     1      45.189   1.865  11.938  0.00  0.00    +0.000 HD
ENDBRANCH  24  32
ENDBRANCH  23  24
ENDBRANCH   4  23
TORSDOF 7
ENDMDL
MODEL 3
REMARK VINA RESULT:    -6.892      3.286      4.864
REMARK INTER + INTRA:         -10.709
REMARK INTER:                  -9.394
REMARK INTRA:                  -1.315
REMARK UNBOUND:                -1.198
REMARK  Name = 
REMARK  7 active torsions:
REMARK  status: ('A' for Active; 'I' for Inactive)
REMARK    1  A    between atoms: C_2  and  C_20
REMARK    2  A    between atoms: N_3  and  C_4
REMARK    3  A    between atoms: C_4  and  C_5
REMARK    4  A    between atoms: C_8  and  C_9
REMARK    5  A    between atoms: C_9  and  C_10
REMARK    6  A    between atoms: C_10  and  O_11
REMARK    7  A    between atoms: C_10  and  C_12
REMARK                            x       y       z     vdW  Elec       q    Type
REMARK                         _______ _______ _______ _____ _____    ______ ____
ROOT
ATOM      1  C   UNL     1      48.539   5.586  17.004  0.00  0.00    +0.000 A 
ATOM      2  C   UNL     1      47.675   4.522  16.742  0.00  0.00    +0.000 A 
ATOM      3  C   UNL     1      47.148   4.358  15.464  0.00  0.00    +0.000 A 
ATOM      4  C   UNL     1      47.472   5.285  14.476  0.00  0.00    +0.000 A 
ATOM      5  N   UNL     1      48.298   6.333  14.709  0.00  0.00    +0.000 NA
ATOM      6  C   UNL     1      48.803   6.462  15.959  0.00  0.00    +0.000 A 
ENDROOT
BRANCH   1   7
ATOM      7  C   UNL     1      49.147   5.794  18.358  0.00  0.00    +0.000 C 
BRANCH   7  10
ATOM      8  O   UNL     1      51.866   6.195  17.758  0.00  0.00    +0.000 OA
ATOM      9  C   UNL     1      51.528   5.156  18.320  0.00  0.00    +0.000 C 
ATOM     10  N   UNL     1      50.220   4.871  18.612  0.00  0.00    +0.000 N 
ATOM     11  H   UNL     1      50.012   4.099  19.240  0.00  0.00    +0.000 HD
BRANCH   9  12
ATOM     12  C   UNL     1      52.503   4.117  18.668  0.00  0.00    +0.000 A 
ATOM     13  C   UNL     1      53.580   4.421  19.492  0.00  0.00    +0.000 A 
ATOM     14  S   UNL     1      54.635   3.104  19.747  0.00  0.00    +0.000 S 
ATOM     15  C   UNL     1      53.664   2.070  18.806  0.00  0.00    +0.000 A 
ATOM     16  N   UNL     1      53.998   0.763  18.628  0.00  0.00    +0.000 NA
ATOM     17  C   UNL     1      53.148   0.086  17.931  0.00  0.00    +0.000 A 
ATOM     18  N   UNL     1      51.996   0.599  17.390  0.00  0.00    +0.000 N 
ATOM     19  C   UNL     1      51.662   1.926  17.477  0.00  0.00    +0.000 A 
ATOM     20  O   UNL     1      50.706   2.380  16.857  0.00  0.00    +0.000 OA
ATOM     21  C   UNL     1      52.563   2.723  18.287  0.00  0.00    +0.000 A 
ATOM     22  H   UNL     1      51.388   0.022  16.829  0.00  0.00    +0.000 HD
ENDBRANCH   9  12
ENDBRANCH   7  10
ENDBRANCH   1   7
BRANCH   4  23
ATOM     23  C   UNL     1      46.925   5.152  13.074  0.00  0.00    +0.000 C 
BRANCH  23  24
ATOM     24  C   UNL     1      45.551   5.826  12.891  0.00  0.00    +0.000 C 
BRANCH  24  25
ATOM     25  C   UNL     1      44.988   5.706  11.450  0.00  0.00    +0.000 C 
ATOM     26  C   UNL     1      43.521   6.184  11.376  0.00  0.00    +0.000 C 
ATOM     27  C   UNL     1      42.566   5.193  12.042  0.00  0.00    +0.000 C 
ATOM     28  N   UNL     1      42.674   3.862  11.436  0.00  0.00    +0.000 NA
ATOM     29  C   UNL     1      44.039   3.343  11.519  0.00  0.00    +0.000 C 
ATOM     30  C   UNL     1      45.052   4.284  10.867  0.00  0.00    +0.000 C 
ATOM     31  H   UNL     1      42.406   3.932  10.454  0.00  0.00    +0.000 HD
ENDBRANCH  24  25
BRANCH  24  32
ATOM     32  O   UNL     1      45.641   7.223  13.204  0.00  0.00    +0.000 OA
ATOM     33  H   UNL     1      44.740   7.562  13.352  0.00  0.00    +0.000 HD
ENDBRANCH  24  32
ENDBRANCH  23  24
ENDBRANCH   4  23
TORSDOF 7
ENDMDL
MODEL 4
REMARK VINA RESULT:    -6.815      3.412      5.244
REMARK INTER + INTRA:         -10.604
REMARK INTER:                  -9.604
REMARK INTRA:                  -0.999
REMARK UNBOUND:                -1.198
REMARK  Name = 
REMARK  7 active torsions:
REMARK  status: ('A' for Active; 'I' for Inactive)
REMARK    1  A    between atoms: C_2  and  C_20
REMARK    2  A    between atoms: N_3  and  C_4
REMARK    3  A    between atoms: C_4  and  C_5
REMARK    4  A    between atoms: C_8  and  C_9
REMARK    5  A    between atoms: C_9  and  C_10
REMARK    6  A    between atoms: C_10  and  O_11
REMARK    7  A    between atoms: C_10  and  C_12
REMARK                            x       y       z     vdW  Elec       q    Type
REMARK                         _______ _______ _______ _____ _____    ______ ____
ROOT
ATOM      1  C   UNL     1      47.809   4.114  16.511  0.00  0.00    +0.000 A 
ATOM      2  C   UNL     1      48.316   5.398  16.313  0.00  0.00    +0.000 A 
ATOM      3  C   UNL     1      48.021   6.086  15.139  0.00  0.00    +0.000 A 
ATOM      4  C   UNL     1      47.247   5.458  14.166  0.00  0.00    +0.000 A 
ATOM      5  N   UNL     1      46.754   4.207  14.328  0.00  0.00    +0.000 NA
ATOM      6  C   UNL     1      47.049   3.566  15.484  0.00  0.00    +0.000 A 
ENDROOT
BRANCH   1   7
ATOM      7  C   UNL     1      48.082   3.341  17.765  0.00  0.00    +0.000 C 
BRANCH   7  10
ATOM      8  O   UNL     1      49.683   1.596  16.248  0.00  0.00    +0.000 OA
ATOM      9  C   UNL     1      50.206   2.255  17.144  0.00  0.00    +0.000 C 
ATOM     10  N   UNL     1      49.487   3.098  17.949  0.00  0.00    +0.000 N 
ATOM     11  H   UNL     1      49.986   3.758  18.542  0.00  0.00    +0.000 HD
BRANCH   9  12
ATOM     12  C   UNL     1      51.636   2.141  17.448  0.00  0.00    +0.000 A 
ATOM     13  C   UNL     1      52.224   0.888  17.574  0.00  0.00    +0.000 A 
ATOM     14  S   UNL     1      53.881   0.950  17.978  0.00  0.00    +0.000 S 
ATOM     15  C   UNL     1      53.883   2.652  17.950  0.00  0.00    +0.000 A 
ATOM     16  N   UNL     1      55.020   3.357  18.199  0.00  0.00    +0.000 NA
ATOM     17  C   UNL     1      54.886   4.637  18.098  0.00  0.00    +0.000 A 
ATOM     18  N   UNL     1      53.715   5.278  17.777  0.00  0.00    +0.000 N 
ATOM     19  C   UNL     1      52.530   4.612  17.599  0.00  0.00    +0.000 A 
ATOM     20  O   UNL     1      51.474   5.223  17.462  0.00  0.00    +0.000 OA
ATOM     21  C   UNL     1      52.635   3.167  17.658  0.00  0.00    +0.000 A 
ATOM     22  H   UNL     1      53.670   6.285  17.744  0.00  0.00    +0.000 HD
ENDBRANCH   9  12
ENDBRANCH   7  10
ENDBRANCH   1   7
BRANCH   4  23
ATOM     23  C   UNL     1      46.900   6.160  12.874  0.00  0.00    +0.000 C 
BRANCH  23  24
ATOM     24  C   UNL     1      45.387   6.388  12.693  0.00  0.00    +0.000 C 
BRANCH  24  25
ATOM     25  C   UNL     1      44.864   5.996  11.286  0.00  0.00    +0.000 C 
ATOM     26  C   UNL     1      43.351   6.277  11.147  0.00  0.00    +0.000 C 
ATOM     27  C   UNL     1      42.513   5.284  11.951  0.00  0.00    +0.000 C 
ATOM     28  N   UNL     1      42.788   3.903  11.543  0.00  0.00    +0.000 NA
ATOM     29  C   UNL     1      44.205   3.570  11.697  0.00  0.00    +0.000 C 
ATOM     30  C   UNL     1      45.107   4.524  10.913  0.00  0.00    +0.000 C 
ATOM     31  H   UNL     1      42.529   3.798  10.561  0.00  0.00    +0.000 HD
ENDBRANCH  24  25
BRANCH  24  32
ATOM     32  O   UNL     1      45.068   7.771  12.902  0.00  0.00    +0.000 OA
ATOM     33  H   UNL     1      44.139   7.913  12.644  0.00  0.00    +0.000 HD
ENDBRANCH  24  32
ENDBRANCH  23  24
ENDBRANCH   4  23
TORSDOF 7
ENDMDL
MODEL 5
REMARK VINA RESULT:    -6.748      2.579      3.403
REMARK INTER + INTRA:         -10.510
REMARK INTER:                  -9.456
REMARK INTRA:                  -1.054
REMARK UNBOUND:                -1.198
REMARK  Name = 
REMARK  7 active torsions:
REMARK  status: ('A' for Active; 'I' for Inactive)
REMARK    1  A    between atoms: C_2  and  C_20
REMARK    2  A    between atoms: N_3  and  C_4
REMARK    3  A    between atoms: C_4  and  C_5
REMARK    4  A    between atoms: C_8  and  C_9
REMARK    5  A    between atoms: C_9  and  C_10
REMARK    6  A    between atoms: C_10  and  O_11
REMARK    7  A    between atoms: C_10  and  C_12
REMARK                            x       y       z     vdW  Elec       q    Type
REMARK                         _______ _______ _______ _____ _____    ______ ____
ROOT
ATOM      1  C   UNL     1      48.623   7.590  15.287  0.00  0.00    +0.000 A 
ATOM      2  C   UNL     1      48.028   8.558  14.478  0.00  0.00    +0.000 A 
ATOM      3  C   UNL     1      47.351   8.175  13.323  0.00  0.00    +0.000 A 
ATOM      4  C   UNL     1      47.309   6.825  12.983  0.00  0.00    +0.000 A 
ATOM      5  N   UNL     1      47.889   5.867  13.745  0.00  0.00    +0.000 NA
ATOM      6  C   UNL     1      48.534   6.269  14.867  0.00  0.00    +0.000 A 
ENDROOT
BRANCH   1   7
ATOM      7  C   UNL     1      49.347   7.951  16.549  0.00  0.00    +0.000 C 
BRANCH   7  10
ATOM      8  O   UNL     1      49.098   6.095  18.647  0.00  0.00    +0.000 OA
ATOM      9  C   UNL     1      50.100   6.058  17.936  0.00  0.00    +0.000 C 
ATOM     10  N   UNL     1      50.311   6.951  16.918  0.00  0.00    +0.000 N 
ATOM     11  H   UNL     1      51.050   6.765  16.245  0.00  0.00    +0.000 HD
BRANCH   9  12
ATOM     12  C   UNL     1      51.171   5.083  18.166  0.00  0.00    +0.000 A 
ATOM     13  C   UNL     1      52.342   5.472  18.804  0.00  0.00    +0.000 A 
ATOM     14  S   UNL     1      53.493   4.218  18.940  0.00  0.00    +0.000 S 
ATOM     15  C   UNL     1      52.446   3.100  18.197  0.00  0.00    +0.000 A 
ATOM     16  N   UNL     1      52.818   1.804  18.016  0.00  0.00    +0.000 NA
ATOM     17  C   UNL     1      51.909   1.058  17.483  0.00  0.00    +0.000 A 
ATOM     18  N   UNL     1      50.662   1.492  17.107  0.00  0.00    +0.000 N 
ATOM     19  C   UNL     1      50.276   2.805  17.197  0.00  0.00    +0.000 A 
ATOM     20  O   UNL     1      49.213   3.187  16.717  0.00  0.00    +0.000 OA
ATOM     21  C   UNL     1      51.246   3.677  17.831  0.00  0.00    +0.000 A 
ATOM     22  H   UNL     1      50.007   0.863  16.668  0.00  0.00    +0.000 HD
ENDBRANCH   9  12
ENDBRANCH   7  10
ENDBRANCH   1   7
BRANCH   4  23
ATOM     23  C   UNL     1      46.588   6.357  11.740  0.00  0.00    +0.000 C 
BRANCH  23  24
ATOM     24  C   UNL     1      45.567   5.236  12.016  0.00  0.00    +0.000 C 
BRANCH  24  25
ATOM     25  C   UNL     1      44.460   5.126  10.935  0.00  0.00    +0.000 C 
ATOM     26  C   UNL     1      43.202   4.417  11.486  0.00  0.00    +0.000 C 
ATOM     27  C   UNL     1      43.434   2.919  11.681  0.00  0.00    +0.000 C 
ATOM     28  N   UNL     1      43.843   2.277  10.428  0.00  0.00    +0.000 NA
ATOM     29  C   UNL     1      45.058   2.884   9.885  0.00  0.00    +0.000 C 
ATOM     30  C   UNL     1      44.898   4.387   9.659  0.00  0.00    +0.000 C 
ATOM     31  H   UNL     1      43.089   2.384   9.749  0.00  0.00    +0.000 HD
ENDBRANCH  24  25
BRANCH  24  32
ATOM     32  O   UNL     1      44.920   5.457  13.276  0.00  0.00    +0.000 OA
ATOM     33  H   UNL     1      44.470   4.634  13.538  0.00  0.00    +0.000 HD
ENDBRANCH  24  32
ENDBRANCH  23  24
ENDBRANCH   4  23
TORSDOF 7
ENDMDL
MODEL 6
REMARK VINA RESULT:    -6.737      3.079      7.931
REMARK INTER + INTRA:         -10.496
REMARK INTER:                  -9.393
REMARK INTRA:                  -1.103
REMARK UNBOUND:                -1.198
REMARK  Name = 
REMARK  7 active torsions:
REMARK  status: ('A' for Active; 'I' for Inactive)
REMARK    1  A    between atoms: C_2  and  C_20
REMARK    2  A    between atoms: N_3  and  C_4
REMARK    3  A    between atoms: C_4  and  C_5
REMARK    4  A    between atoms: C_8  and  C_9
REMARK    5  A    between atoms: C_9  and  C_10
REMARK    6  A    between atoms: C_10  and  O_11
REMARK    7  A    between atoms: C_10  and  C_12
REMARK                            x       y       z     vdW  Elec       q    Type
REMARK                         _______ _______ _______ _____ _____    ______ ____
ROOT
ATOM      1  C   UNL     1      48.405   7.922  13.744  0.00  0.00    +0.000 A 
ATOM      2  C   UNL     1      48.426   8.886  14.752  0.00  0.00    +0.000 A 
ATOM      3  C   UNL     1      48.863   8.543  16.028  0.00  0.00    +0.000 A 
ATOM      4  C   UNL     1      49.242   7.227  16.280  0.00  0.00    +0.000 A 
ATOM      5  N   UNL     1      49.219   6.270  15.322  0.00  0.00    +0.000 NA
ATOM      6  C   UNL     1      48.797   6.634  14.087  0.00  0.00    +0.000 A 
ENDROOT
BRANCH   1   7
ATOM      7  C   UNL     1      47.960   8.247  12.349  0.00  0.00    +0.000 C 
BRANCH   7  10
ATOM      8  O   UNL     1      45.198   7.821  12.029  0.00  0.00    +0.000 OA
ATOM      9  C   UNL     1      45.985   7.001  11.562  0.00  0.00    +0.000 C 
ATOM     10  N   UNL     1      47.342   7.118  11.708  0.00  0.00    +0.000 N 
ATOM     11  H   UNL     1      47.951   6.527  11.148  0.00  0.00    +0.000 HD
BRANCH   9  12
ATOM     12  C   UNL     1      45.517   5.802  10.858  0.00  0.00    +0.000 A 
ATOM     13  C   UNL     1      45.830   5.614   9.518  0.00  0.00    +0.000 A 
ATOM     14  S   UNL     1      45.161   4.190   8.854  0.00  0.00    +0.000 S 
ATOM     15  C   UNL     1      44.471   3.751  10.348  0.00  0.00    +0.000 A 
ATOM     16  N   UNL     1      43.759   2.599  10.480  0.00  0.00    +0.000 NA
ATOM     17  C   UNL     1      43.335   2.370  11.677  0.00  0.00    +0.000 A 
ATOM     18  N   UNL     1      43.551   3.192  12.755  0.00  0.00    +0.000 N 
ATOM     19  C   UNL     1      44.193   4.400  12.649  0.00  0.00    +0.000 A 
ATOM     20  O   UNL     1      44.239   5.177  13.597  0.00  0.00    +0.000 OA
ATOM     21  C   UNL     1      44.729   4.685  11.332  0.00  0.00    +0.000 A 
ATOM     22  H   UNL     1      43.166   2.969  13.660  0.00  0.00    +0.000 HD
ENDBRANCH   9  12
ENDBRANCH   7  10
ENDBRANCH   1   7
BRANCH   4  23
ATOM     23  C   UNL     1      49.723   6.803  17.649  0.00  0.00    +0.000 C 
BRANCH  23  24
ATOM     24  C   UNL     1      50.121   5.316  17.720  0.00  0.00    +0.000 C 
BRANCH  24  25
ATOM     25  C   UNL     1      49.302   4.503  18.757  0.00  0.00    +0.000 C 
ATOM     26  C   UNL     1      49.160   3.025  18.331  0.00  0.00    +0.000 C 
ATOM     27  C   UNL     1      48.199   2.864  17.153  0.00  0.00    +0.000 C 
ATOM     28  N   UNL     1      46.874   3.406  17.469  0.00  0.00    +0.000 NA
ATOM     29  C   UNL     1      46.947   4.820  17.838  0.00  0.00    +0.000 C 
ATOM     30  C   UNL     1      47.892   5.058  19.017  0.00  0.00    +0.000 C 
ATOM     31  H   UNL     1      46.489   2.880  18.253  0.00  0.00    +0.000 HD
ENDBRANCH  24  25
BRANCH  24  32
ATOM     32  O   UNL     1      51.506   5.193  18.071  0.00  0.00    +0.000 OA
ATOM     33  H   UNL     1      52.039   5.588  17.358  0.00  0.00    +0.000 HD
ENDBRANCH  24  32
ENDBRANCH  23  24
ENDBRANCH   4  23
TORSDOF 7
ENDMDL
MODEL 7
REMARK VINA RESULT:    -6.690      2.732      8.435
REMARK INTER + INTRA:         -10.431
REMARK INTER:                  -9.187
REMARK INTRA:                  -1.244
REMARK UNBOUND:                -1.198
REMARK  Name = 
REMARK  7 active torsions:
REMARK  status: ('A' for Active; 'I' for Inactive)
REMARK    1  A    between atoms: C_2  and  C_20
REMARK    2  A    between atoms: N_3  and  C_4
REMARK    3  A    between atoms: C_4  and  C_5
REMARK    4  A    between atoms: C_8  and  C_9
REMARK    5  A    between atoms: C_9  and  C_10
REMARK    6  A    between atoms: C_10  and  O_11
REMARK    7  A    between atoms: C_10  and  C_12
REMARK                            x       y       z     vdW  Elec       q    Type
REMARK                         _______ _______ _______ _____ _____    ______ ____
ROOT
ATOM      1  C   UNL     1      48.009   7.775  13.386  0.00  0.00    +0.000 A 
ATOM      2  C   UNL     1      47.800   8.829  14.277  0.00  0.00    +0.000 A 
ATOM      3  C   UNL     1      48.410   8.808  15.528  0.00  0.00    +0.000 A 
ATOM      4  C   UNL     1      49.195   7.713  15.878  0.00  0.00    +0.000 A 
ATOM      5  N   UNL     1      49.404   6.672  15.036  0.00  0.00    +0.000 NA
ATOM      6  C   UNL     1      48.805   6.723  13.822  0.00  0.00    +0.000 A 
ENDROOT
BRANCH   1   7
ATOM      7  C   UNL     1      47.390   7.760  12.021  0.00  0.00    +0.000 C 
BRANCH   7  10
ATOM      8  O   UNL     1      44.599   7.443  11.886  0.00  0.00    +0.000 OA
ATOM      9  C   UNL     1      45.319   6.468  11.683  0.00  0.00    +0.000 C 
ATOM     10  N   UNL     1      46.684   6.534  11.767  0.00  0.00    +0.000 N 
ATOM     11  H   UNL     1      47.239   5.760  11.407  0.00  0.00    +0.000 HD
BRANCH   9  12
ATOM     12  C   UNL     1      44.757   5.145  11.389  0.00  0.00    +0.000 A 
ATOM     13  C   UNL     1      43.959   4.502  12.327  0.00  0.00    +0.000 A 
ATOM     14  S   UNL     1      43.437   2.954  11.833  0.00  0.00    +0.000 S 
ATOM     15  C   UNL     1      44.218   3.109  10.328  0.00  0.00    +0.000 A 
ATOM     16  N   UNL     1      44.151   2.119   9.397  0.00  0.00    +0.000 NA
ATOM     17  C   UNL     1      44.749   2.391   8.286  0.00  0.00    +0.000 A 
ATOM     18  N   UNL     1      45.415   3.562   8.023  0.00  0.00    +0.000 N 
ATOM     19  C   UNL     1      45.575   4.551   8.959  0.00  0.00    +0.000 A 
ATOM     20  O   UNL     1      46.301   5.517   8.742  0.00  0.00    +0.000 OA
ATOM     21  C   UNL     1      44.884   4.313  10.212  0.00  0.00    +0.000 A 
ATOM     22  H   UNL     1      45.888   3.700   7.142  0.00  0.00    +0.000 HD
ENDBRANCH   9  12
ENDBRANCH   7  10
ENDBRANCH   1   7
BRANCH   4  23
ATOM     23  C   UNL     1      49.878   7.642  17.225  0.00  0.00    +0.000 C 
BRANCH  23  24
ATOM     24  C   UNL     1      50.060   6.200  17.739  0.00  0.00    +0.000 C 
BRANCH  24  25
ATOM     25  C   UNL     1      49.109   5.833  18.907  0.00  0.00    +0.000 C 
ATOM     26  C   UNL     1      49.396   4.413  19.444  0.00  0.00    +0.000 C 
ATOM     27  C   UNL     1      48.933   3.332  18.467  0.00  0.00    +0.000 C 
ATOM     28  N   UNL     1      47.502   3.459  18.173  0.00  0.00    +0.000 NA
ATOM     29  C   UNL     1      47.182   4.775  17.619  0.00  0.00    +0.000 C 
ATOM     30  C   UNL     1      47.615   5.909  18.548  0.00  0.00    +0.000 C 
ATOM     31  H   UNL     1      46.982   3.330  19.041  0.00  0.00    +0.000 HD
ENDBRANCH  24  25
BRANCH  24  32
ATOM     32  O   UNL     1      51.405   6.008  18.200  0.00  0.00    +0.000 OA
ATOM     33  H   UNL     1      51.806   6.884  18.349  0.00  0.00    +0.000 HD
ENDBRANCH  24  32
ENDBRANCH  23  24
ENDBRANCH   4  23
TORSDOF 7
ENDMDL
MODEL 8
REMARK VINA RESULT:    -6.055      3.916      9.291
REMARK INTER + INTRA:          -9.555
REMARK INTER:                  -8.918
REMARK INTRA:                  -0.637
REMARK UNBOUND:                -1.198
REMARK  Name = 
REMARK  7 active torsions:
REMARK  status: ('A' for Active; 'I' for Inactive)
REMARK    1  A    between atoms: C_2  and  C_20
REMARK    2  A    between atoms: N_3  and  C_4
REMARK    3  A    between atoms: C_4  and  C_5
REMARK    4  A    between atoms: C_8  and  C_9
REMARK    5  A    between atoms: C_9  and  C_10
REMARK    6  A    between atoms: C_10  and  O_11
REMARK    7  A    between atoms: C_10  and  C_12
REMARK                            x       y       z     vdW  Elec       q    Type
REMARK                         _______ _______ _______ _____ _____    ______ ____
ROOT
ATOM      1  C   UNL     1      48.569   3.633  17.242  0.00  0.00    +0.000 A 
ATOM      2  C   UNL     1      49.476   2.573  17.267  0.00  0.00    +0.000 A 
ATOM      3  C   UNL     1      50.785   2.792  17.687  0.00  0.00    +0.000 A 
ATOM      4  C   UNL     1      51.172   4.081  18.045  0.00  0.00    +0.000 A 
ATOM      5  N   UNL     1      50.314   5.130  18.017  0.00  0.00    +0.000 NA
ATOM      6  C   UNL     1      49.045   4.885  17.612  0.00  0.00    +0.000 A 
ENDROOT
BRANCH   1   7
ATOM      7  C   UNL     1      47.145   3.445  16.815  0.00  0.00    +0.000 C 
BRANCH   7  10
ATOM      8  O   UNL     1      47.319   3.113  14.027  0.00  0.00    +0.000 OA
ATOM      9  C   UNL     1      46.838   4.152  14.474  0.00  0.00    +0.000 C 
ATOM     10  N   UNL     1      46.753   4.403  15.818  0.00  0.00    +0.000 N 
ATOM     11  H   UNL     1      46.181   5.180  16.139  0.00  0.00    +0.000 HD
BRANCH   9  12
ATOM     12  C   UNL     1      46.370   5.225  13.590  0.00  0.00    +0.000 A 
ATOM     13  C   UNL     1      47.195   6.307  13.310  0.00  0.00    +0.000 A 
ATOM     14  S   UNL     1      46.466   7.479  12.305  0.00  0.00    +0.000 S 
ATOM     15  C   UNL     1      45.041   6.557  12.168  0.00  0.00    +0.000 A 
ATOM     16  N   UNL     1      43.994   6.991  11.415  0.00  0.00    +0.000 NA
ATOM     17  C   UNL     1      42.999   6.170  11.364  0.00  0.00    +0.000 A 
ATOM     18  N   UNL     1      42.952   4.957  12.004  0.00  0.00    +0.000 N 
ATOM     19  C   UNL     1      43.949   4.518  12.837  0.00  0.00    +0.000 A 
ATOM     20  O   UNL     1      43.811   3.501  13.509  0.00  0.00    +0.000 OA
ATOM     21  C   UNL     1      45.111   5.384  12.894  0.00  0.00    +0.000 A 
ATOM     22  H   UNL     1      42.130   4.375  11.947  0.00  0.00    +0.000 HD
ENDBRANCH   9  12
ENDBRANCH   7  10
ENDBRANCH   1   7
BRANCH   4  23
ATOM     23  C   UNL     1      52.581   4.372  18.507  0.00  0.00    +0.000 C 
BRANCH  23  24
ATOM     24  C   UNL     1      53.541   4.715  17.351  0.00  0.00    +0.000 C 
BRANCH  24  25
ATOM     25  C   UNL     1      55.037   4.512  17.706  0.00  0.00    +0.000 C 
ATOM     26  C   UNL     1      55.770   3.694  16.619  0.00  0.00    +0.000 C 
ATOM     27  C   UNL     1      55.362   2.221  16.646  0.00  0.00    +0.000 C 
ATOM     28  N   UNL     1      55.618   1.622  17.959  0.00  0.00    +0.000 NA
ATOM     29  C   UNL     1      54.910   2.335  19.022  0.00  0.00    +0.000 C 
ATOM     30  C   UNL     1      55.274   3.819  19.059  0.00  0.00    +0.000 C 
ATOM     31  H   UNL     1      56.621   1.665  18.143  0.00  0.00    +0.000 HD
ENDBRANCH  24  25
BRANCH  24  32
ATOM     32  O   UNL     1      53.372   6.084  16.959  0.00  0.00    +0.000 OA
ATOM     33  H   UNL     1      53.780   6.650  17.639  0.00  0.00    +0.000 HD
ENDBRANCH  24  32
ENDBRANCH  23  24
ENDBRANCH   4  23
TORSDOF 7
ENDMDL
MODEL 9
REMARK VINA RESULT:    -6.034      1.941      2.614
REMARK INTER + INTRA:          -9.526
REMARK INTER:                  -8.323
REMARK INTRA:                  -1.202
REMARK UNBOUND:                -1.198
REMARK  Name = 
REMARK  7 active torsions:
REMARK  status: ('A' for Active; 'I' for Inactive)
REMARK    1  A    between atoms: C_2  and  C_20
REMARK    2  A    between atoms: N_3  and  C_4
REMARK    3  A    between atoms: C_4  and  C_5
REMARK    4  A    between atoms: C_8  and  C_9
REMARK    5  A    between atoms: C_9  and  C_10
REMARK    6  A    between atoms: C_10  and  O_11
REMARK    7  A    between atoms: C_10  and  C_12
REMARK                            x       y       z     vdW  Elec       q    Type
REMARK                         _______ _______ _______ _____ _____    ______ ____
ROOT
ATOM      1  C   UNL     1      48.837   8.169  13.501  0.00  0.00    +0.000 A 
ATOM      2  C   UNL     1      47.830   9.055  13.120  0.00  0.00    +0.000 A 
ATOM      3  C   UNL     1      46.784   8.609  12.316  0.00  0.00    +0.000 A 
ATOM      4  C   UNL     1      46.784   7.286  11.881  0.00  0.00    +0.000 A 
ATOM      5  N   UNL     1      47.758   6.409  12.228  0.00  0.00    +0.000 NA
ATOM      6  C   UNL     1      48.758   6.869  13.017  0.00  0.00    +0.000 A 
ENDROOT
BRANCH   1   7
ATOM      7  C   UNL     1      49.974   8.596  14.380  0.00  0.00    +0.000 C 
BRANCH   7  10
ATOM      8  O   UNL     1      48.459   9.319  16.637  0.00  0.00    +0.000 OA
ATOM      9  C   UNL     1      49.163   8.313  16.691  0.00  0.00    +0.000 C 
ATOM     10  N   UNL     1      49.957   7.917  15.647  0.00  0.00    +0.000 N 
ATOM     11  H   UNL     1      50.368   6.986  15.666  0.00  0.00    +0.000 HD
BRANCH   9  12
ATOM     12  C   UNL     1      49.242   7.494  17.905  0.00  0.00    +0.000 A 
ATOM     13  C   UNL     1      49.613   8.072  19.112  0.00  0.00    +0.000 A 
ATOM     14  S   UNL     1      49.699   6.959  20.403  0.00  0.00    +0.000 S 
ATOM     15  C   UNL     1      49.197   5.675  19.404  0.00  0.00    +0.000 A 
ATOM     16  N   UNL     1      49.044   4.417  19.901  0.00  0.00    +0.000 NA
ATOM     17  C   UNL     1      48.613   3.554  19.043  0.00  0.00    +0.000 A 
ATOM     18  N   UNL     1      48.328   3.832  17.730  0.00  0.00    +0.000 N 
ATOM     19  C   UNL     1      48.544   5.065  17.169  0.00  0.00    +0.000 A 
ATOM     20  O   UNL     1      48.421   5.241  15.961  0.00  0.00    +0.000 OA
ATOM     21  C   UNL     1      48.987   6.083  18.102  0.00  0.00    +0.000 A 
ATOM     22  H   UNL     1      48.022   3.104  17.102  0.00  0.00    +0.000 HD
ENDBRANCH   9  12
ENDBRANCH   7  10
ENDBRANCH   1   7
BRANCH   4  23
ATOM     23  C   UNL     1      45.673   6.753  11.007  0.00  0.00    +0.000 C 
BRANCH  23  24
ATOM     24  C   UNL     1      44.795   5.701  11.713  0.00  0.00    +0.000 C 
BRANCH  24  25
ATOM     25  C   UNL     1      43.670   5.127  10.813  0.00  0.00    +0.000 C 
ATOM     26  C   UNL     1      42.738   4.184  11.606  0.00  0.00    +0.000 C 
ATOM     27  C   UNL     1      43.421   2.856  11.935  0.00  0.00    +0.000 C 
ATOM     28  N   UNL     1      43.876   2.177  10.718  0.00  0.00    +0.000 NA
ATOM     29  C   UNL     1      44.799   3.013   9.950  0.00  0.00    +0.000 C 
ATOM     30  C   UNL     1      44.179   4.362   9.581  0.00  0.00    +0.000 C 
ATOM     31  H   UNL     1      43.062   1.967  10.141  0.00  0.00    +0.000 HD
ENDBRANCH  24  25
BRANCH  24  32
ATOM     32  O   UNL     1      44.173   6.275  12.870  0.00  0.00    +0.000 OA
ATOM     33  H   UNL     1      43.232   6.022  12.869  0.00  0.00    +0.000 HD
ENDBRANCH  24  32
ENDBRANCH  23  24
ENDBRANCH   4  23
TORSDOF 7
ENDMDL
