MODEL 1
REMARK VINA RESULT:    -7.185      0.000      0.000
REMARK INTER + INTRA:          -9.449
REMARK INTER:                  -8.866
REMARK INTRA:                  -0.583
REMARK UNBOUND:                -0.583
REMARK  Name = 
REMARK  4 active torsions:
REMARK  status: ('A' for Active; 'I' for Inactive)
REMARK    1  A    between atoms: C_2  and  C_4
REMARK    2  A    between atoms: C_8  and  O_9
REMARK    3  A    between atoms: O_9  and  C_10
REMARK    4  A    between atoms: C_10  and  C_11
REMARK                            x       y       z     vdW  Elec       q    Type
REMARK                         _______ _______ _______ _____ _____    ______ ____
ROOT
ATOM      1  C   UNL     1      44.898   5.197  12.412  0.00  0.00    +0.000 A 
ATOM      2  N   UNL     1      44.108   4.463  13.252  0.00  0.00    +0.000 NA
ATOM      3  C   UNL     1      43.347   3.535  12.671  0.00  0.00    +0.000 A 
ATOM      4  N   UNL     1      43.312   3.271  11.363  0.00  0.00    +0.000 NA
ATOM      5  C   UNL     1      44.138   4.001  10.578  0.00  0.00    +0.000 A 
ATOM      6  C   UNL     1      44.979   4.994  11.047  0.00  0.00    +0.000 A 
ATOM      7 CL   UNL     1      46.044   5.832   9.985  0.00  0.00    +0.000 Cl
ENDROOT
BRANCH   1   9
ATOM      8  N   UNL     1      46.600   5.828  14.023  0.00  0.00    +0.000 N 
ATOM      9  C   UNL     1      45.669   6.274  13.117  0.00  0.00    +0.000 C 
ATOM     10  O   UNL     1      45.480   7.471  12.957  0.00  0.00    +0.000 OA
ATOM     11  H   UNL     1      47.076   6.507  14.601  0.00  0.00    +0.000 HD
ATOM     12  H   UNL     1      46.656   4.843  14.252  0.00  0.00    +0.000 HD
ENDBRANCH   1   9
BRANCH   5  13
ATOM     13  O   UNL     1      44.187   3.685   9.229  0.00  0.00    +0.000 OA
BRANCH  13  14
ATOM     14  C   UNL     1      44.485   2.308   8.983  0.00  0.00    +0.000 C 
BRANCH  14  15
ATOM     15  C   UNL     1      45.751   2.156   8.170  0.00  0.00    +0.000 A 
ATOM     16  C   UNL     1      46.310   0.882   8.014  0.00  0.00    +0.000 A 
ATOM     17  C   UNL     1      47.466   0.745   7.261  0.00  0.00    +0.000 A 
ATOM     18  N   UNL     1      48.088   1.774   6.651  0.00  0.00    +0.000 NA
ATOM     19  C   UNL     1      47.526   2.992   6.797  0.00  0.00    +0.000 A 
ATOM     20  C   UNL     1      46.371   3.231   7.528  0.00  0.00    +0.000 A 
ENDBRANCH  14  15
ENDBRANCH  13  14
ENDBRANCH   5  13
TORSDOF 4
ENDMDL
MODEL 2
REMARK VINA RESULT:    -6.960      2.143      2.706
REMARK INTER + INTRA:          -9.171
REMARK INTER:                  -8.635
REMARK INTRA:                  -0.535
REMARK UNBOUND:                -0.583
REMARK  Name = 
REMARK  4 active torsions:
REMARK  status: ('A' for Active; 'I' for Inactive)
REMARK    1  A    between atoms: C_2  and  C_4
REMARK    2  A    between atoms: C_8  and  O_9
REMARK    3  A    between atoms: O_9  and  C_10
REMARK    4  A    between atoms: C_10  and  C_11
REMARK                            x       y       z     vdW  Elec       q    Type
REMARK                         _______ _______ _______ _____ _____    ______ ____
ROOT
ATOM      1  C   UNL     1      46.385   4.834  12.838  0.00  0.00    +0.000 A 
ATOM      2  N   UNL     1      46.875   6.077  12.546  0.00  0.00    +0.000 NA
ATOM      3  C   UNL     1      46.495   6.592  11.377  0.00  0.00    +0.000 A 
ATOM      4  N   UNL     1      45.680   6.001  10.500  0.00  0.00    +0.000 NA
ATOM      5  C   UNL     1      45.194   4.787  10.850  0.00  0.00    +0.000 A 
ATOM      6  C   UNL     1      45.506   4.137  12.031  0.00  0.00    +0.000 A 
ATOM      7 CL   UNL     1      44.792   2.621  12.426  0.00  0.00    +0.000 Cl
ENDROOT
BRANCH   1   9
ATOM      8  N   UNL     1      46.863   5.139  15.198  0.00  0.00    +0.000 N 
ATOM      9  C   UNL     1      46.913   4.279  14.129  0.00  0.00    +0.000 C 
ATOM     10  O   UNL     1      47.399   3.165  14.249  0.00  0.00    +0.000 OA
ATOM     11  H   UNL     1      47.297   4.857  16.066  0.00  0.00    +0.000 HD
ATOM     12  H   UNL     1      46.588   6.104  15.062  0.00  0.00    +0.000 HD
ENDBRANCH   1   9
BRANCH   5  13
ATOM     13  O   UNL     1      44.276   4.193   9.999  0.00  0.00    +0.000 OA
BRANCH  13  14
ATOM     14  C   UNL     1      44.603   4.357   8.615  0.00  0.00    +0.000 C 
BRANCH  14  15
ATOM     15  C   UNL     1      45.557   3.283   8.145  0.00  0.00    +0.000 A 
ATOM     16  C   UNL     1      46.613   3.635   7.295  0.00  0.00    +0.000 A 
ATOM     17  C   UNL     1      47.491   2.650   6.872  0.00  0.00    +0.000 A 
ATOM     18  N   UNL     1      47.398   1.357   7.241  0.00  0.00    +0.000 NA
ATOM     19  C   UNL     1      46.385   1.037   8.074  0.00  0.00    +0.000 A 
ATOM     20  C   UNL     1      45.458   1.950   8.554  0.00  0.00    +0.000 A 
ENDBRANCH  14  15
ENDBRANCH  13  14
ENDBRANCH   5  13
TORSDOF 4
ENDMDL
MODEL 3
REMARK VINA RESULT:    -5.845      1.846      2.775
REMARK INTER + INTRA:          -7.795
REMARK INTER:                  -7.996
REMARK INTRA:                   0.200
REMARK UNBOUND:                -0.583
REMARK  Name = 
REMARK  4 active torsions:
REMARK  status: ('A' for Active; 'I' for Inactive)
REMARK    1  A    between atoms: C_2  and  C_4
REMARK    2  A    between atoms: C_8  and  O_9
REMARK    3  A    between atoms: O_9  and  C_10
REMARK    4  A    between atoms: C_10  and  C_11
REMARK                            x       y       z     vdW  Elec       q    Type
REMARK                         _______ _______ _______ _____ _____    ______ ____
ROOT
ATOM      1  C   UNL     1      46.597   6.228  12.960  0.00  0.00    +0.000 A 
ATOM      2  N   UNL     1      47.352   5.256  13.555  0.00  0.00    +0.000 NA
ATOM      3  C   UNL     1      46.830   4.030  13.549  0.00  0.00    +0.000 A 
ATOM      4  N   UNL     1      45.659   3.690  13.005  0.00  0.00    +0.000 NA
ATOM      5  C   UNL     1      44.965   4.681  12.398  0.00  0.00    +0.000 A 
ATOM      6  C   UNL     1      45.388   5.996  12.332  0.00  0.00    +0.000 A 
ATOM      7 CL   UNL     1      44.472   7.182  11.484  0.00  0.00    +0.000 Cl
ENDROOT
BRANCH   1   9
ATOM      8  N   UNL     1      46.481   8.497  13.815  0.00  0.00    +0.000 N 
ATOM      9  C   UNL     1      47.203   7.597  13.070  0.00  0.00    +0.000 C 
ATOM     10  O   UNL     1      48.237   7.937  12.514  0.00  0.00    +0.000 OA
ATOM     11  H   UNL     1      46.787   9.460  13.838  0.00  0.00    +0.000 HD
ATOM     12  H   UNL     1      45.559   8.252  14.156  0.00  0.00    +0.000 HD
ENDBRANCH   1   9
BRANCH   5  13
ATOM     13  O   UNL     1      43.790   4.338  11.750  0.00  0.00    +0.000 OA
BRANCH  13  14
ATOM     14  C   UNL     1      43.761   4.750  10.380  0.00  0.00    +0.000 C 
BRANCH  14  15
ATOM     15  C   UNL     1      44.584   3.827   9.510  0.00  0.00    +0.000 A 
ATOM     16  C   UNL     1      45.445   4.380   8.554  0.00  0.00    +0.000 A 
ATOM     17  C   UNL     1      46.204   3.531   7.765  0.00  0.00    +0.000 A 
ATOM     18  N   UNL     1      46.174   2.187   7.867  0.00  0.00    +0.000 NA
ATOM     19  C   UNL     1      45.351   1.670   8.805  0.00  0.00    +0.000 A 
ATOM     20  C   UNL     1      44.555   2.436   9.644  0.00  0.00    +0.000 A 
ENDBRANCH  14  15
ENDBRANCH  13  14
ENDBRANCH   5  13
TORSDOF 4
ENDMDL
MODEL 4
REMARK VINA RESULT:    -5.778      1.993      5.771
REMARK INTER + INTRA:          -7.712
REMARK INTER:                  -7.240
REMARK INTRA:                  -0.473
REMARK UNBOUND:                -0.583
REMARK  Name = 
REMARK  4 active torsions:
REMARK  status: ('A' for Active; 'I' for Inactive)
REMARK    1  A    between atoms: C_2  and  C_4
REMARK    2  A    between atoms: C_8  and  O_9
REMARK    3  A    between atoms: O_9  and  C_10
REMARK    4  A    between atoms: C_10  and  C_11
REMARK                            x       y       z     vdW  Elec       q    Type
REMARK                         _______ _______ _______ _____ _____    ______ ____
ROOT
ATOM      1  C   UNL     1      46.231   2.453   7.871  0.00  0.00    +0.000 A 
ATOM      2  N   UNL     1      45.553   1.303   8.169  0.00  0.00    +0.000 NA
ATOM      3  C   UNL     1      44.612   1.409   9.106  0.00  0.00    +0.000 A 
ATOM      4  N   UNL     1      44.284   2.533   9.750  0.00  0.00    +0.000 NA
ATOM      5  C   UNL     1      44.960   3.650   9.395  0.00  0.00    +0.000 A 
ATOM      6  C   UNL     1      45.960   3.683   8.440  0.00  0.00    +0.000 A 
ATOM      7 CL   UNL     1      46.725   5.162   8.006  0.00  0.00    +0.000 Cl
ENDROOT
BRANCH   1   9
ATOM      8  N   UNL     1      47.201   2.976   5.709  0.00  0.00    +0.000 N 
ATOM      9  C   UNL     1      47.328   2.249   6.868  0.00  0.00    +0.000 C 
ATOM     10  O   UNL     1      48.257   1.469   7.015  0.00  0.00    +0.000 OA
ATOM     11  H   UNL     1      47.854   2.803   4.957  0.00  0.00    +0.000 HD
ATOM     12  H   UNL     1      46.361   3.513   5.535  0.00  0.00    +0.000 HD
ENDBRANCH   1   9
BRANCH   5  13
ATOM     13  O   UNL     1      44.577   4.845   9.983  0.00  0.00    +0.000 OA
BRANCH  13  14
ATOM     14  C   UNL     1      44.344   4.732  11.391  0.00  0.00    +0.000 C 
BRANCH  14  15
ATOM     15  C   UNL     1      45.579   5.099  12.183  0.00  0.00    +0.000 A 
ATOM     16  C   UNL     1      45.904   4.350  13.321  0.00  0.00    +0.000 A 
ATOM     17  C   UNL     1      47.041   4.683  14.040  0.00  0.00    +0.000 A 
ATOM     18  N   UNL     1      47.872   5.691  13.703  0.00  0.00    +0.000 NA
ATOM     19  C   UNL     1      47.552   6.391  12.594  0.00  0.00    +0.000 A 
ATOM     20  C   UNL     1      46.439   6.134  11.807  0.00  0.00    +0.000 A 
ENDBRANCH  14  15
ENDBRANCH  13  14
ENDBRANCH   5  13
TORSDOF 4
ENDMDL
MODEL 5
REMARK VINA RESULT:    -5.623      2.190      5.814
REMARK INTER + INTRA:          -7.521
REMARK INTER:                  -7.023
REMARK INTRA:                  -0.498
REMARK UNBOUND:                -0.583
REMARK  Name = 
REMARK  4 active torsions:
REMARK  status: ('A' for Active; 'I' for Inactive)
REMARK    1  A    between atoms: C_2  and  C_4
REMARK    2  A    between atoms: C_8  and  O_9
REMARK    3  A    between atoms: O_9  and  C_10
REMARK    4  A    between atoms: C_10  and  C_11
REMARK                            x       y       z     vdW  Elec       q    Type
REMARK                         _______ _______ _______ _____ _____    ______ ____
ROOT
ATOM      1  C   UNL     1      44.460   3.347  10.131  0.00  0.00    +0.000 A 
ATOM      2  N   UNL     1      43.638   2.492  10.811  0.00  0.00    +0.000 NA
ATOM      3  C   UNL     1      43.305   2.866  12.046  0.00  0.00    +0.000 A 
ATOM      4  N   UNL     1      43.696   3.993  12.646  0.00  0.00    +0.000 NA
ATOM      5  C   UNL     1      44.481   4.822  11.919  0.00  0.00    +0.000 A 
ATOM      6  C   UNL     1      44.902   4.559  10.628  0.00  0.00    +0.000 A 
ATOM      7 CL   UNL     1      45.847   5.699   9.752  0.00  0.00    +0.000 Cl
ENDROOT
BRANCH   1   9
ATOM      8  N   UNL     1      45.584   1.666   8.789  0.00  0.00    +0.000 N 
ATOM      9  C   UNL     1      44.860   2.832   8.779  0.00  0.00    +0.000 C 
ATOM     10  O   UNL     1      44.616   3.404   7.727  0.00  0.00    +0.000 OA
ATOM     11  H   UNL     1      45.968   1.327   7.918  0.00  0.00    +0.000 HD
ATOM     12  H   UNL     1      45.901   1.271   9.667  0.00  0.00    +0.000 HD
ENDBRANCH   1   9
BRANCH   5  13
ATOM     13  O   UNL     1      44.827   6.038  12.485  0.00  0.00    +0.000 OA
BRANCH  13  14
ATOM     14  C   UNL     1      46.065   5.995  13.201  0.00  0.00    +0.000 C 
BRANCH  14  15
ATOM     15  C   UNL     1      46.985   7.117  12.776  0.00  0.00    +0.000 A 
ATOM     16  C   UNL     1      46.534   8.439  12.870  0.00  0.00    +0.000 A 
ATOM     17  C   UNL     1      47.382   9.466  12.488  0.00  0.00    +0.000 A 
ATOM     18  N   UNL     1      48.637   9.271  12.036  0.00  0.00    +0.000 NA
ATOM     19  C   UNL     1      49.063   7.992  11.968  0.00  0.00    +0.000 A 
ATOM     20  C   UNL     1      48.291   6.897  12.328  0.00  0.00    +0.000 A 
ENDBRANCH  14  15
ENDBRANCH  13  14
ENDBRANCH   5  13
TORSDOF 4
ENDMDL
MODEL 6
REMARK VINA RESULT:    -5.621      1.980      2.454
REMARK INTER + INTRA:          -7.518
REMARK INTER:                  -7.339
REMARK INTRA:                  -0.179
REMARK UNBOUND:                -0.583
REMARK  Name = 
REMARK  4 active torsions:
REMARK  status: ('A' for Active; 'I' for Inactive)
REMARK    1  A    between atoms: C_2  and  C_4
REMARK    2  A    between atoms: C_8  and  O_9
REMARK    3  A    between atoms: O_9  and  C_10
REMARK    4  A    between atoms: C_10  and  C_11
REMARK                            x       y       z     vdW  Elec       q    Type
REMARK                         _______ _______ _______ _____ _____    ______ ____
ROOT
ATOM      1  C   UNL     1      44.750   4.934  11.763  0.00  0.00    +0.000 A 
ATOM      2  N   UNL     1      45.502   5.979  11.304  0.00  0.00    +0.000 NA
ATOM      3  C   UNL     1      45.908   5.891  10.038  0.00  0.00    +0.000 A 
ATOM      4  N   UNL     1      45.629   4.886   9.204  0.00  0.00    +0.000 NA
ATOM      5  C   UNL     1      44.853   3.892   9.694  0.00  0.00    +0.000 A 
ATOM      6  C   UNL     1      44.364   3.856  10.988  0.00  0.00    +0.000 A 
ATOM      7 CL   UNL     1      43.329   2.584  11.511  0.00  0.00    +0.000 Cl
ENDROOT
BRANCH   1   9
ATOM      8  N   UNL     1      45.421   4.821  14.092  0.00  0.00    +0.000 N 
ATOM      9  C   UNL     1      44.391   5.056  13.215  0.00  0.00    +0.000 C 
ATOM     10  O   UNL     1      43.267   5.300  13.626  0.00  0.00    +0.000 OA
ATOM     11  H   UNL     1      45.216   4.788  15.081  0.00  0.00    +0.000 HD
ATOM     12  H   UNL     1      46.313   4.484  13.751  0.00  0.00    +0.000 HD
ENDBRANCH   1   9
BRANCH   5  13
ATOM     13  O   UNL     1      44.475   2.884   8.823  0.00  0.00    +0.000 OA
BRANCH  13  14
ATOM     14  C   UNL     1      45.446   1.838   8.716  0.00  0.00    +0.000 C 
BRANCH  14  15
ATOM     15  C   UNL     1      46.332   2.032   7.506  0.00  0.00    +0.000 A 
ATOM     16  C   UNL     1      45.942   2.943   6.517  0.00  0.00    +0.000 A 
ATOM     17  C   UNL     1      46.760   3.125   5.413  0.00  0.00    +0.000 A 
ATOM     18  N   UNL     1      47.930   2.481   5.235  0.00  0.00    +0.000 NA
ATOM     19  C   UNL     1      48.300   1.619   6.206  0.00  0.00    +0.000 A 
ATOM     20  C   UNL     1      47.552   1.370   7.348  0.00  0.00    +0.000 A 
ENDBRANCH  14  15
ENDBRANCH  13  14
ENDBRANCH   5  13
TORSDOF 4
ENDMDL
MODEL 7
REMARK VINA RESULT:    -5.516      3.193      6.121
REMARK INTER + INTRA:          -7.389
REMARK INTER:                  -7.022
REMARK INTRA:                  -0.367
REMARK UNBOUND:                -0.583
REMARK  Name = 
REMARK  4 active torsions:
REMARK  status: ('A' for Active; 'I' for Inactive)
REMARK    1  A    between atoms: C_2  and  C_4
REMARK    2  A    between atoms: C_8  and  O_9
REMARK    3  A    between atoms: O_9  and  C_10
REMARK    4  A    between atoms: C_10  and  C_11
REMARK                            x       y       z     vdW  Elec       q    Type
REMARK                         _______ _______ _______ _____ _____    ______ ____
ROOT
ATOM      1  C   UNL     1      44.766   3.677  12.105  0.00  0.00    +0.000 A 
ATOM      2  N   UNL     1      45.745   3.080  12.850  0.00  0.00    +0.000 NA
ATOM      3  C   UNL     1      46.530   3.903  13.545  0.00  0.00    +0.000 A 
ATOM      4  N   UNL     1      46.422   5.234  13.574  0.00  0.00    +0.000 NA
ATOM      5  C   UNL     1      45.416   5.774  12.848  0.00  0.00    +0.000 A 
ATOM      6  C   UNL     1      44.530   5.039  12.082  0.00  0.00    +0.000 A 
ATOM      7 CL   UNL     1      43.239   5.803  11.238  0.00  0.00    +0.000 Cl
ENDROOT
BRANCH   1   9
ATOM      8  N   UNL     1      44.497   2.407  10.054  0.00  0.00    +0.000 N 
ATOM      9  C   UNL     1      43.969   2.703  11.287  0.00  0.00    +0.000 C 
ATOM     10  O   UNL     1      42.902   2.223  11.639  0.00  0.00    +0.000 OA
ATOM     11  H   UNL     1      43.954   1.838   9.420  0.00  0.00    +0.000 HD
ATOM     12  H   UNL     1      45.306   2.912   9.713  0.00  0.00    +0.000 HD
ENDBRANCH   1   9
BRANCH   5  13
ATOM     13  O   UNL     1      45.228   7.144  12.933  0.00  0.00    +0.000 OA
BRANCH  13  14
ATOM     14  C   UNL     1      45.952   7.875  11.938  0.00  0.00    +0.000 C 
BRANCH  14  15
ATOM     15  C   UNL     1      47.375   8.137  12.377  0.00  0.00    +0.000 A 
ATOM     16  C   UNL     1      47.604   8.753  13.614  0.00  0.00    +0.000 A 
ATOM     17  C   UNL     1      48.910   8.983  14.017  0.00  0.00    +0.000 A 
ATOM     18  N   UNL     1      49.990   8.638  13.288  0.00  0.00    +0.000 NA
ATOM     19  C   UNL     1      49.752   8.030  12.106  0.00  0.00    +0.000 A 
ATOM     20  C   UNL     1      48.484   7.753  11.617  0.00  0.00    +0.000 A 
ENDBRANCH  14  15
ENDBRANCH  13  14
ENDBRANCH   5  13
TORSDOF 4
ENDMDL
MODEL 8
REMARK VINA RESULT:    -5.428      3.553      5.695
REMARK INTER + INTRA:          -7.280
REMARK INTER:                  -6.651
REMARK INTRA:                  -0.630
REMARK UNBOUND:                -0.583
REMARK  Name = 
REMARK  4 active torsions:
REMARK  status: ('A' for Active; 'I' for Inactive)
REMARK    1  A    between atoms: C_2  and  C_4
REMARK    2  A    between atoms: C_8  and  O_9
REMARK    3  A    between atoms: O_9  and  C_10
REMARK    4  A    between atoms: C_10  and  C_11
REMARK                            x       y       z     vdW  Elec       q    Type
REMARK                         _______ _______ _______ _____ _____    ______ ____
ROOT
ATOM      1  C   UNL     1      47.787   4.697  15.890  0.00  0.00    +0.000 A 
ATOM      2  N   UNL     1      48.358   5.705  16.617  0.00  0.00    +0.000 NA
ATOM      3  C   UNL     1      48.670   6.808  15.937  0.00  0.00    +0.000 A 
ATOM      4  N   UNL     1      48.460   6.998  14.632  0.00  0.00    +0.000 NA
ATOM      5  C   UNL     1      47.861   5.984  13.963  0.00  0.00    +0.000 A 
ATOM      6  C   UNL     1      47.485   4.787  14.544  0.00  0.00    +0.000 A 
ATOM      7 CL   UNL     1      46.671   3.575  13.632  0.00  0.00    +0.000 Cl
ENDROOT
BRANCH   1   9
ATOM      8  N   UNL     1      48.553   2.539  16.694  0.00  0.00    +0.000 N 
ATOM      9  C   UNL     1      47.532   3.458  16.696  0.00  0.00    +0.000 C 
ATOM     10  O   UNL     1      46.488   3.226  17.287  0.00  0.00    +0.000 OA
ATOM     11  H   UNL     1      48.398   1.643  17.135  0.00  0.00    +0.000 HD
ATOM     12  H   UNL     1      49.357   2.674  16.093  0.00  0.00    +0.000 HD
ENDBRANCH   1   9
BRANCH   5  13
ATOM     13  O   UNL     1      47.551   6.191  12.629  0.00  0.00    +0.000 OA
BRANCH  13  14
ATOM     14  C   UNL     1      46.343   6.935  12.440  0.00  0.00    +0.000 C 
BRANCH  14  15
ATOM     15  C   UNL     1      45.320   6.134  11.667  0.00  0.00    +0.000 A 
ATOM     16  C   UNL     1      43.994   6.106  12.118  0.00  0.00    +0.000 A 
ATOM     17  C   UNL     1      43.057   5.378  11.402  0.00  0.00    +0.000 A 
ATOM     18  N   UNL     1      43.342   4.694  10.276  0.00  0.00    +0.000 NA
ATOM     19  C   UNL     1      44.621   4.745   9.845  0.00  0.00    +0.000 A 
ATOM     20  C   UNL     1      45.629   5.446  10.490  0.00  0.00    +0.000 A 
ENDBRANCH  14  15
ENDBRANCH  13  14
ENDBRANCH   5  13
TORSDOF 4
ENDMDL
MODEL 9
REMARK VINA RESULT:    -5.411      3.982      7.115
REMARK INTER + INTRA:          -7.259
REMARK INTER:                  -6.783
REMARK INTRA:                  -0.476
REMARK UNBOUND:                -0.583
REMARK  Name = 
REMARK  4 active torsions:
REMARK  status: ('A' for Active; 'I' for Inactive)
REMARK    1  A    between atoms: C_2  and  C_4
REMARK    2  A    between atoms: C_8  and  O_9
REMARK    3  A    between atoms: O_9  and  C_10
REMARK    4  A    between atoms: C_10  and  C_11
REMARK                            x       y       z     vdW  Elec       q    Type
REMARK                         _______ _______ _______ _____ _____    ______ ____
ROOT
ATOM      1  C   UNL     1      44.659   5.805  11.802  0.00  0.00    +0.000 A 
ATOM      2  N   UNL     1      44.703   7.169  11.727  0.00  0.00    +0.000 NA
ATOM      3  C   UNL     1      45.677   7.758  12.420  0.00  0.00    +0.000 A 
ATOM      4  N   UNL     1      46.597   7.126  13.152  0.00  0.00    +0.000 NA
ATOM      5  C   UNL     1      46.533   5.774  13.166  0.00  0.00    +0.000 A 
ATOM      6  C   UNL     1      45.575   5.036  12.495  0.00  0.00    +0.000 A 
ATOM      7 CL   UNL     1      45.604   3.315  12.516  0.00  0.00    +0.000 Cl
ENDROOT
BRANCH   1   9
ATOM      8  N   UNL     1      43.770   4.772   9.794  0.00  0.00    +0.000 N 
ATOM      9  C   UNL     1      43.494   5.210  11.066  0.00  0.00    +0.000 C 
ATOM     10  O   UNL     1      42.360   5.144  11.514  0.00  0.00    +0.000 OA
ATOM     11  H   UNL     1      43.005   4.456   9.214  0.00  0.00    +0.000 HD
ATOM     12  H   UNL     1      44.675   4.954   9.378  0.00  0.00    +0.000 HD
ENDBRANCH   1   9
BRANCH   5  13
ATOM     13  O   UNL     1      47.529   5.091  13.845  0.00  0.00    +0.000 OA
BRANCH  13  14
ATOM     14  C   UNL     1      48.036   5.809  14.974  0.00  0.00    +0.000 C 
BRANCH  14  15
ATOM     15  C   UNL     1      48.116   4.924  16.198  0.00  0.00    +0.000 A 
ATOM     16  C   UNL     1      48.702   5.428  17.365  0.00  0.00    +0.000 A 
ATOM     17  C   UNL     1      48.767   4.618  18.487  0.00  0.00    +0.000 A 
ATOM     18  N   UNL     1      48.284   3.360  18.531  0.00  0.00    +0.000 NA
ATOM     19  C   UNL     1      47.707   2.895  17.402  0.00  0.00    +0.000 A 
ATOM     20  C   UNL     1      47.592   3.629  16.230  0.00  0.00    +0.000 A 
ENDBRANCH  14  15
ENDBRANCH  13  14
ENDBRANCH   5  13
TORSDOF 4
ENDMDL
