MODEL 1
REMARK VINA RESULT:    -8.778      0.000      0.000
REMARK INTER + INTRA:         -12.595
REMARK INTER:                 -11.600
REMARK INTRA:                  -0.994
REMARK UNBOUND:                -0.994
REMARK  Name = 
REMARK  6 active torsions:
REMARK  status: ('A' for Active; 'I' for Inactive)
REMARK    1  A    between atoms: C_2  and  C_4
REMARK    2  A    between atoms: C_7  and  O_8
REMARK    3  A    between atoms: O_8  and  C_9
REMARK    4  A    between atoms: C_9  and  C_10
REMARK    5  A    between atoms: C_15  and  N_16
REMARK    6  A    between atoms: C_19  and  O_20
REMARK                            x       y       z     vdW  Elec       q    Type
REMARK                         _______ _______ _______ _____ _____    ______ ____
ROOT
ATOM      1  C   UNL     1      44.726   4.654  12.099  0.00  0.00    +0.000 A 
ATOM      2  C   UNL     1      45.494   3.686  12.748  0.00  0.00    +0.000 A 
ATOM      3  C   UNL     1      46.576   4.076  13.529  0.00  0.00    +0.000 A 
ATOM      4  F   UNL     1      47.322   3.139  14.126  0.00  0.00    +0.000 F 
ATOM      5  C   UNL     1      46.906   5.417  13.684  0.00  0.00    +0.000 A 
ATOM      6  C   UNL     1      46.156   6.423  13.051  0.00  0.00    +0.000 A 
ATOM      7  C   UNL     1      45.064   6.007  12.270  0.00  0.00    +0.000 A 
ENDROOT
BRANCH   6   8
ATOM      8  N   UNL     1      46.459   7.764  13.197  0.00  0.00    +0.000 N 
ATOM      9  C   UNL     1      47.840   8.205  13.378  0.00  0.00    +0.000 C 
ATOM     10  C   UNL     1      48.282   9.033  12.180  0.00  0.00    +0.000 C 
ATOM     11  C   UNL     1      47.299  10.164  11.880  0.00  0.00    +0.000 C 
ATOM     12  C   UNL     1      45.863   9.661  11.759  0.00  0.00    +0.000 C 
ATOM     13  C   UNL     1      45.450   8.795  12.949  0.00  0.00    +0.000 C 
BRANCH  11  14
ATOM     14  O   UNL     1      47.391  11.187  12.873  0.00  0.00    +0.000 OA
ATOM     15  H   UNL     1      46.497  11.496  13.092  0.00  0.00    +0.000 HD
ENDBRANCH  11  14
ENDBRANCH   6   8
BRANCH   1  16
ATOM     16  C   UNL     1      43.580   4.262  11.194  0.00  0.00    +0.000 C 
BRANCH  16  17
ATOM     17  O   UNL     1      43.765   4.776   9.862  0.00  0.00    +0.000 OA
BRANCH  17  21
ATOM     18  C   UNL     1      46.429   2.491   7.681  0.00  0.00    +0.000 A 
ATOM     19  C   UNL     1      45.571   1.854   8.581  0.00  0.00    +0.000 A 
ATOM     20  C   UNL     1      44.662   2.623   9.328  0.00  0.00    +0.000 A 
ATOM     21  C   UNL     1      44.652   4.002   9.137  0.00  0.00    +0.000 A 
ATOM     22  N   UNL     1      45.477   4.627   8.271  0.00  0.00    +0.000 NA
ATOM     23  C   UNL     1      46.351   3.869   7.572  0.00  0.00    +0.000 A 
BRANCH  18  25
ATOM     24  N   UNL     1      48.494   2.490   6.416  0.00  0.00    +0.000 N 
ATOM     25  C   UNL     1      47.419   1.779   6.853  0.00  0.00    +0.000 C 
ATOM     26  O   UNL     1      47.293   0.584   6.595  0.00  0.00    +0.000 OA
ATOM     27  H   UNL     1      49.216   1.968   5.934  0.00  0.00    +0.000 HD
ATOM     28  H   UNL     1      48.755   3.377   6.825  0.00  0.00    +0.000 HD
ENDBRANCH  18  25
ENDBRANCH  17  21
ENDBRANCH  16  17
ENDBRANCH   1  16
TORSDOF 6
ENDMDL
MODEL 2
REMARK VINA RESULT:    -8.496      2.541      3.536
REMARK INTER + INTRA:         -12.222
REMARK INTER:                 -11.213
REMARK INTRA:                  -1.009
REMARK UNBOUND:                -0.994
REMARK  Name = 
REMARK  6 active torsions:
REMARK  status: ('A' for Active; 'I' for Inactive)
REMARK    1  A    between atoms: C_2  and  C_4
REMARK    2  A    between atoms: C_7  and  O_8
REMARK    3  A    between atoms: O_8  and  C_9
REMARK    4  A    between atoms: C_9  and  C_10
REMARK    5  A    between atoms: C_15  and  N_16
REMARK    6  A    between atoms: C_19  and  O_20
REMARK                            x       y       z     vdW  Elec       q    Type
REMARK                         _______ _______ _______ _____ _____    ______ ____
ROOT
ATOM      1  C   UNL     1      44.641   5.485  11.787  0.00  0.00    +0.000 A 
ATOM      2  C   UNL     1      44.561   6.853  11.521  0.00  0.00    +0.000 A 
ATOM      3  C   UNL     1      45.452   7.727  12.137  0.00  0.00    +0.000 A 
ATOM      4  F   UNL     1      45.351   9.039  11.896  0.00  0.00    +0.000 F 
ATOM      5  C   UNL     1      46.429   7.263  13.008  0.00  0.00    +0.000 A 
ATOM      6  C   UNL     1      46.545   5.892  13.300  0.00  0.00    +0.000 A 
ATOM      7  C   UNL     1      45.639   5.027  12.664  0.00  0.00    +0.000 A 
ENDROOT
BRANCH   6   8
ATOM      8  N   UNL     1      47.515   5.406  14.156  0.00  0.00    +0.000 N 
ATOM      9  C   UNL     1      48.621   6.254  14.596  0.00  0.00    +0.000 C 
ATOM     10  C   UNL     1      48.523   6.500  16.094  0.00  0.00    +0.000 C 
ATOM     11  C   UNL     1      48.388   5.195  16.876  0.00  0.00    +0.000 C 
ATOM     12  C   UNL     1      47.258   4.318  16.341  0.00  0.00    +0.000 C 
ATOM     13  C   UNL     1      47.347   4.117  14.829  0.00  0.00    +0.000 C 
BRANCH  11  14
ATOM     14  O   UNL     1      49.624   4.477  16.873  0.00  0.00    +0.000 OA
ATOM     15  H   UNL     1      49.729   4.027  17.727  0.00  0.00    +0.000 HD
ENDBRANCH  11  14
ENDBRANCH   6   8
BRANCH   1  16
ATOM     16  C   UNL     1      43.651   4.515  11.183  0.00  0.00    +0.000 C 
BRANCH  16  17
ATOM     17  O   UNL     1      43.560   4.681   9.756  0.00  0.00    +0.000 OA
BRANCH  17  21
ATOM     18  C   UNL     1      46.425   2.462   7.769  0.00  0.00    +0.000 A 
ATOM     19  C   UNL     1      45.524   1.804   8.611  0.00  0.00    +0.000 A 
ATOM     20  C   UNL     1      44.548   2.550   9.292  0.00  0.00    +0.000 A 
ATOM     21  C   UNL     1      44.514   3.928   9.096  0.00  0.00    +0.000 A 
ATOM     22  N   UNL     1      45.380   4.573   8.285  0.00  0.00    +0.000 NA
ATOM     23  C   UNL     1      46.318   3.837   7.650  0.00  0.00    +0.000 A 
BRANCH  18  25
ATOM     24  N   UNL     1      48.428   2.552   6.411  0.00  0.00    +0.000 N 
ATOM     25  C   UNL     1      47.487   1.775   7.013  0.00  0.00    +0.000 C 
ATOM     26  O   UNL     1      47.537   0.548   6.956  0.00  0.00    +0.000 OA
ATOM     27  H   UNL     1      49.206   2.068   5.979  0.00  0.00    +0.000 HD
ATOM     28  H   UNL     1      48.562   3.522   6.658  0.00  0.00    +0.000 HD
ENDBRANCH  18  25
ENDBRANCH  17  21
ENDBRANCH  16  17
ENDBRANCH   1  16
TORSDOF 6
ENDMDL
MODEL 3
REMARK VINA RESULT:    -7.982      1.203      1.725
REMARK INTER + INTRA:         -11.542
REMARK INTER:                 -10.589
REMARK INTRA:                  -0.954
REMARK UNBOUND:                -0.994
REMARK  Name = 
REMARK  6 active torsions:
REMARK  status: ('A' for Active; 'I' for Inactive)
REMARK    1  A    between atoms: C_2  and  C_4
REMARK    2  A    between atoms: C_7  and  O_8
REMARK    3  A    between atoms: O_8  and  C_9
REMARK    4  A    between atoms: C_9  and  C_10
REMARK    5  A    between atoms: C_15  and  N_16
REMARK    6  A    between atoms: C_19  and  O_20
REMARK                            x       y       z     vdW  Elec       q    Type
REMARK                         _______ _______ _______ _____ _____    ______ ____
ROOT
ATOM      1  C   UNL     1      44.722   4.851  12.134  0.00  0.00    +0.000 A 
ATOM      2  C   UNL     1      45.333   3.872  12.918  0.00  0.00    +0.000 A 
ATOM      3  C   UNL     1      46.557   4.138  13.522  0.00  0.00    +0.000 A 
ATOM      4  F   UNL     1      47.148   3.184  14.251  0.00  0.00    +0.000 F 
ATOM      5  C   UNL     1      47.184   5.368  13.366  0.00  0.00    +0.000 A 
ATOM      6  C   UNL     1      46.600   6.383  12.588  0.00  0.00    +0.000 A 
ATOM      7  C   UNL     1      45.362   6.095  11.991  0.00  0.00    +0.000 A 
ENDROOT
BRANCH   6   8
ATOM      8  N   UNL     1      47.200   7.618  12.426  0.00  0.00    +0.000 N 
ATOM      9  C   UNL     1      46.985   8.690  13.395  0.00  0.00    +0.000 C 
ATOM     10  C   UNL     1      48.289   9.015  14.108  0.00  0.00    +0.000 C 
ATOM     11  C   UNL     1      49.423   9.285  13.120  0.00  0.00    +0.000 C 
ATOM     12  C   UNL     1      49.569   8.166  12.093  0.00  0.00    +0.000 C 
ATOM     13  C   UNL     1      48.243   7.821  11.417  0.00  0.00    +0.000 C 
BRANCH  11  14
ATOM     14  O   UNL     1      49.234  10.543  12.469  0.00  0.00    +0.000 OA
ATOM     15  H   UNL     1      50.100  10.897  12.208  0.00  0.00    +0.000 HD
ENDBRANCH  11  14
ENDBRANCH   6   8
BRANCH   1  16
ATOM     16  C   UNL     1      43.421   4.575  11.415  0.00  0.00    +0.000 C 
BRANCH  16  17
ATOM     17  O   UNL     1      43.536   4.839  10.004  0.00  0.00    +0.000 OA
BRANCH  17  21
ATOM     18  C   UNL     1      46.076   2.138   8.179  0.00  0.00    +0.000 A 
ATOM     19  C   UNL     1      46.214   3.498   7.889  0.00  0.00    +0.000 A 
ATOM     20  C   UNL     1      45.354   4.424   8.504  0.00  0.00    +0.000 A 
ATOM     21  C   UNL     1      44.392   3.944   9.388  0.00  0.00    +0.000 A 
ATOM     22  N   UNL     1      44.250   2.632   9.674  0.00  0.00    +0.000 NA
ATOM     23  C   UNL     1      45.080   1.759   9.062  0.00  0.00    +0.000 A 
BRANCH  18  25
ATOM     24  N   UNL     1      47.969   1.488   6.815  0.00  0.00    +0.000 N 
ATOM     25  C   UNL     1      46.923   1.087   7.587  0.00  0.00    +0.000 C 
ATOM     26  O   UNL     1      46.708  -0.104   7.808  0.00  0.00    +0.000 OA
ATOM     27  H   UNL     1      48.600   0.762   6.496  0.00  0.00    +0.000 HD
ATOM     28  H   UNL     1      48.320   2.435   6.834  0.00  0.00    +0.000 HD
ENDBRANCH  18  25
ENDBRANCH  17  21
ENDBRANCH  16  17
ENDBRANCH   1  16
TORSDOF 6
ENDMDL
MODEL 4
REMARK VINA RESULT:    -7.799      2.197      2.848
REMARK INTER + INTRA:         -11.302
REMARK INTER:                 -10.383
REMARK INTRA:                  -0.919
REMARK UNBOUND:                -0.994
REMARK  Name = 
REMARK  6 active torsions:
REMARK  status: ('A' for Active; 'I' for Inactive)
REMARK    1  A    between atoms: C_2  and  C_4
REMARK    2  A    between atoms: C_7  and  O_8
REMARK    3  A    between atoms: O_8  and  C_9
REMARK    4  A    between atoms: C_9  and  C_10
REMARK    5  A    between atoms: C_15  and  N_16
REMARK    6  A    between atoms: C_19  and  O_20
REMARK                            x       y       z     vdW  Elec       q    Type
REMARK                         _______ _______ _______ _____ _____    ______ ____
ROOT
ATOM      1  C   UNL     1      44.784   6.098  11.611  0.00  0.00    +0.000 A 
ATOM      2  C   UNL     1      44.138   7.308  11.351  0.00  0.00    +0.000 A 
ATOM      3  C   UNL     1      44.763   8.506  11.681  0.00  0.00    +0.000 A 
ATOM      4  F   UNL     1      44.124   9.660  11.453  0.00  0.00    +0.000 F 
ATOM      5  C   UNL     1      46.026   8.525  12.258  0.00  0.00    +0.000 A 
ATOM      6  C   UNL     1      46.712   7.328  12.532  0.00  0.00    +0.000 A 
ATOM      7  C   UNL     1      46.065   6.130  12.187  0.00  0.00    +0.000 A 
ENDROOT
BRANCH   6   8
ATOM      8  N   UNL     1      47.973   7.321  13.098  0.00  0.00    +0.000 N 
ATOM      9  C   UNL     1      49.111   6.741  12.387  0.00  0.00    +0.000 C 
ATOM     10  C   UNL     1      50.118   7.829  12.044  0.00  0.00    +0.000 C 
ATOM     11  C   UNL     1      50.503   8.653  13.272  0.00  0.00    +0.000 C 
ATOM     12  C   UNL     1      49.280   9.186  14.013  0.00  0.00    +0.000 C 
ATOM     13  C   UNL     1      48.259   8.089  14.311  0.00  0.00    +0.000 C 
BRANCH  11  14
ATOM     14  O   UNL     1      51.330   7.887  14.152  0.00  0.00    +0.000 OA
ATOM     15  H   UNL     1      52.052   7.489  13.639  0.00  0.00    +0.000 HD
ENDBRANCH  11  14
ENDBRANCH   6   8
BRANCH   1  16
ATOM     16  C   UNL     1      44.109   4.776  11.322  0.00  0.00    +0.000 C 
BRANCH  16  17
ATOM     17  O   UNL     1      43.718   4.680   9.939  0.00  0.00    +0.000 OA
BRANCH  17  21
ATOM     18  C   UNL     1      46.419   2.460   7.738  0.00  0.00    +0.000 A 
ATOM     19  C   UNL     1      45.597   1.805   8.657  0.00  0.00    +0.000 A 
ATOM     20  C   UNL     1      44.676   2.552   9.412  0.00  0.00    +0.000 A 
ATOM     21  C   UNL     1      44.618   3.927   9.208  0.00  0.00    +0.000 A 
ATOM     22  N   UNL     1      45.409   4.570   8.322  0.00  0.00    +0.000 NA
ATOM     23  C   UNL     1      46.295   3.833   7.617  0.00  0.00    +0.000 A 
BRANCH  18  25
ATOM     24  N   UNL     1      48.463   2.512   6.440  0.00  0.00    +0.000 N 
ATOM     25  C   UNL     1      47.419   1.772   6.901  0.00  0.00    +0.000 C 
ATOM     26  O   UNL     1      47.328   0.570   6.657  0.00  0.00    +0.000 OA
ATOM     27  H   UNL     1      49.194   2.008   5.951  0.00  0.00    +0.000 HD
ATOM     28  H   UNL     1      48.701   3.411   6.835  0.00  0.00    +0.000 HD
ENDBRANCH  18  25
ENDBRANCH  17  21
ENDBRANCH  16  17
ENDBRANCH   1  16
TORSDOF 6
ENDMDL
MODEL 5
REMARK VINA RESULT:    -7.093      4.916      7.850
REMARK INTER + INTRA:         -10.368
REMARK INTER:                  -9.497
REMARK INTRA:                  -0.871
REMARK UNBOUND:                -0.994
REMARK  Name = 
REMARK  6 active torsions:
REMARK  status: ('A' for Active; 'I' for Inactive)
REMARK    1  A    between atoms: C_2  and  C_4
REMARK    2  A    between atoms: C_7  and  O_8
REMARK    3  A    between atoms: O_8  and  C_9
REMARK    4  A    between atoms: C_9  and  C_10
REMARK    5  A    between atoms: C_15  and  N_16
REMARK    6  A    between atoms: C_19  and  O_20
REMARK                            x       y       z     vdW  Elec       q    Type
REMARK                         _______ _______ _______ _____ _____    ______ ____
ROOT
ATOM      1  C   UNL     1      48.272   6.588  14.461  0.00  0.00    +0.000 A 
ATOM      2  C   UNL     1      48.815   7.373  13.442  0.00  0.00    +0.000 A 
ATOM      3  C   UNL     1      48.235   7.356  12.178  0.00  0.00    +0.000 A 
ATOM      4  F   UNL     1      48.778   8.091  11.200  0.00  0.00    +0.000 F 
ATOM      5  C   UNL     1      47.116   6.577  11.908  0.00  0.00    +0.000 A 
ATOM      6  C   UNL     1      46.537   5.776  12.908  0.00  0.00    +0.000 A 
ATOM      7  C   UNL     1      47.135   5.811  14.179  0.00  0.00    +0.000 A 
ENDROOT
BRANCH   6   8
ATOM      8  N   UNL     1      45.419   5.000  12.667  0.00  0.00    +0.000 N 
ATOM      9  C   UNL     1      44.100   5.610  12.514  0.00  0.00    +0.000 C 
ATOM     10  C   UNL     1      43.594   5.404  11.094  0.00  0.00    +0.000 C 
ATOM     11  C   UNL     1      43.653   3.935  10.678  0.00  0.00    +0.000 C 
ATOM     12  C   UNL     1      45.034   3.327  10.913  0.00  0.00    +0.000 C 
ATOM     13  C   UNL     1      45.546   3.581  12.330  0.00  0.00    +0.000 C 
BRANCH  11  14
ATOM     14  O   UNL     1      42.649   3.179  11.359  0.00  0.00    +0.000 OA
ATOM     15  H   UNL     1      41.775   3.519  11.108  0.00  0.00    +0.000 HD
ENDBRANCH  11  14
ENDBRANCH   6   8
BRANCH   1  16
ATOM     16  C   UNL     1      48.912   6.536  15.829  0.00  0.00    +0.000 C 
BRANCH  16  17
ATOM     17  O   UNL     1      48.312   5.517  16.650  0.00  0.00    +0.000 OA
BRANCH  17  21
ATOM     18  C   UNL     1      50.966   2.438  17.392  0.00  0.00    +0.000 A 
ATOM     19  C   UNL     1      49.638   2.127  17.087  0.00  0.00    +0.000 A 
ATOM     20  C   UNL     1      48.728   3.167  16.835  0.00  0.00    +0.000 A 
ATOM     21  C   UNL     1      49.191   4.479  16.896  0.00  0.00    +0.000 A 
ATOM     22  N   UNL     1      50.471   4.789  17.190  0.00  0.00    +0.000 NA
ATOM     23  C   UNL     1      51.326   3.774  17.442  0.00  0.00    +0.000 A 
BRANCH  18  25
ATOM     24  N   UNL     1      51.574   0.207  18.112  0.00  0.00    +0.000 N 
ATOM     25  C   UNL     1      51.998   1.424  17.677  0.00  0.00    +0.000 C 
ATOM     26  O   UNL     1      53.190   1.662  17.497  0.00  0.00    +0.000 OA
ATOM     27  H   UNL     1      52.283  -0.511  18.209  0.00  0.00    +0.000 HD
ATOM     28  H   UNL     1      50.615  -0.096  18.014  0.00  0.00    +0.000 HD
ENDBRANCH  18  25
ENDBRANCH  17  21
ENDBRANCH  16  17
ENDBRANCH   1  16
TORSDOF 6
ENDMDL
MODEL 6
REMARK VINA RESULT:    -6.911      3.662      7.432
REMARK INTER + INTRA:         -10.127
REMARK INTER:                  -9.501
REMARK INTRA:                  -0.627
REMARK UNBOUND:                -0.994
REMARK  Name = 
REMARK  6 active torsions:
REMARK  status: ('A' for Active; 'I' for Inactive)
REMARK    1  A    between atoms: C_2  and  C_4
REMARK    2  A    between atoms: C_7  and  O_8
REMARK    3  A    between atoms: O_8  and  C_9
REMARK    4  A    between atoms: C_9  and  C_10
REMARK    5  A    between atoms: C_15  and  N_16
REMARK    6  A    between atoms: C_19  and  O_20
REMARK                            x       y       z     vdW  Elec       q    Type
REMARK                         _______ _______ _______ _____ _____    ______ ____
ROOT
ATOM      1  C   UNL     1      46.423   8.363  12.935  0.00  0.00    +0.000 A 
ATOM      2  C   UNL     1      45.977   9.532  12.318  0.00  0.00    +0.000 A 
ATOM      3  C   UNL     1      44.892   9.480  11.448  0.00  0.00    +0.000 A 
ATOM      4  F   UNL     1      44.488  10.602  10.841  0.00  0.00    +0.000 F 
ATOM      5  C   UNL     1      44.235   8.285  11.187  0.00  0.00    +0.000 A 
ATOM      6  C   UNL     1      44.650   7.085  11.791  0.00  0.00    +0.000 A 
ATOM      7  C   UNL     1      45.745   7.161  12.669  0.00  0.00    +0.000 A 
ENDROOT
BRANCH   6   8
ATOM      8  N   UNL     1      44.007   5.885  11.554  0.00  0.00    +0.000 N 
ATOM      9  C   UNL     1      44.588   4.887  10.658  0.00  0.00    +0.000 C 
ATOM     10  C   UNL     1      44.965   3.640  11.444  0.00  0.00    +0.000 C 
ATOM     11  C   UNL     1      43.796   3.122  12.280  0.00  0.00    +0.000 C 
ATOM     12  C   UNL     1      43.186   4.216  13.155  0.00  0.00    +0.000 C 
ATOM     13  C   UNL     1      42.854   5.477  12.359  0.00  0.00    +0.000 C 
BRANCH  11  14
ATOM     14  O   UNL     1      42.799   2.535  11.442  0.00  0.00    +0.000 OA
ATOM     15  H   UNL     1      43.214   1.856  10.886  0.00  0.00    +0.000 HD
ENDBRANCH  11  14
ENDBRANCH   6   8
BRANCH   1  16
ATOM     16  C   UNL     1      47.636   8.372  13.838  0.00  0.00    +0.000 C 
BRANCH  16  17
ATOM     17  O   UNL     1      48.430   7.184  13.660  0.00  0.00    +0.000 OA
BRANCH  17  21
ATOM     18  C   UNL     1      47.798   4.454  16.697  0.00  0.00    +0.000 A 
ATOM     19  C   UNL     1      48.537   5.608  16.968  0.00  0.00    +0.000 A 
ATOM     20  C   UNL     1      48.759   6.542  15.942  0.00  0.00    +0.000 A 
ATOM     21  C   UNL     1      48.224   6.278  14.684  0.00  0.00    +0.000 A 
ATOM     22  N   UNL     1      47.510   5.166  14.411  0.00  0.00    +0.000 NA
ATOM     23  C   UNL     1      47.320   4.276  15.410  0.00  0.00    +0.000 A 
BRANCH  18  25
ATOM     24  N   UNL     1      48.250   3.427  18.843  0.00  0.00    +0.000 N 
ATOM     25  C   UNL     1      47.512   3.412  17.700  0.00  0.00    +0.000 C 
ATOM     26  O   UNL     1      46.622   2.584  17.521  0.00  0.00    +0.000 OA
ATOM     27  H   UNL     1      47.978   2.769  19.565  0.00  0.00    +0.000 HD
ATOM     28  H   UNL     1      48.787   4.234  19.126  0.00  0.00    +0.000 HD
ENDBRANCH  18  25
ENDBRANCH  17  21
ENDBRANCH  16  17
ENDBRANCH   1  16
TORSDOF 6
ENDMDL
MODEL 7
REMARK VINA RESULT:    -6.887      2.981      4.204
REMARK INTER + INTRA:         -10.095
REMARK INTER:                  -9.258
REMARK INTRA:                  -0.838
REMARK UNBOUND:                -0.994
REMARK  Name = 
REMARK  6 active torsions:
REMARK  status: ('A' for Active; 'I' for Inactive)
REMARK    1  A    between atoms: C_2  and  C_4
REMARK    2  A    between atoms: C_7  and  O_8
REMARK    3  A    between atoms: O_8  and  C_9
REMARK    4  A    between atoms: C_9  and  C_10
REMARK    5  A    between atoms: C_15  and  N_16
REMARK    6  A    between atoms: C_19  and  O_20
REMARK                            x       y       z     vdW  Elec       q    Type
REMARK                         _______ _______ _______ _____ _____    ______ ____
ROOT
ATOM      1  C   UNL     1      46.341   6.215  12.043  0.00  0.00    +0.000 A 
ATOM      2  C   UNL     1      47.463   6.897  11.568  0.00  0.00    +0.000 A 
ATOM      3  C   UNL     1      48.584   7.027  12.381  0.00  0.00    +0.000 A 
ATOM      4  F   UNL     1      49.645   7.705  11.926  0.00  0.00    +0.000 F 
ATOM      5  C   UNL     1      48.614   6.484  13.659  0.00  0.00    +0.000 A 
ATOM      6  C   UNL     1      47.506   5.787  14.174  0.00  0.00    +0.000 A 
ATOM      7  C   UNL     1      46.386   5.663  13.334  0.00  0.00    +0.000 A 
ENDROOT
BRANCH   6   8
ATOM      8  N   UNL     1      47.515   5.230  15.439  0.00  0.00    +0.000 N 
ATOM      9  C   UNL     1      46.958   3.901  15.677  0.00  0.00    +0.000 C 
ATOM     10  C   UNL     1      48.065   2.941  16.091  0.00  0.00    +0.000 C 
ATOM     11  C   UNL     1      48.886   3.492  17.256  0.00  0.00    +0.000 C 
ATOM     12  C   UNL     1      49.395   4.906  16.983  0.00  0.00    +0.000 C 
ATOM     13  C   UNL     1      48.279   5.845  16.526  0.00  0.00    +0.000 C 
BRANCH  11  14
ATOM     14  O   UNL     1      48.128   3.456  18.467  0.00  0.00    +0.000 OA
ATOM     15  H   UNL     1      48.017   4.363  18.797  0.00  0.00    +0.000 HD
ENDBRANCH  11  14
ENDBRANCH   6   8
BRANCH   1  16
ATOM     16  C   UNL     1      45.084   6.107  11.209  0.00  0.00    +0.000 C 
BRANCH  16  17
ATOM     17  O   UNL     1      44.647   4.740  11.098  0.00  0.00    +0.000 OA
BRANCH  17  21
ATOM     18  C   UNL     1      46.192   2.956   7.706  0.00  0.00    +0.000 A 
ATOM     19  C   UNL     1      45.629   2.149   8.697  0.00  0.00    +0.000 A 
ATOM     20  C   UNL     1      45.102   2.746   9.855  0.00  0.00    +0.000 A 
ATOM     21  C   UNL     1      45.160   4.132   9.967  0.00  0.00    +0.000 A 
ATOM     22  N   UNL     1      45.703   4.921   9.015  0.00  0.00    +0.000 NA
ATOM     23  C   UNL     1      46.214   4.324   7.916  0.00  0.00    +0.000 A 
BRANCH  18  25
ATOM     24  N   UNL     1      46.909   3.299   5.418  0.00  0.00    +0.000 N 
ATOM     25  C   UNL     1      46.774   2.431   6.457  0.00  0.00    +0.000 C 
ATOM     26  O   UNL     1      47.149   1.263   6.371  0.00  0.00    +0.000 OA
ATOM     27  H   UNL     1      47.400   2.953   4.602  0.00  0.00    +0.000 HD
ATOM     28  H   UNL     1      46.860   4.300   5.543  0.00  0.00    +0.000 HD
ENDBRANCH  18  25
ENDBRANCH  17  21
ENDBRANCH  16  17
ENDBRANCH   1  16
TORSDOF 6
ENDMDL
MODEL 8
REMARK VINA RESULT:    -6.771      4.245      8.436
REMARK INTER + INTRA:          -9.943
REMARK INTER:                  -8.922
REMARK INTRA:                  -1.021
REMARK UNBOUND:                -0.994
REMARK  Name = 
REMARK  6 active torsions:
REMARK  status: ('A' for Active; 'I' for Inactive)
REMARK    1  A    between atoms: C_2  and  C_4
REMARK    2  A    between atoms: C_7  and  O_8
REMARK    3  A    between atoms: O_8  and  C_9
REMARK    4  A    between atoms: C_9  and  C_10
REMARK    5  A    between atoms: C_15  and  N_16
REMARK    6  A    between atoms: C_19  and  O_20
REMARK                            x       y       z     vdW  Elec       q    Type
REMARK                         _______ _______ _______ _____ _____    ______ ____
ROOT
ATOM      1  C   UNL     1      47.824   7.192  13.616  0.00  0.00    +0.000 A 
ATOM      2  C   UNL     1      47.260   8.440  13.345  0.00  0.00    +0.000 A 
ATOM      3  C   UNL     1      45.941   8.518  12.909  0.00  0.00    +0.000 A 
ATOM      4  F   UNL     1      45.417   9.717  12.626  0.00  0.00    +0.000 F 
ATOM      5  C   UNL     1      45.167   7.376  12.746  0.00  0.00    +0.000 A 
ATOM      6  C   UNL     1      45.697   6.101  13.012  0.00  0.00    +0.000 A 
ATOM      7  C   UNL     1      47.029   6.045  13.456  0.00  0.00    +0.000 A 
ENDROOT
BRANCH   6   8
ATOM      8  N   UNL     1      44.944   4.951  12.866  0.00  0.00    +0.000 N 
ATOM      9  C   UNL     1      43.484   5.008  12.838  0.00  0.00    +0.000 C 
ATOM     10  C   UNL     1      42.975   4.588  11.467  0.00  0.00    +0.000 C 
ATOM     11  C   UNL     1      43.555   3.242  11.035  0.00  0.00    +0.000 C 
ATOM     12  C   UNL     1      45.078   3.212  11.139  0.00  0.00    +0.000 C 
ATOM     13  C   UNL     1      45.575   3.680  12.506  0.00  0.00    +0.000 C 
BRANCH  11  14
ATOM     14  O   UNL     1      42.979   2.178  11.796  0.00  0.00    +0.000 OA
ATOM     15  H   UNL     1      43.688   1.588  12.100  0.00  0.00    +0.000 HD
ENDBRANCH  11  14
ENDBRANCH   6   8
BRANCH   1  16
ATOM     16  C   UNL     1      49.272   7.066  14.033  0.00  0.00    +0.000 C 
BRANCH  16  17
ATOM     17  O   UNL     1      49.528   7.781  15.256  0.00  0.00    +0.000 OA
BRANCH  17  21
ATOM     18  C   UNL     1      48.908   5.370  18.555  0.00  0.00    +0.000 A 
ATOM     19  C   UNL     1      48.418   6.678  18.572  0.00  0.00    +0.000 A 
ATOM     20  C   UNL     1      48.625   7.506  17.456  0.00  0.00    +0.000 A 
ATOM     21  C   UNL     1      49.315   6.983  16.365  0.00  0.00    +0.000 A 
ATOM     22  N   UNL     1      49.793   5.721  16.339  0.00  0.00    +0.000 NA
ATOM     23  C   UNL     1      49.593   4.947  17.429  0.00  0.00    +0.000 A 
BRANCH  18  25
ATOM     24  N   UNL     1      48.382   3.149  19.365  0.00  0.00    +0.000 N 
ATOM     25  C   UNL     1      48.748   4.423  19.673  0.00  0.00    +0.000 C 
ATOM     26  O   UNL     1      48.968   4.764  20.833  0.00  0.00    +0.000 OA
ATOM     27  H   UNL     1      48.372   2.484  20.129  0.00  0.00    +0.000 HD
ATOM     28  H   UNL     1      48.454   2.780  18.427  0.00  0.00    +0.000 HD
ENDBRANCH  18  25
ENDBRANCH  17  21
ENDBRANCH  16  17
ENDBRANCH   1  16
TORSDOF 6
ENDMDL
MODEL 9
REMARK VINA RESULT:    -6.548      3.976      6.151
REMARK INTER + INTRA:          -9.648
REMARK INTER:                  -8.769
REMARK INTRA:                  -0.879
REMARK UNBOUND:                -0.994
REMARK  Name = 
REMARK  6 active torsions:
REMARK  status: ('A' for Active; 'I' for Inactive)
REMARK    1  A    between atoms: C_2  and  C_4
REMARK    2  A    between atoms: C_7  and  O_8
REMARK    3  A    between atoms: O_8  and  C_9
REMARK    4  A    between atoms: C_9  and  C_10
REMARK    5  A    between atoms: C_15  and  N_16
REMARK    6  A    between atoms: C_19  and  O_20
REMARK                            x       y       z     vdW  Elec       q    Type
REMARK                         _______ _______ _______ _____ _____    ______ ____
ROOT
ATOM      1  C   UNL     1      48.730   7.387  13.647  0.00  0.00    +0.000 A 
ATOM      2  C   UNL     1      49.964   8.040  13.615  0.00  0.00    +0.000 A 
ATOM      3  C   UNL     1      50.852   7.884  14.674  0.00  0.00    +0.000 A 
ATOM      4  F   UNL     1      52.021   8.535  14.647  0.00  0.00    +0.000 F 
ATOM      5  C   UNL     1      50.540   7.082  15.764  0.00  0.00    +0.000 A 
ATOM      6  C   UNL     1      49.310   6.404  15.833  0.00  0.00    +0.000 A 
ATOM      7  C   UNL     1      48.429   6.571  14.751  0.00  0.00    +0.000 A 
ENDROOT
BRANCH   6   8
ATOM      8  N   UNL     1      48.980   5.593  16.902  0.00  0.00    +0.000 N 
ATOM      9  C   UNL     1      47.724   4.846  16.919  0.00  0.00    +0.000 C 
ATOM     10  C   UNL     1      48.008   3.352  16.872  0.00  0.00    +0.000 C 
ATOM     11  C   UNL     1      49.000   2.929  17.955  0.00  0.00    +0.000 C 
ATOM     12  C   UNL     1      50.269   3.777  17.935  0.00  0.00    +0.000 C 
ATOM     13  C   UNL     1      49.966   5.275  17.938  0.00  0.00    +0.000 C 
BRANCH  11  14
ATOM     14  O   UNL     1      48.385   2.975  19.244  0.00  0.00    +0.000 OA
ATOM     15  H   UNL     1      48.250   2.067  19.561  0.00  0.00    +0.000 HD
ENDBRANCH  11  14
ENDBRANCH   6   8
BRANCH   1  16
ATOM     16  C   UNL     1      47.717   7.582  12.542  0.00  0.00    +0.000 C 
BRANCH  16  17
ATOM     17  O   UNL     1      46.373   7.415  13.029  0.00  0.00    +0.000 OA
BRANCH  17  21
ATOM     18  C   UNL     1      44.560   4.067  11.422  0.00  0.00    +0.000 A 
ATOM     19  C   UNL     1      45.005   5.074  10.562  0.00  0.00    +0.000 A 
ATOM     20  C   UNL     1      45.621   6.217  11.099  0.00  0.00    +0.000 A 
ATOM     21  C   UNL     1      45.768   6.299  12.481  0.00  0.00    +0.000 A 
ATOM     22  N   UNL     1      45.341   5.332  13.321  0.00  0.00    +0.000 NA
ATOM     23  C   UNL     1      44.740   4.248  12.783  0.00  0.00    +0.000 A 
BRANCH  18  25
ATOM     24  N   UNL     1      44.469   2.169   9.920  0.00  0.00    +0.000 N 
ATOM     25  C   UNL     1      43.899   2.832  10.963  0.00  0.00    +0.000 C 
ATOM     26  O   UNL     1      42.890   2.404  11.521  0.00  0.00    +0.000 OA
ATOM     27  H   UNL     1      44.063   1.273   9.679  0.00  0.00    +0.000 HD
ATOM     28  H   UNL     1      45.419   2.346   9.625  0.00  0.00    +0.000 HD
ENDBRANCH  18  25
ENDBRANCH  17  21
ENDBRANCH  16  17
ENDBRANCH   1  16
TORSDOF 6
ENDMDL
