MODEL 1
REMARK VINA RESULT:    -8.663      0.000      0.000
REMARK INTER + INTRA:         -13.045
REMARK INTER:                 -12.208
REMARK INTRA:                  -0.837
REMARK UNBOUND:                -0.837
REMARK  Name = 
REMARK  8 active torsions:
REMARK  status: ('A' for Active; 'I' for Inactive)
REMARK    1  A    between atoms: N_1  and  C_2
REMARK    2  A    between atoms: C_2  and  C_3
REMARK    3  A    between atoms: C_3  and  O_4
REMARK    4  A    between atoms: O_4  and  C_5
REMARK    5  A    between atoms: C_9  and  C_10
REMARK    6  A    between atoms: C_10  and  N_11
REMARK    7  A    between atoms: C_16  and  C_17
REMARK    8  A    between atoms: C_17  and  O_19
REMARK                            x       y       z     vdW  Elec       q    Type
REMARK                         _______ _______ _______ _____ _____    ______ ____
ROOT
ATOM      1  C   UNL     1      44.303   5.840  11.046  0.00  0.00    +0.000 C 
ENDROOT
BRANCH   1   2
ATOM      2  N   UNL     1      43.964   4.543  10.465  0.00  0.00    +0.000 N 
ATOM      3  N   UNL     1      43.209   3.686  11.193  0.00  0.00    +0.000 NA
ATOM      4  C   UNL     1      43.578   2.485  10.747  0.00  0.00    +0.000 A 
ATOM      5  C   UNL     1      44.550   2.559   9.729  0.00  0.00    +0.000 A 
ATOM      6  C   UNL     1      45.347   1.637   9.029  0.00  0.00    +0.000 A 
ATOM      7  C   UNL     1      46.214   2.125   8.037  0.00  0.00    +0.000 A 
ATOM      8  C   UNL     1      46.193   3.473   7.662  0.00  0.00    +0.000 A 
ATOM      9  C   UNL     1      45.424   4.402   8.373  0.00  0.00    +0.000 A 
ATOM     10  C   UNL     1      44.661   3.918   9.446  0.00  0.00    +0.000 A 
BRANCH   7  11
ATOM     11  C   UNL     1      47.189   1.229   7.380  0.00  0.00    +0.000 C 
ATOM     12  O   UNL     1      48.096   1.620   6.670  0.00  0.00    +0.000 OA
BRANCH  11  13
ATOM     13  O   UNL     1      47.015  -0.064   7.731  0.00  0.00    +0.000 OA
ATOM     14  H   UNL     1      46.327  -0.543   7.229  0.00  0.00    +0.000 HD
ENDBRANCH  11  13
ENDBRANCH   7  11
ENDBRANCH   1   2
BRANCH   1  19
ATOM     15  C   UNL     1      46.782   4.992  13.801  0.00  0.00    +0.000 A 
ATOM     16  C   UNL     1      47.870   5.784  13.447  0.00  0.00    +0.000 A 
ATOM     17  C   UNL     1      47.815   6.587  12.303  0.00  0.00    +0.000 A 
ATOM     18  C   UNL     1      46.665   6.601  11.512  0.00  0.00    +0.000 A 
ATOM     19  C   UNL     1      45.561   5.815  11.862  0.00  0.00    +0.000 A 
ATOM     20  C   UNL     1      45.636   5.014  13.004  0.00  0.00    +0.000 A 
BRANCH  15  21
ATOM     21  O   UNL     1      46.703   4.141  14.858  0.00  0.00    +0.000 OA
BRANCH  21  22
ATOM     22  C   UNL     1      47.431   4.476  16.038  0.00  0.00    +0.000 C 
BRANCH  22  23
ATOM     23  C   UNL     1      47.684   3.160  16.782  0.00  0.00    +0.000 C 
BRANCH  23  24
ATOM     24  N   UNL     1      46.637   2.846  17.752  0.00  0.00    +0.000 NA
ATOM     25  H   UNL     1      46.602   3.592  18.448  0.00  0.00    +0.000 HD
ATOM     26  H   UNL     1      46.890   2.001  18.263  0.00  0.00    +0.000 HD
ENDBRANCH  23  24
ENDBRANCH  22  23
ENDBRANCH  21  22
ENDBRANCH  15  21
ENDBRANCH   1  19
TORSDOF 8
ENDMDL
MODEL 2
REMARK VINA RESULT:    -7.557      2.147      3.084
REMARK INTER + INTRA:         -11.487
REMARK INTER:                 -10.670
REMARK INTRA:                  -0.817
REMARK UNBOUND:                -0.837
REMARK  Name = 
REMARK  8 active torsions:
REMARK  status: ('A' for Active; 'I' for Inactive)
REMARK    1  A    between atoms: N_1  and  C_2
REMARK    2  A    between atoms: C_2  and  C_3
REMARK    3  A    between atoms: C_3  and  O_4
REMARK    4  A    between atoms: O_4  and  C_5
REMARK    5  A    between atoms: C_9  and  C_10
REMARK    6  A    between atoms: C_10  and  N_11
REMARK    7  A    between atoms: C_16  and  C_17
REMARK    8  A    between atoms: C_17  and  O_19
REMARK                            x       y       z     vdW  Elec       q    Type
REMARK                         _______ _______ _______ _____ _____    ______ ____
ROOT
ATOM      1  C   UNL     1      44.313   5.875  10.925  0.00  0.00    +0.000 C 
ENDROOT
BRANCH   1   2
ATOM      2  N   UNL     1      43.973   4.564  10.377  0.00  0.00    +0.000 N 
ATOM      3  N   UNL     1      43.218   3.727  11.128  0.00  0.00    +0.000 NA
ATOM      4  C   UNL     1      43.585   2.514  10.714  0.00  0.00    +0.000 A 
ATOM      5  C   UNL     1      44.557   2.560   9.693  0.00  0.00    +0.000 A 
ATOM      6  C   UNL     1      45.353   1.620   9.018  0.00  0.00    +0.000 A 
ATOM      7  C   UNL     1      46.221   2.081   8.014  0.00  0.00    +0.000 A 
ATOM      8  C   UNL     1      46.201   3.419   7.604  0.00  0.00    +0.000 A 
ATOM      9  C   UNL     1      45.433   4.366   8.290  0.00  0.00    +0.000 A 
ATOM     10  C   UNL     1      44.670   3.911   9.375  0.00  0.00    +0.000 A 
BRANCH   7  11
ATOM     11  C   UNL     1      47.195   1.166   7.380  0.00  0.00    +0.000 C 
ATOM     12  O   UNL     1      48.114   1.540   6.677  0.00  0.00    +0.000 OA
BRANCH  11  13
ATOM     13  O   UNL     1      47.004  -0.120   7.745  0.00  0.00    +0.000 OA
ATOM     14  H   UNL     1      46.127  -0.318   8.128  0.00  0.00    +0.000 HD
ENDBRANCH  11  13
ENDBRANCH   7  11
ENDBRANCH   1   2
BRANCH   1  19
ATOM     15  C   UNL     1      47.807   6.566  12.257  0.00  0.00    +0.000 A 
ATOM     16  C   UNL     1      47.820   5.792  13.413  0.00  0.00    +0.000 A 
ATOM     17  C   UNL     1      46.690   5.052  13.779  0.00  0.00    +0.000 A 
ATOM     18  C   UNL     1      45.544   5.084  12.983  0.00  0.00    +0.000 A 
ATOM     19  C   UNL     1      45.521   5.853  11.813  0.00  0.00    +0.000 A 
ATOM     20  C   UNL     1      46.656   6.590  11.467  0.00  0.00    +0.000 A 
BRANCH  15  21
ATOM     21  O   UNL     1      48.810   7.359  11.795  0.00  0.00    +0.000 OA
BRANCH  21  22
ATOM     22  C   UNL     1      49.340   8.345  12.680  0.00  0.00    +0.000 C 
BRANCH  22  23
ATOM     23  C   UNL     1      50.814   8.524  12.301  0.00  0.00    +0.000 C 
BRANCH  23  24
ATOM     24  N   UNL     1      51.319   7.440  11.460  0.00  0.00    +0.000 NA
ATOM     25  H   UNL     1      51.289   6.571  11.995  0.00  0.00    +0.000 HD
ATOM     26  H   UNL     1      52.303   7.604  11.251  0.00  0.00    +0.000 HD
ENDBRANCH  23  24
ENDBRANCH  22  23
ENDBRANCH  21  22
ENDBRANCH  15  21
ENDBRANCH   1  19
TORSDOF 8
ENDMDL
MODEL 3
REMARK VINA RESULT:    -6.953      2.143      6.676
REMARK INTER + INTRA:         -10.636
REMARK INTER:                 -10.647
REMARK INTRA:                   0.011
REMARK UNBOUND:                -0.837
REMARK  Name = 
REMARK  8 active torsions:
REMARK  status: ('A' for Active; 'I' for Inactive)
REMARK    1  A    between atoms: N_1  and  C_2
REMARK    2  A    between atoms: C_2  and  C_3
REMARK    3  A    between atoms: C_3  and  O_4
REMARK    4  A    between atoms: O_4  and  C_5
REMARK    5  A    between atoms: C_9  and  C_10
REMARK    6  A    between atoms: C_10  and  N_11
REMARK    7  A    between atoms: C_16  and  C_17
REMARK    8  A    between atoms: C_17  and  O_19
REMARK                            x       y       z     vdW  Elec       q    Type
REMARK                         _______ _______ _______ _____ _____    ______ ____
ROOT
ATOM      1  C   UNL     1      43.436   2.878  11.334  0.00  0.00    +0.000 C 
ENDROOT
BRANCH   1   2
ATOM      2  N   UNL     1      43.541   4.097  12.132  0.00  0.00    +0.000 N 
ATOM      3  N   UNL     1      42.592   5.051  11.982  0.00  0.00    +0.000 NA
ATOM      4  C   UNL     1      43.228   6.180  12.293  0.00  0.00    +0.000 A 
ATOM      5  C   UNL     1      44.573   5.964  12.657  0.00  0.00    +0.000 A 
ATOM      6  C   UNL     1      45.683   6.777  12.937  0.00  0.00    +0.000 A 
ATOM      7  C   UNL     1      46.892   6.154  13.291  0.00  0.00    +0.000 A 
ATOM      8  C   UNL     1      46.958   4.770  13.487  0.00  0.00    +0.000 A 
ATOM      9  C   UNL     1      45.866   3.951  13.183  0.00  0.00    +0.000 A 
ATOM     10  C   UNL     1      44.705   4.578  12.707  0.00  0.00    +0.000 A 
BRANCH   7  11
ATOM     11  C   UNL     1      48.133   6.945  13.441  0.00  0.00    +0.000 C 
ATOM     12  O   UNL     1      48.197   7.990  14.059  0.00  0.00    +0.000 OA
BRANCH  11  13
ATOM     13  O   UNL     1      49.204   6.329  12.894  0.00  0.00    +0.000 OA
ATOM     14  H   UNL     1      50.039   6.834  12.933  0.00  0.00    +0.000 HD
ENDBRANCH  11  13
ENDBRANCH   7  11
ENDBRANCH   1   2
BRANCH   1  19
ATOM     15  C   UNL     1      45.716   1.872   8.461  0.00  0.00    +0.000 A 
ATOM     16  C   UNL     1      45.720   3.032   7.693  0.00  0.00    +0.000 A 
ATOM     17  C   UNL     1      44.969   4.144   8.091  0.00  0.00    +0.000 A 
ATOM     18  C   UNL     1      44.216   4.097   9.265  0.00  0.00    +0.000 A 
ATOM     19  C   UNL     1      44.211   2.939  10.051  0.00  0.00    +0.000 A 
ATOM     20  C   UNL     1      44.960   1.836   9.635  0.00  0.00    +0.000 A 
BRANCH  15  21
ATOM     21  O   UNL     1      46.363   0.709   8.186  0.00  0.00    +0.000 OA
BRANCH  21  22
ATOM     22  C   UNL     1      47.021   0.596   6.925  0.00  0.00    +0.000 C 
BRANCH  22  23
ATOM     23  C   UNL     1      48.043   1.736   6.864  0.00  0.00    +0.000 C 
BRANCH  23  24
ATOM     24  N   UNL     1      48.479   2.034   5.501  0.00  0.00    +0.000 NA
ATOM     25  H   UNL     1      49.275   1.436   5.275  0.00  0.00    +0.000 HD
ATOM     26  H   UNL     1      48.829   2.990   5.458  0.00  0.00    +0.000 HD
ENDBRANCH  23  24
ENDBRANCH  22  23
ENDBRANCH  21  22
ENDBRANCH  15  21
ENDBRANCH   1  19
TORSDOF 8
ENDMDL
MODEL 4
REMARK VINA RESULT:    -6.575      2.992      4.707
REMARK INTER + INTRA:         -10.103
REMARK INTER:                  -9.375
REMARK INTRA:                  -0.727
REMARK UNBOUND:                -0.837
REMARK  Name = 
REMARK  8 active torsions:
REMARK  status: ('A' for Active; 'I' for Inactive)
REMARK    1  A    between atoms: N_1  and  C_2
REMARK    2  A    between atoms: C_2  and  C_3
REMARK    3  A    between atoms: C_3  and  O_4
REMARK    4  A    between atoms: O_4  and  C_5
REMARK    5  A    between atoms: C_9  and  C_10
REMARK    6  A    between atoms: C_10  and  N_11
REMARK    7  A    between atoms: C_16  and  C_17
REMARK    8  A    between atoms: C_17  and  O_19
REMARK                            x       y       z     vdW  Elec       q    Type
REMARK                         _______ _______ _______ _____ _____    ______ ____
ROOT
ATOM      1  C   UNL     1      45.644   5.494  12.164  0.00  0.00    +0.000 C 
ENDROOT
BRANCH   1   2
ATOM      2  N   UNL     1      44.884   4.676  11.221  0.00  0.00    +0.000 N 
ATOM      3  N   UNL     1      43.991   3.785  11.713  0.00  0.00    +0.000 NA
ATOM      4  C   UNL     1      43.946   2.835  10.778  0.00  0.00    +0.000 A 
ATOM      5  C   UNL     1      44.788   3.112   9.682  0.00  0.00    +0.000 A 
ATOM      6  C   UNL     1      45.206   2.420   8.533  0.00  0.00    +0.000 A 
ATOM      7  C   UNL     1      46.072   3.072   7.640  0.00  0.00    +0.000 A 
ATOM      8  C   UNL     1      46.407   4.420   7.817  0.00  0.00    +0.000 A 
ATOM      9  C   UNL     1      46.018   5.108   8.972  0.00  0.00    +0.000 A 
ATOM     10  C   UNL     1      45.261   4.400   9.918  0.00  0.00    +0.000 A 
BRANCH   7  11
ATOM     11  C   UNL     1      46.671   2.344   6.501  0.00  0.00    +0.000 C 
ATOM     12  O   UNL     1      46.775   2.808   5.382  0.00  0.00    +0.000 OA
BRANCH  11  13
ATOM     13  O   UNL     1      47.172   1.144   6.866  0.00  0.00    +0.000 OA
ATOM     14  H   UNL     1      47.281   1.014   7.828  0.00  0.00    +0.000 HD
ENDBRANCH  11  13
ENDBRANCH   7  11
ENDBRANCH   1   2
BRANCH   1  19
ATOM     15  C   UNL     1      43.912   8.753  11.247  0.00  0.00    +0.000 A 
ATOM     16  C   UNL     1      44.810   9.692  11.745  0.00  0.00    +0.000 A 
ATOM     17  C   UNL     1      45.976   9.276  12.397  0.00  0.00    +0.000 A 
ATOM     18  C   UNL     1      46.247   7.916  12.547  0.00  0.00    +0.000 A 
ATOM     19  C   UNL     1      45.356   6.961  12.044  0.00  0.00    +0.000 A 
ATOM     20  C   UNL     1      44.194   7.394  11.402  0.00  0.00    +0.000 A 
BRANCH  15  21
ATOM     21  O   UNL     1      42.730   9.004  10.626  0.00  0.00    +0.000 OA
BRANCH  21  22
ATOM     22  C   UNL     1      42.421  10.360  10.307  0.00  0.00    +0.000 C 
BRANCH  22  23
ATOM     23  C   UNL     1      41.050  10.652  10.926  0.00  0.00    +0.000 C 
BRANCH  23  24
ATOM     24  N   UNL     1      40.373   9.448  11.400  0.00  0.00    +0.000 NA
ATOM     25  H   UNL     1      41.011   8.930  12.006  0.00  0.00    +0.000 HD
ATOM     26  H   UNL     1      40.180   8.833  10.609  0.00  0.00    +0.000 HD
ENDBRANCH  23  24
ENDBRANCH  22  23
ENDBRANCH  21  22
ENDBRANCH  15  21
ENDBRANCH   1  19
TORSDOF 8
ENDMDL
MODEL 5
REMARK VINA RESULT:    -6.498      3.144      7.503
REMARK INTER + INTRA:          -9.994
REMARK INTER:                  -9.357
REMARK INTRA:                  -0.637
REMARK UNBOUND:                -0.837
REMARK  Name = 
REMARK  8 active torsions:
REMARK  status: ('A' for Active; 'I' for Inactive)
REMARK    1  A    between atoms: N_1  and  C_2
REMARK    2  A    between atoms: C_2  and  C_3
REMARK    3  A    between atoms: C_3  and  O_4
REMARK    4  A    between atoms: O_4  and  C_5
REMARK    5  A    between atoms: C_9  and  C_10
REMARK    6  A    between atoms: C_10  and  N_11
REMARK    7  A    between atoms: C_16  and  C_17
REMARK    8  A    between atoms: C_17  and  O_19
REMARK                            x       y       z     vdW  Elec       q    Type
REMARK                         _______ _______ _______ _____ _____    ______ ____
ROOT
ATOM      1  C   UNL     1      45.173   5.746  11.784  0.00  0.00    +0.000 C 
ENDROOT
BRANCH   1   2
ATOM      2  N   UNL     1      46.350   5.541  12.625  0.00  0.00    +0.000 N 
ATOM      3  N   UNL     1      46.229   4.760  13.725  0.00  0.00    +0.000 NA
ATOM      4  C   UNL     1      47.158   5.237  14.555  0.00  0.00    +0.000 A 
ATOM      5  C   UNL     1      47.886   6.308  13.996  0.00  0.00    +0.000 A 
ATOM      6  C   UNL     1      48.846   7.223  14.459  0.00  0.00    +0.000 A 
ATOM      7  C   UNL     1      49.361   8.164  13.552  0.00  0.00    +0.000 A 
ATOM      8  C   UNL     1      49.028   8.111  12.194  0.00  0.00    +0.000 A 
ATOM      9  C   UNL     1      48.052   7.222  11.730  0.00  0.00    +0.000 A 
ATOM     10  C   UNL     1      47.453   6.376  12.674  0.00  0.00    +0.000 A 
BRANCH   7  11
ATOM     11  C   UNL     1      50.250   9.250  14.016  0.00  0.00    +0.000 C 
ATOM     12  O   UNL     1      49.876  10.188  14.693  0.00  0.00    +0.000 OA
BRANCH  11  13
ATOM     13  O   UNL     1      51.541   9.034  13.681  0.00  0.00    +0.000 OA
ATOM     14  H   UNL     1      51.803   8.095  13.616  0.00  0.00    +0.000 HD
ENDBRANCH  11  13
ENDBRANCH   7  11
ENDBRANCH   1   2
BRANCH   1  19
ATOM     15  C   UNL     1      45.512   3.984   8.431  0.00  0.00    +0.000 A 
ATOM     16  C   UNL     1      44.737   2.846   8.637  0.00  0.00    +0.000 A 
ATOM     17  C   UNL     1      44.113   2.633   9.871  0.00  0.00    +0.000 A 
ATOM     18  C   UNL     1      44.260   3.563  10.901  0.00  0.00    +0.000 A 
ATOM     19  C   UNL     1      45.029   4.716  10.703  0.00  0.00    +0.000 A 
ATOM     20  C   UNL     1      45.651   4.909   9.467  0.00  0.00    +0.000 A 
BRANCH  15  21
ATOM     21  O   UNL     1      46.202   4.308   7.306  0.00  0.00    +0.000 OA
BRANCH  21  22
ATOM     22  C   UNL     1      46.490   3.263   6.379  0.00  0.00    +0.000 C 
BRANCH  22  23
ATOM     23  C   UNL     1      47.840   2.669   6.796  0.00  0.00    +0.000 C 
BRANCH  23  24
ATOM     24  N   UNL     1      48.417   1.798   5.775  0.00  0.00    +0.000 NA
ATOM     25  H   UNL     1      47.805   0.991   5.650  0.00  0.00    +0.000 HD
ATOM     26  H   UNL     1      49.305   1.425   6.110  0.00  0.00    +0.000 HD
ENDBRANCH  23  24
ENDBRANCH  22  23
ENDBRANCH  21  22
ENDBRANCH  15  21
ENDBRANCH   1  19
TORSDOF 8
ENDMDL
MODEL 6
REMARK VINA RESULT:    -6.295      2.701      6.631
REMARK INTER + INTRA:          -9.709
REMARK INTER:                  -8.835
REMARK INTRA:                  -0.874
REMARK UNBOUND:                -0.837
REMARK  Name = 
REMARK  8 active torsions:
REMARK  status: ('A' for Active; 'I' for Inactive)
REMARK    1  A    between atoms: N_1  and  C_2
REMARK    2  A    between atoms: C_2  and  C_3
REMARK    3  A    between atoms: C_3  and  O_4
REMARK    4  A    between atoms: O_4  and  C_5
REMARK    5  A    between atoms: C_9  and  C_10
REMARK    6  A    between atoms: C_10  and  N_11
REMARK    7  A    between atoms: C_16  and  C_17
REMARK    8  A    between atoms: C_17  and  O_19
REMARK                            x       y       z     vdW  Elec       q    Type
REMARK                         _______ _______ _______ _____ _____    ______ ____
ROOT
ATOM      1  C   UNL     1      42.829   5.284  11.408  0.00  0.00    +0.000 C 
ENDROOT
BRANCH   1   2
ATOM      2  N   UNL     1      43.595   6.472  11.780  0.00  0.00    +0.000 N 
ATOM      3  N   UNL     1      43.294   7.648  11.180  0.00  0.00    +0.000 NA
ATOM      4  C   UNL     1      44.445   8.321  11.213  0.00  0.00    +0.000 A 
ATOM      5  C   UNL     1      45.480   7.598  11.841  0.00  0.00    +0.000 A 
ATOM      6  C   UNL     1      46.862   7.771  12.023  0.00  0.00    +0.000 A 
ATOM      7  C   UNL     1      47.565   6.795  12.749  0.00  0.00    +0.000 A 
ATOM      8  C   UNL     1      46.891   5.747  13.386  0.00  0.00    +0.000 A 
ATOM      9  C   UNL     1      45.519   5.552  13.186  0.00  0.00    +0.000 A 
ATOM     10  C   UNL     1      44.856   6.463  12.352  0.00  0.00    +0.000 A 
BRANCH   7  11
ATOM     11  C   UNL     1      49.040   6.838  12.839  0.00  0.00    +0.000 C 
ATOM     12  O   UNL     1      49.762   7.204  11.931  0.00  0.00    +0.000 OA
BRANCH  11  13
ATOM     13  O   UNL     1      49.489   6.515  14.071  0.00  0.00    +0.000 OA
ATOM     14  H   UNL     1      49.814   7.265  14.606  0.00  0.00    +0.000 HD
ENDBRANCH  11  13
ENDBRANCH   7  11
ENDBRANCH   1   2
BRANCH   1  19
ATOM     15  C   UNL     1      45.007   3.760   8.689  0.00  0.00    +0.000 A 
ATOM     16  C   UNL     1      45.078   2.434   9.103  0.00  0.00    +0.000 A 
ATOM     17  C   UNL     1      44.434   2.026  10.277  0.00  0.00    +0.000 A 
ATOM     18  C   UNL     1      43.713   2.949  11.036  0.00  0.00    +0.000 A 
ATOM     19  C   UNL     1      43.627   4.284  10.626  0.00  0.00    +0.000 A 
ATOM     20  C   UNL     1      44.281   4.674   9.455  0.00  0.00    +0.000 A 
BRANCH  15  21
ATOM     21  O   UNL     1      45.604   4.307   7.597  0.00  0.00    +0.000 OA
BRANCH  21  22
ATOM     22  C   UNL     1      46.909   3.845   7.252  0.00  0.00    +0.000 C 
BRANCH  22  23
ATOM     23  C   UNL     1      46.736   2.903   6.057  0.00  0.00    +0.000 C 
BRANCH  23  24
ATOM     24  N   UNL     1      47.512   1.671   6.188  0.00  0.00    +0.000 NA
ATOM     25  H   UNL     1      46.986   1.013   6.764  0.00  0.00    +0.000 HD
ATOM     26  H   UNL     1      48.372   1.865   6.701  0.00  0.00    +0.000 HD
ENDBRANCH  23  24
ENDBRANCH  22  23
ENDBRANCH  21  22
ENDBRANCH  15  21
ENDBRANCH   1  19
TORSDOF 8
ENDMDL
MODEL 7
REMARK VINA RESULT:    -6.263      2.931      8.212
REMARK INTER + INTRA:          -9.664
REMARK INTER:                  -9.026
REMARK INTRA:                  -0.638
REMARK UNBOUND:                -0.837
REMARK  Name = 
REMARK  8 active torsions:
REMARK  status: ('A' for Active; 'I' for Inactive)
REMARK    1  A    between atoms: N_1  and  C_2
REMARK    2  A    between atoms: C_2  and  C_3
REMARK    3  A    between atoms: C_3  and  O_4
REMARK    4  A    between atoms: O_4  and  C_5
REMARK    5  A    between atoms: C_9  and  C_10
REMARK    6  A    between atoms: C_10  and  N_11
REMARK    7  A    between atoms: C_16  and  C_17
REMARK    8  A    between atoms: C_17  and  O_19
REMARK                            x       y       z     vdW  Elec       q    Type
REMARK                         _______ _______ _______ _____ _____    ______ ____
ROOT
ATOM      1  C   UNL     1      46.832   3.756  13.610  0.00  0.00    +0.000 C 
ENDROOT
BRANCH   1   2
ATOM      2  N   UNL     1      47.198   4.840  14.518  0.00  0.00    +0.000 N 
ATOM      3  N   UNL     1      47.794   5.941  14.000  0.00  0.00    +0.000 NA
ATOM      4  C   UNL     1      48.527   6.408  15.011  0.00  0.00    +0.000 A 
ATOM      5  C   UNL     1      48.399   5.628  16.180  0.00  0.00    +0.000 A 
ATOM      6  C   UNL     1      49.019   5.593  17.439  0.00  0.00    +0.000 A 
ATOM      7  C   UNL     1      48.579   4.639  18.372  0.00  0.00    +0.000 A 
ATOM      8  C   UNL     1      47.466   3.833  18.106  0.00  0.00    +0.000 A 
ATOM      9  C   UNL     1      46.860   3.843  16.845  0.00  0.00    +0.000 A 
ATOM     10  C   UNL     1      47.396   4.710  15.881  0.00  0.00    +0.000 A 
BRANCH   7  11
ATOM     11  C   UNL     1      49.296   4.447  19.651  0.00  0.00    +0.000 C 
ATOM     12  O   UNL     1      50.337   5.008  19.933  0.00  0.00    +0.000 OA
BRANCH  11  13
ATOM     13  O   UNL     1      48.617   3.651  20.505  0.00  0.00    +0.000 OA
ATOM     14  H   UNL     1      47.889   4.086  20.991  0.00  0.00    +0.000 HD
ENDBRANCH  11  13
ENDBRANCH   7  11
ENDBRANCH   1   2
BRANCH   1  19
ATOM     15  C   UNL     1      44.012   3.490  11.073  0.00  0.00    +0.000 A 
ATOM     16  C   UNL     1      43.085   4.388  11.595  0.00  0.00    +0.000 A 
ATOM     17  C   UNL     1      43.360   5.073  12.783  0.00  0.00    +0.000 A 
ATOM     18  C   UNL     1      44.569   4.864  13.449  0.00  0.00    +0.000 A 
ATOM     19  C   UNL     1      45.512   3.971  12.930  0.00  0.00    +0.000 A 
ATOM     20  C   UNL     1      45.218   3.290  11.746  0.00  0.00    +0.000 A 
BRANCH  15  21
ATOM     21  O   UNL     1      43.871   2.731   9.954  0.00  0.00    +0.000 OA
BRANCH  21  22
ATOM     22  C   UNL     1      45.015   2.555   9.121  0.00  0.00    +0.000 C 
BRANCH  22  23
ATOM     23  C   UNL     1      44.911   3.605   8.010  0.00  0.00    +0.000 C 
BRANCH  23  24
ATOM     24  N   UNL     1      45.599   4.851   8.339  0.00  0.00    +0.000 NA
ATOM     25  H   UNL     1      45.463   5.047   9.332  0.00  0.00    +0.000 HD
ATOM     26  H   UNL     1      45.160   5.624   7.840  0.00  0.00    +0.000 HD
ENDBRANCH  23  24
ENDBRANCH  22  23
ENDBRANCH  21  22
ENDBRANCH  15  21
ENDBRANCH   1  19
TORSDOF 8
ENDMDL
MODEL 8
REMARK VINA RESULT:    -6.240      3.555      5.248
REMARK INTER + INTRA:          -9.631
REMARK INTER:                  -8.817
REMARK INTRA:                  -0.814
REMARK UNBOUND:                -0.837
REMARK  Name = 
REMARK  8 active torsions:
REMARK  status: ('A' for Active; 'I' for Inactive)
REMARK    1  A    between atoms: N_1  and  C_2
REMARK    2  A    between atoms: C_2  and  C_3
REMARK    3  A    between atoms: C_3  and  O_4
REMARK    4  A    between atoms: O_4  and  C_5
REMARK    5  A    between atoms: C_9  and  C_10
REMARK    6  A    between atoms: C_10  and  N_11
REMARK    7  A    between atoms: C_16  and  C_17
REMARK    8  A    between atoms: C_17  and  O_19
REMARK                            x       y       z     vdW  Elec       q    Type
REMARK                         _______ _______ _______ _____ _____    ______ ____
ROOT
ATOM      1  C   UNL     1      45.909   7.168  12.936  0.00  0.00    +0.000 C 
ENDROOT
BRANCH   1   2
ATOM      2  N   UNL     1      44.855   6.314  12.393  0.00  0.00    +0.000 N 
ATOM      3  N   UNL     1      43.891   5.865  13.232  0.00  0.00    +0.000 NA
ATOM      4  C   UNL     1      43.501   4.717  12.678  0.00  0.00    +0.000 A 
ATOM      5  C   UNL     1      44.192   4.428  11.483  0.00  0.00    +0.000 A 
ATOM      6  C   UNL     1      44.266   3.337  10.602  0.00  0.00    +0.000 A 
ATOM      7  C   UNL     1      45.090   3.450   9.469  0.00  0.00    +0.000 A 
ATOM      8  C   UNL     1      45.717   4.661   9.154  0.00  0.00    +0.000 A 
ATOM      9  C   UNL     1      45.671   5.743  10.040  0.00  0.00    +0.000 A 
ATOM     10  C   UNL     1      44.950   5.568  11.230  0.00  0.00    +0.000 A 
BRANCH   7  11
ATOM     11  C   UNL     1      45.333   2.284   8.593  0.00  0.00    +0.000 C 
ATOM     12  O   UNL     1      46.104   2.294   7.653  0.00  0.00    +0.000 OA
BRANCH  11  13
ATOM     13  O   UNL     1      44.674   1.181   9.012  0.00  0.00    +0.000 OA
ATOM     14  H   UNL     1      44.172   1.287   9.843  0.00  0.00    +0.000 HD
ENDBRANCH  11  13
ENDBRANCH   7  11
ENDBRANCH   1   2
BRANCH   1  19
ATOM     15  C   UNL     1      44.529  10.457  11.620  0.00  0.00    +0.000 A 
ATOM     16  C   UNL     1      45.697  11.191  11.433  0.00  0.00    +0.000 A 
ATOM     17  C   UNL     1      46.940  10.631  11.749  0.00  0.00    +0.000 A 
ATOM     18  C   UNL     1      47.015   9.331  12.248  0.00  0.00    +0.000 A 
ATOM     19  C   UNL     1      45.849   8.579  12.433  0.00  0.00    +0.000 A 
ATOM     20  C   UNL     1      44.616   9.157  12.119  0.00  0.00    +0.000 A 
BRANCH  15  21
ATOM     21  O   UNL     1      43.257  10.878  11.392  0.00  0.00    +0.000 OA
BRANCH  21  22
ATOM     22  C   UNL     1      42.609  10.426  10.204  0.00  0.00    +0.000 C 
BRANCH  22  23
ATOM     23  C   UNL     1      41.104  10.453  10.491  0.00  0.00    +0.000 C 
BRANCH  23  24
ATOM     24  N   UNL     1      40.683   9.400  11.412  0.00  0.00    +0.000 NA
ATOM     25  H   UNL     1      40.103   9.816  12.141  0.00  0.00    +0.000 HD
ATOM     26  H   UNL     1      41.499   9.019  11.889  0.00  0.00    +0.000 HD
ENDBRANCH  23  24
ENDBRANCH  22  23
ENDBRANCH  21  22
ENDBRANCH  15  21
ENDBRANCH   1  19
TORSDOF 8
ENDMDL
MODEL 9
REMARK VINA RESULT:    -6.226      3.473      5.588
REMARK INTER + INTRA:          -9.611
REMARK INTER:                  -9.134
REMARK INTRA:                  -0.477
REMARK UNBOUND:                -0.837
REMARK  Name = 
REMARK  8 active torsions:
REMARK  status: ('A' for Active; 'I' for Inactive)
REMARK    1  A    between atoms: N_1  and  C_2
REMARK    2  A    between atoms: C_2  and  C_3
REMARK    3  A    between atoms: C_3  and  O_4
REMARK    4  A    between atoms: O_4  and  C_5
REMARK    5  A    between atoms: C_9  and  C_10
REMARK    6  A    between atoms: C_10  and  N_11
REMARK    7  A    between atoms: C_16  and  C_17
REMARK    8  A    between atoms: C_17  and  O_19
REMARK                            x       y       z     vdW  Elec       q    Type
REMARK                         _______ _______ _______ _____ _____    ______ ____
ROOT
ATOM      1  C   UNL     1      48.910   6.957  12.453  0.00  0.00    +0.000 C 
ENDROOT
BRANCH   1   2
ATOM      2  N   UNL     1      47.744   6.329  13.069  0.00  0.00    +0.000 N 
ATOM      3  N   UNL     1      47.863   5.843  14.328  0.00  0.00    +0.000 NA
ATOM      4  C   UNL     1      46.965   4.858  14.371  0.00  0.00    +0.000 A 
ATOM      5  C   UNL     1      46.258   4.714  13.159  0.00  0.00    +0.000 A 
ATOM      6  C   UNL     1      45.334   3.794  12.636  0.00  0.00    +0.000 A 
ATOM      7  C   UNL     1      44.830   4.019  11.344  0.00  0.00    +0.000 A 
ATOM      8  C   UNL     1      45.135   5.193  10.647  0.00  0.00    +0.000 A 
ATOM      9  C   UNL     1      46.075   6.100  11.149  0.00  0.00    +0.000 A 
ATOM     10  C   UNL     1      46.667   5.795  12.383  0.00  0.00    +0.000 A 
BRANCH   7  11
ATOM     11  C   UNL     1      43.982   3.007  10.679  0.00  0.00    +0.000 C 
ATOM     12  O   UNL     1      44.279   2.456   9.636  0.00  0.00    +0.000 OA
BRANCH  11  13
ATOM     13  O   UNL     1      42.886   2.697  11.406  0.00  0.00    +0.000 OA
ATOM     14  H   UNL     1      42.644   3.349  12.092  0.00  0.00    +0.000 HD
ENDBRANCH  11  13
ENDBRANCH   7  11
ENDBRANCH   1   2
BRANCH   1  19
ATOM     15  C   UNL     1      47.164  10.280  11.846  0.00  0.00    +0.000 A 
ATOM     16  C   UNL     1      48.205  11.051  11.338  0.00  0.00    +0.000 A 
ATOM     17  C   UNL     1      49.486  10.504  11.204  0.00  0.00    +0.000 A 
ATOM     18  C   UNL     1      49.725   9.180  11.575  0.00  0.00    +0.000 A 
ATOM     19  C   UNL     1      48.684   8.392  12.079  0.00  0.00    +0.000 A 
ATOM     20  C   UNL     1      47.413   8.956  12.213  0.00  0.00    +0.000 A 
BRANCH  15  21
ATOM     21  O   UNL     1      45.884  10.681  12.065  0.00  0.00    +0.000 OA
BRANCH  21  22
ATOM     22  C   UNL     1      44.880   9.674  12.178  0.00  0.00    +0.000 C 
BRANCH  22  23
ATOM     23  C   UNL     1      43.965   9.832  10.959  0.00  0.00    +0.000 C 
BRANCH  23  24
ATOM     24  N   UNL     1      43.066   8.694  10.773  0.00  0.00    +0.000 NA
ATOM     25  H   UNL     1      43.627   7.864  10.579  0.00  0.00    +0.000 HD
ATOM     26  H   UNL     1      42.495   8.845   9.942  0.00  0.00    +0.000 HD
ENDBRANCH  23  24
ENDBRANCH  22  23
ENDBRANCH  21  22
ENDBRANCH  15  21
ENDBRANCH   1  19
TORSDOF 8
ENDMDL
