MODEL 1
REMARK VINA RESULT:    -7.306      0.000      0.000
REMARK INTER + INTRA:         -10.764
REMARK INTER:                  -9.868
REMARK INTRA:                  -0.895
REMARK UNBOUND:                -0.895
REMARK  Name = 
REMARK  7 active torsions:
REMARK  status: ('A' for Active; 'I' for Inactive)
REMARK    1  A    between atoms: C_1  and  C_2
REMARK    2  A    between atoms: C_2  and  N_3
REMARK    3  A    between atoms: C_2  and  C_12
REMARK    4  A    between atoms: C_4  and  C_6
REMARK    5  A    between atoms: C_15  and  C_16
REMARK    6  A    between atoms: C_16  and  N_17
REMARK    7  A    between atoms: C_18  and  C_20
REMARK                            x       y       z     vdW  Elec       q    Type
REMARK                         _______ _______ _______ _____ _____    ______ ____
ROOT
ATOM      1  C   UNL     1      47.527   5.735  14.596  0.00  0.00    +0.000 A 
ATOM      2  C   UNL     1      48.368   6.179  15.630  0.00  0.00    +0.000 A 
ATOM      3  C   UNL     1      48.642   5.360  16.733  0.00  0.00    +0.000 A 
ATOM      4  C   UNL     1      48.094   4.074  16.819  0.00  0.00    +0.000 A 
ATOM      5  C   UNL     1      47.240   3.637  15.802  0.00  0.00    +0.000 A 
ATOM      6  C   UNL     1      46.978   4.447  14.698  0.00  0.00    +0.000 A 
ENDROOT
BRANCH   1   8
ATOM      7  C   UNL     1      47.568   8.101  13.680  0.00  0.00    +0.000 C 
ATOM      8  C   UNL     1      47.263   6.624  13.385  0.00  0.00    +0.000 C 
BRANCH   8   9
ATOM      9  N   UNL     1      45.888   6.416  12.947  0.00  0.00    +0.000 N 
ATOM     10  C   UNL     1      45.541   6.163  11.640  0.00  0.00    +0.000 C 
ATOM     11  O   UNL     1      46.378   6.070  10.741  0.00  0.00    +0.000 OA
ATOM     12  H   UNL     1      45.229   6.163  13.670  0.00  0.00    +0.000 HD
BRANCH  10  13
ATOM     13  C   UNL     1      44.024   5.953  11.355  0.00  0.00    +0.000 C 
ATOM     14  C   UNL     1      43.666   4.944  10.257  0.00  0.00    +0.000 C 
ATOM     15  C   UNL     1      43.983   3.509  10.666  0.00  0.00    +0.000 C 
ATOM     16  C   UNL     1      43.322   3.180  11.998  0.00  0.00    +0.000 C 
ATOM     17  C   UNL     1      43.645   4.229  13.060  0.00  0.00    +0.000 C 
ATOM     18  N   UNL     1      43.322   5.588  12.614  0.00  0.00    +0.000 NA
ATOM     19  H   UNL     1      43.648   6.239  13.336  0.00  0.00    +0.000 HD
ENDBRANCH  10  13
ENDBRANCH   8   9
ENDBRANCH   1   8
BRANCH   4  20
ATOM     20  C   UNL     1      48.364   3.178  17.999  0.00  0.00    +0.000 C 
BRANCH  20  21
ATOM     21  N   UNL     1      49.774   2.942  18.150  0.00  0.00    +0.000 N 
ATOM     22  C   UNL     1      50.469   2.152  17.271  0.00  0.00    +0.000 C 
ATOM     23  O   UNL     1      49.938   1.651  16.283  0.00  0.00    +0.000 OA
ATOM     24  H   UNL     1      50.166   3.120  19.070  0.00  0.00    +0.000 HD
BRANCH  22  25
ATOM     25  C   UNL     1      51.903   1.993  17.541  0.00  0.00    +0.000 A 
ATOM     26  C   UNL     1      52.447   0.722  17.666  0.00  0.00    +0.000 A 
ATOM     27  S   UNL     1      54.140   0.727  17.879  0.00  0.00    +0.000 S 
ATOM     28  C   UNL     1      54.194   2.429  17.873  0.00  0.00    +0.000 A 
ATOM     29  N   UNL     1      55.371   3.095  18.018  0.00  0.00    +0.000 NA
ATOM     30  C   UNL     1      55.259   4.382  18.025  0.00  0.00    +0.000 A 
ATOM     31  N   UNL     1      54.077   5.064  17.902  0.00  0.00    +0.000 N 
ATOM     32  C   UNL     1      52.867   4.432  17.732  0.00  0.00    +0.000 A 
ATOM     33  O   UNL     1      51.829   5.075  17.597  0.00  0.00    +0.000 OA
ATOM     34  C   UNL     1      52.938   2.985  17.709  0.00  0.00    +0.000 A 
ATOM     35  H   UNL     1      54.056   6.072  17.915  0.00  0.00    +0.000 HD
ENDBRANCH  22  25
ENDBRANCH  20  21
ENDBRANCH   4  20
TORSDOF 6
ENDMDL
MODEL 2
REMARK VINA RESULT:    -6.996      3.429      8.959
REMARK INTER + INTRA:         -10.346
REMARK INTER:                  -9.545
REMARK INTRA:                  -0.801
REMARK UNBOUND:                -0.895
REMARK  Name = 
REMARK  7 active torsions:
REMARK  status: ('A' for Active; 'I' for Inactive)
REMARK    1  A    between atoms: C_1  and  C_2
REMARK    2  A    between atoms: C_2  and  N_3
REMARK    3  A    between atoms: C_2  and  C_12
REMARK    4  A    between atoms: C_4  and  C_6
REMARK    5  A    between atoms: C_15  and  C_16
REMARK    6  A    between atoms: C_16  and  N_17
REMARK    7  A    between atoms: C_18  and  C_20
REMARK                            x       y       z     vdW  Elec       q    Type
REMARK                         _______ _______ _______ _____ _____    ______ ____
ROOT
ATOM      1  C   UNL     1      48.967   7.818  16.339  0.00  0.00    +0.000 A 
ATOM      2  C   UNL     1      48.349   8.947  15.777  0.00  0.00    +0.000 A 
ATOM      3  C   UNL     1      47.878   8.926  14.458  0.00  0.00    +0.000 A 
ATOM      4  C   UNL     1      48.000   7.770  13.677  0.00  0.00    +0.000 A 
ATOM      5  C   UNL     1      48.634   6.652  14.225  0.00  0.00    +0.000 A 
ATOM      6  C   UNL     1      49.090   6.668  15.543  0.00  0.00    +0.000 A 
ENDROOT
BRANCH   1   8
ATOM      7  C   UNL     1      50.763   8.620  17.942  0.00  0.00    +0.000 C 
ATOM      8  C   UNL     1      49.445   7.844  17.787  0.00  0.00    +0.000 C 
BRANCH   8   9
ATOM      9  N   UNL     1      49.549   6.471  18.266  0.00  0.00    +0.000 N 
ATOM     10  C   UNL     1      48.490   5.777  18.804  0.00  0.00    +0.000 C 
ATOM     11  O   UNL     1      47.362   6.262  18.900  0.00  0.00    +0.000 OA
ATOM     12  H   UNL     1      50.336   5.941  17.918  0.00  0.00    +0.000 HD
BRANCH  10  13
ATOM     13  C   UNL     1      48.779   4.313  19.253  0.00  0.00    +0.000 C 
ATOM     14  C   UNL     1      48.060   3.203  18.476  0.00  0.00    +0.000 C 
ATOM     15  C   UNL     1      48.578   3.070  17.048  0.00  0.00    +0.000 C 
ATOM     16  C   UNL     1      50.092   2.896  17.047  0.00  0.00    +0.000 C 
ATOM     17  C   UNL     1      50.782   3.978  17.875  0.00  0.00    +0.000 C 
ATOM     18  N   UNL     1      50.244   4.062  19.238  0.00  0.00    +0.000 NA
ATOM     19  H   UNL     1      50.688   4.863  19.698  0.00  0.00    +0.000 HD
ENDBRANCH  10  13
ENDBRANCH   8   9
ENDBRANCH   1   8
BRANCH   4  20
ATOM     20  C   UNL     1      47.513   7.724  12.252  0.00  0.00    +0.000 C 
BRANCH  20  21
ATOM     21  N   UNL     1      46.853   6.476  11.978  0.00  0.00    +0.000 N 
ATOM     22  C   UNL     1      45.488   6.391  11.884  0.00  0.00    +0.000 C 
ATOM     23  O   UNL     1      44.764   7.378  11.973  0.00  0.00    +0.000 OA
ATOM     24  H   UNL     1      47.389   5.633  12.156  0.00  0.00    +0.000 HD
BRANCH  22  25
ATOM     25  C   UNL     1      44.944   5.057  11.601  0.00  0.00    +0.000 A 
ATOM     26  C   UNL     1      44.281   4.355  12.598  0.00  0.00    +0.000 A 
ATOM     27  S   UNL     1      43.630   2.871  12.064  0.00  0.00    +0.000 S 
ATOM     28  C   UNL     1      44.265   3.089  10.499  0.00  0.00    +0.000 A 
ATOM     29  N   UNL     1      44.070   2.159   9.526  0.00  0.00    +0.000 NA
ATOM     30  C   UNL     1      44.633   2.440   8.398  0.00  0.00    +0.000 A 
ATOM     31  N   UNL     1      45.375   3.566   8.155  0.00  0.00    +0.000 N 
ATOM     32  C   UNL     1      45.580   4.542   9.103  0.00  0.00    +0.000 A 
ATOM     33  O   UNL     1      46.229   5.552   8.842  0.00  0.00    +0.000 OA
ATOM     34  C   UNL     1      44.962   4.278  10.386  0.00  0.00    +0.000 A 
ATOM     35  H   UNL     1      45.791   3.728   7.250  0.00  0.00    +0.000 HD
ENDBRANCH  22  25
ENDBRANCH  20  21
ENDBRANCH   4  20
TORSDOF 6
ENDMDL
MODEL 3
REMARK VINA RESULT:    -6.991      3.242      9.175
REMARK INTER + INTRA:         -10.339
REMARK INTER:                  -9.287
REMARK INTRA:                  -1.052
REMARK UNBOUND:                -0.895
REMARK  Name = 
REMARK  7 active torsions:
REMARK  status: ('A' for Active; 'I' for Inactive)
REMARK    1  A    between atoms: C_1  and  C_2
REMARK    2  A    between atoms: C_2  and  N_3
REMARK    3  A    between atoms: C_2  and  C_12
REMARK    4  A    between atoms: C_4  and  C_6
REMARK    5  A    between atoms: C_15  and  C_16
REMARK    6  A    between atoms: C_16  and  N_17
REMARK    7  A    between atoms: C_18  and  C_20
REMARK                            x       y       z     vdW  Elec       q    Type
REMARK                         _______ _______ _______ _____ _____    ______ ____
ROOT
ATOM      1  C   UNL     1      51.430   3.751  17.739  0.00  0.00    +0.000 A 
ATOM      2  C   UNL     1      50.892   2.500  17.396  0.00  0.00    +0.000 A 
ATOM      3  C   UNL     1      49.528   2.360  17.105  0.00  0.00    +0.000 A 
ATOM      4  C   UNL     1      48.676   3.471  17.136  0.00  0.00    +0.000 A 
ATOM      5  C   UNL     1      49.204   4.714  17.497  0.00  0.00    +0.000 A 
ATOM      6  C   UNL     1      50.564   4.855  17.773  0.00  0.00    +0.000 A 
ENDROOT
BRANCH   1   8
ATOM      7  C   UNL     1      53.286   3.427  19.438  0.00  0.00    +0.000 C 
ATOM      8  C   UNL     1      52.922   3.895  18.020  0.00  0.00    +0.000 C 
BRANCH   8   9
ATOM      9  N   UNL     1      53.309   5.279  17.774  0.00  0.00    +0.000 N 
ATOM     10  C   UNL     1      54.322   5.638  16.915  0.00  0.00    +0.000 C 
ATOM     11  O   UNL     1      54.967   4.810  16.270  0.00  0.00    +0.000 OA
ATOM     12  H   UNL     1      52.621   5.978  18.015  0.00  0.00    +0.000 HD
BRANCH  10  13
ATOM     13  C   UNL     1      54.592   7.166  16.764  0.00  0.00    +0.000 C 
ATOM     14  C   UNL     1      55.503   7.589  15.606  0.00  0.00    +0.000 C 
ATOM     15  C   UNL     1      54.846   7.376  14.246  0.00  0.00    +0.000 C 
ATOM     16  C   UNL     1      53.487   8.064  14.201  0.00  0.00    +0.000 C 
ATOM     17  C   UNL     1      52.619   7.672  15.394  0.00  0.00    +0.000 C 
ATOM     18  N   UNL     1      53.300   7.897  16.674  0.00  0.00    +0.000 NA
ATOM     19  H   UNL     1      52.697   7.528  17.416  0.00  0.00    +0.000 HD
ENDBRANCH  10  13
ENDBRANCH   8   9
ENDBRANCH   1   8
BRANCH   4  20
ATOM     20  C   UNL     1      47.205   3.347  16.839  0.00  0.00    +0.000 C 
BRANCH  20  21
ATOM     21  N   UNL     1      46.789   4.343  15.890  0.00  0.00    +0.000 N 
ATOM     22  C   UNL     1      46.876   4.129  14.538  0.00  0.00    +0.000 C 
ATOM     23  O   UNL     1      47.259   3.061  14.070  0.00  0.00    +0.000 OA
ATOM     24  H   UNL     1      46.721   5.296  16.235  0.00  0.00    +0.000 HD
BRANCH  22  25
ATOM     25  C   UNL     1      46.418   5.229  13.680  0.00  0.00    +0.000 A 
ATOM     26  C   UNL     1      47.241   6.327  13.465  0.00  0.00    +0.000 A 
ATOM     27  S   UNL     1      46.589   7.457  12.366  0.00  0.00    +0.000 S 
ATOM     28  C   UNL     1      45.160   6.548  12.188  0.00  0.00    +0.000 A 
ATOM     29  N   UNL     1      44.158   6.967  11.370  0.00  0.00    +0.000 NA
ATOM     30  C   UNL     1      43.122   6.195  11.355  0.00  0.00    +0.000 A 
ATOM     31  N   UNL     1      42.997   5.043  12.087  0.00  0.00    +0.000 N 
ATOM     32  C   UNL     1      43.992   4.571  12.910  0.00  0.00    +0.000 A 
ATOM     33  O   UNL     1      43.857   3.519  13.530  0.00  0.00    +0.000 OA
ATOM     34  C   UNL     1      45.182   5.397  12.956  0.00  0.00    +0.000 A 
ATOM     35  H   UNL     1      42.159   4.483  12.032  0.00  0.00    +0.000 HD
ENDBRANCH  22  25
ENDBRANCH  20  21
ENDBRANCH   4  20
TORSDOF 6
ENDMDL
MODEL 4
REMARK VINA RESULT:    -6.936      3.117      9.911
REMARK INTER + INTRA:         -10.264
REMARK INTER:                  -9.361
REMARK INTRA:                  -0.903
REMARK UNBOUND:                -0.895
REMARK  Name = 
REMARK  7 active torsions:
REMARK  status: ('A' for Active; 'I' for Inactive)
REMARK    1  A    between atoms: C_1  and  C_2
REMARK    2  A    between atoms: C_2  and  N_3
REMARK    3  A    between atoms: C_2  and  C_12
REMARK    4  A    between atoms: C_4  and  C_6
REMARK    5  A    between atoms: C_15  and  C_16
REMARK    6  A    between atoms: C_16  and  N_17
REMARK    7  A    between atoms: C_18  and  C_20
REMARK                            x       y       z     vdW  Elec       q    Type
REMARK                         _______ _______ _______ _____ _____    ______ ____
ROOT
ATOM      1  C   UNL     1      51.320   3.414  18.010  0.00  0.00    +0.000 A 
ATOM      2  C   UNL     1      50.771   2.315  17.329  0.00  0.00    +0.000 A 
ATOM      3  C   UNL     1      49.412   2.288  16.989  0.00  0.00    +0.000 A 
ATOM      4  C   UNL     1      48.576   3.365  17.311  0.00  0.00    +0.000 A 
ATOM      5  C   UNL     1      49.115   4.450  18.008  0.00  0.00    +0.000 A 
ATOM      6  C   UNL     1      50.471   4.483  18.332  0.00  0.00    +0.000 A 
ENDROOT
BRANCH   1   8
ATOM      7  C   UNL     1      53.496   4.699  17.780  0.00  0.00    +0.000 C 
ATOM      8  C   UNL     1      52.809   3.446  18.343  0.00  0.00    +0.000 C 
BRANCH   8   9
ATOM      9  N   UNL     1      53.418   2.212  17.861  0.00  0.00    +0.000 N 
ATOM     10  C   UNL     1      54.227   1.415  18.637  0.00  0.00    +0.000 C 
ATOM     11  O   UNL     1      54.479   1.678  19.815  0.00  0.00    +0.000 OA
ATOM     12  H   UNL     1      52.991   1.800  17.043  0.00  0.00    +0.000 HD
BRANCH  10  13
ATOM     13  C   UNL     1      54.783   0.126  17.962  0.00  0.00    +0.000 C 
ATOM     14  C   UNL     1      55.775  -0.706  18.784  0.00  0.00    +0.000 C 
ATOM     15  C   UNL     1      55.108  -1.387  19.975  0.00  0.00    +0.000 C 
ATOM     16  C   UNL     1      53.905  -2.201  19.515  0.00  0.00    +0.000 C 
ATOM     17  C   UNL     1      52.962  -1.368  18.650  0.00  0.00    +0.000 C 
ATOM     18  N   UNL     1      53.654  -0.737  17.522  0.00  0.00    +0.000 NA
ATOM     19  H   UNL     1      52.982  -0.127  17.045  0.00  0.00    +0.000 HD
ENDBRANCH  10  13
ENDBRANCH   8   9
ENDBRANCH   1   8
BRANCH   4  20
ATOM     20  C   UNL     1      47.109   3.356  16.968  0.00  0.00    +0.000 C 
BRANCH  20  21
ATOM     21  N   UNL     1      46.808   4.360  15.985  0.00  0.00    +0.000 N 
ATOM     22  C   UNL     1      46.997   4.134  14.646  0.00  0.00    +0.000 C 
ATOM     23  O   UNL     1      47.379   3.050  14.214  0.00  0.00    +0.000 OA
ATOM     24  H   UNL     1      46.746   5.316  16.320  0.00  0.00    +0.000 HD
BRANCH  22  25
ATOM     25  C   UNL     1      46.651   5.244  13.749  0.00  0.00    +0.000 A 
ATOM     26  C   UNL     1      47.569   6.259  13.518  0.00  0.00    +0.000 A 
ATOM     27  S   UNL     1      47.036   7.408  12.376  0.00  0.00    +0.000 S 
ATOM     28  C   UNL     1      45.536   6.622  12.199  0.00  0.00    +0.000 A 
ATOM     29  N   UNL     1      44.586   7.103  11.351  0.00  0.00    +0.000 NA
ATOM     30  C   UNL     1      43.487   6.424  11.340  0.00  0.00    +0.000 A 
ATOM     31  N   UNL     1      43.251   5.309  12.101  0.00  0.00    +0.000 N 
ATOM     32  C   UNL     1      44.189   4.777  12.954  0.00  0.00    +0.000 A 
ATOM     33  O   UNL     1      43.952   3.759  13.601  0.00  0.00    +0.000 OA
ATOM     34  C   UNL     1      45.445   5.497  12.998  0.00  0.00    +0.000 A 
ATOM     35  H   UNL     1      42.368   4.822  12.047  0.00  0.00    +0.000 HD
ENDBRANCH  22  25
ENDBRANCH  20  21
ENDBRANCH   4  20
TORSDOF 6
ENDMDL
MODEL 5
REMARK VINA RESULT:    -6.806      1.377      2.154
REMARK INTER + INTRA:         -10.089
REMARK INTER:                  -9.290
REMARK INTRA:                  -0.798
REMARK UNBOUND:                -0.895
REMARK  Name = 
REMARK  7 active torsions:
REMARK  status: ('A' for Active; 'I' for Inactive)
REMARK    1  A    between atoms: C_1  and  C_2
REMARK    2  A    between atoms: C_2  and  N_3
REMARK    3  A    between atoms: C_2  and  C_12
REMARK    4  A    between atoms: C_4  and  C_6
REMARK    5  A    between atoms: C_15  and  C_16
REMARK    6  A    between atoms: C_16  and  N_17
REMARK    7  A    between atoms: C_18  and  C_20
REMARK                            x       y       z     vdW  Elec       q    Type
REMARK                         _______ _______ _______ _____ _____    ______ ____
ROOT
ATOM      1  C   UNL     1      47.262   6.156  13.972  0.00  0.00    +0.000 A 
ATOM      2  C   UNL     1      48.225   6.699  14.838  0.00  0.00    +0.000 A 
ATOM      3  C   UNL     1      48.647   5.995  15.974  0.00  0.00    +0.000 A 
ATOM      4  C   UNL     1      48.125   4.727  16.260  0.00  0.00    +0.000 A 
ATOM      5  C   UNL     1      47.150   4.194  15.412  0.00  0.00    +0.000 A 
ATOM      6  C   UNL     1      46.741   4.888  14.274  0.00  0.00    +0.000 A 
ENDROOT
BRANCH   1   8
ATOM      7  C   UNL     1      46.835   8.438  12.949  0.00  0.00    +0.000 C 
ATOM      8  C   UNL     1      46.837   6.918  12.721  0.00  0.00    +0.000 C 
BRANCH   8   9
ATOM      9  N   UNL     1      45.536   6.418  12.293  0.00  0.00    +0.000 N 
ATOM     10  C   UNL     1      45.291   5.937  11.027  0.00  0.00    +0.000 C 
ATOM     11  O   UNL     1      46.167   5.874  10.163  0.00  0.00    +0.000 OA
ATOM     12  H   UNL     1      44.901   6.152  13.032  0.00  0.00    +0.000 HD
BRANCH  10  13
ATOM     13  C   UNL     1      43.844   5.431  10.747  0.00  0.00    +0.000 C 
ATOM     14  C   UNL     1      43.718   4.098   9.999  0.00  0.00    +0.000 C 
ATOM     15  C   UNL     1      44.173   2.915  10.847  0.00  0.00    +0.000 C 
ATOM     16  C   UNL     1      43.440   2.907  12.183  0.00  0.00    +0.000 C 
ATOM     17  C   UNL     1      43.530   4.261  12.881  0.00  0.00    +0.000 C 
ATOM     18  N   UNL     1      43.081   5.361  12.021  0.00  0.00    +0.000 NA
ATOM     19  H   UNL     1      43.256   6.239  12.521  0.00  0.00    +0.000 HD
ENDBRANCH  10  13
ENDBRANCH   8   9
ENDBRANCH   1   8
BRANCH   4  20
ATOM     20  C   UNL     1      48.552   3.955  17.481  0.00  0.00    +0.000 C 
BRANCH  20  21
ATOM     21  N   UNL     1      49.952   3.633  17.418  0.00  0.00    +0.000 N 
ATOM     22  C   UNL     1      50.841   4.106  18.348  0.00  0.00    +0.000 C 
ATOM     23  O   UNL     1      50.482   4.779  19.310  0.00  0.00    +0.000 OA
ATOM     24  H   UNL     1      50.302   3.311  16.521  0.00  0.00    +0.000 HD
BRANCH  22  25
ATOM     25  C   UNL     1      52.241   3.703  18.167  0.00  0.00    +0.000 A 
ATOM     26  C   UNL     1      53.255   4.638  18.319  0.00  0.00    +0.000 A 
ATOM     27  S   UNL     1      54.819   3.972  18.170  0.00  0.00    +0.000 S 
ATOM     28  C   UNL     1      54.192   2.425  17.836  0.00  0.00    +0.000 A 
ATOM     29  N   UNL     1      55.016   1.368  17.603  0.00  0.00    +0.000 NA
ATOM     30  C   UNL     1      54.404   0.263  17.334  0.00  0.00    +0.000 A 
ATOM     31  N   UNL     1      53.042   0.119  17.276  0.00  0.00    +0.000 N 
ATOM     32  C   UNL     1      52.172   1.154  17.526  0.00  0.00    +0.000 A 
ATOM     33  O   UNL     1      50.956   0.982  17.492  0.00  0.00    +0.000 OA
ATOM     34  C   UNL     1      52.809   2.417  17.841  0.00  0.00    +0.000 A 
ATOM     35  H   UNL     1      52.624  -0.774  17.059  0.00  0.00    +0.000 HD
ENDBRANCH  22  25
ENDBRANCH  20  21
ENDBRANCH   4  20
TORSDOF 6
ENDMDL
MODEL 6
REMARK VINA RESULT:    -6.795      3.141      9.494
REMARK INTER + INTRA:         -10.074
REMARK INTER:                  -9.148
REMARK INTRA:                  -0.926
REMARK UNBOUND:                -0.895
REMARK  Name = 
REMARK  7 active torsions:
REMARK  status: ('A' for Active; 'I' for Inactive)
REMARK    1  A    between atoms: C_1  and  C_2
REMARK    2  A    between atoms: C_2  and  N_3
REMARK    3  A    between atoms: C_2  and  C_12
REMARK    4  A    between atoms: C_4  and  C_6
REMARK    5  A    between atoms: C_15  and  C_16
REMARK    6  A    between atoms: C_16  and  N_17
REMARK    7  A    between atoms: C_18  and  C_20
REMARK                            x       y       z     vdW  Elec       q    Type
REMARK                         _______ _______ _______ _____ _____    ______ ____
ROOT
ATOM      1  C   UNL     1      51.388   3.370  17.658  0.00  0.00    +0.000 A 
ATOM      2  C   UNL     1      50.756   2.200  17.208  0.00  0.00    +0.000 A 
ATOM      3  C   UNL     1      49.375   2.177  16.969  0.00  0.00    +0.000 A 
ATOM      4  C   UNL     1      48.600   3.328  17.160  0.00  0.00    +0.000 A 
ATOM      5  C   UNL     1      49.224   4.488  17.629  0.00  0.00    +0.000 A 
ATOM      6  C   UNL     1      50.600   4.515  17.853  0.00  0.00    +0.000 A 
ENDROOT
BRANCH   1   8
ATOM      7  C   UNL     1      53.430   2.018  18.322  0.00  0.00    +0.000 C 
ATOM      8  C   UNL     1      52.897   3.391  17.882  0.00  0.00    +0.000 C 
BRANCH   8   9
ATOM      9  N   UNL     1      53.209   4.442  18.842  0.00  0.00    +0.000 N 
ATOM     10  C   UNL     1      53.822   5.625  18.495  0.00  0.00    +0.000 C 
ATOM     11  O   UNL     1      54.132   5.891  17.333  0.00  0.00    +0.000 OA
ATOM     12  H   UNL     1      52.697   4.412  19.712  0.00  0.00    +0.000 HD
BRANCH  10  13
ATOM     13  C   UNL     1      54.067   6.642  19.650  0.00  0.00    +0.000 C 
ATOM     14  C   UNL     1      54.382   8.085  19.237  0.00  0.00    +0.000 C 
ATOM     15  C   UNL     1      53.175   8.784  18.620  0.00  0.00    +0.000 C 
ATOM     16  C   UNL     1      51.975   8.693  19.555  0.00  0.00    +0.000 C 
ATOM     17  C   UNL     1      51.717   7.256  19.999  0.00  0.00    +0.000 C 
ATOM     18  N   UNL     1      52.910   6.632  20.582  0.00  0.00    +0.000 NA
ATOM     19  H   UNL     1      52.687   5.649  20.770  0.00  0.00    +0.000 HD
ENDBRANCH  10  13
ENDBRANCH   8   9
ENDBRANCH   1   8
BRANCH   4  20
ATOM     20  C   UNL     1      47.113   3.327  16.922  0.00  0.00    +0.000 C 
BRANCH  20  21
ATOM     21  N   UNL     1      46.749   4.332  15.959  0.00  0.00    +0.000 N 
ATOM     22  C   UNL     1      46.910   4.128  14.613  0.00  0.00    +0.000 C 
ATOM     23  O   UNL     1      47.318   3.063  14.158  0.00  0.00    +0.000 OA
ATOM     24  H   UNL     1      46.662   5.281  16.308  0.00  0.00    +0.000 HD
BRANCH  22  25
ATOM     25  C   UNL     1      46.500   5.235  13.740  0.00  0.00    +0.000 A 
ATOM     26  C   UNL     1      47.354   6.311  13.540  0.00  0.00    +0.000 A 
ATOM     27  S   UNL     1      46.756   7.451  12.421  0.00  0.00    +0.000 S 
ATOM     28  C   UNL     1      45.310   6.577  12.213  0.00  0.00    +0.000 A 
ATOM     29  N   UNL     1      44.338   7.016  11.369  0.00  0.00    +0.000 NA
ATOM     30  C   UNL     1      43.284   6.270  11.333  0.00  0.00    +0.000 A 
ATOM     31  N   UNL     1      43.114   5.124  12.066  0.00  0.00    +0.000 N 
ATOM     32  C   UNL     1      44.078   4.632  12.914  0.00  0.00    +0.000 A 
ATOM     33  O   UNL     1      43.902   3.586  13.535  0.00  0.00    +0.000 OA
ATOM     34  C   UNL     1      45.285   5.429  12.985  0.00  0.00    +0.000 A 
ATOM     35  H   UNL     1      42.264   4.584  11.993  0.00  0.00    +0.000 HD
ENDBRANCH  22  25
ENDBRANCH  20  21
ENDBRANCH   4  20
TORSDOF 6
ENDMDL
MODEL 7
REMARK VINA RESULT:    -6.537      3.317      9.364
REMARK INTER + INTRA:          -9.725
REMARK INTER:                  -8.503
REMARK INTRA:                  -1.222
REMARK UNBOUND:                -0.895
REMARK  Name = 
REMARK  7 active torsions:
REMARK  status: ('A' for Active; 'I' for Inactive)
REMARK    1  A    between atoms: C_1  and  C_2
REMARK    2  A    between atoms: C_2  and  N_3
REMARK    3  A    between atoms: C_2  and  C_12
REMARK    4  A    between atoms: C_4  and  C_6
REMARK    5  A    between atoms: C_15  and  C_16
REMARK    6  A    between atoms: C_16  and  N_17
REMARK    7  A    between atoms: C_18  and  C_20
REMARK                            x       y       z     vdW  Elec       q    Type
REMARK                         _______ _______ _______ _____ _____    ______ ____
ROOT
ATOM      1  C   UNL     1      51.481   3.411  17.989  0.00  0.00    +0.000 A 
ATOM      2  C   UNL     1      50.908   2.284  17.378  0.00  0.00    +0.000 A 
ATOM      3  C   UNL     1      49.550   2.266  17.034  0.00  0.00    +0.000 A 
ATOM      4  C   UNL     1      48.739   3.382  17.280  0.00  0.00    +0.000 A 
ATOM      5  C   UNL     1      49.301   4.497  17.907  0.00  0.00    +0.000 A 
ATOM      6  C   UNL     1      50.656   4.519  18.236  0.00  0.00    +0.000 A 
ENDROOT
BRANCH   1   8
ATOM      7  C   UNL     1      53.677   4.655  17.730  0.00  0.00    +0.000 C 
ATOM      8  C   UNL     1      52.968   3.429  18.327  0.00  0.00    +0.000 C 
BRANCH   8   9
ATOM      9  N   UNL     1      53.560   2.173  17.884  0.00  0.00    +0.000 N 
ATOM     10  C   UNL     1      54.264   1.334  18.717  0.00  0.00    +0.000 C 
ATOM     11  O   UNL     1      54.427   1.576  19.914  0.00  0.00    +0.000 OA
ATOM     12  H   UNL     1      53.185   1.787  17.029  0.00  0.00    +0.000 HD
BRANCH  10  13
ATOM     13  C   UNL     1      54.816   0.025  18.075  0.00  0.00    +0.000 C 
ATOM     14  C   UNL     1      55.775  -0.807  18.934  0.00  0.00    +0.000 C 
ATOM     15  C   UNL     1      55.070  -1.459  20.119  0.00  0.00    +0.000 C 
ATOM     16  C   UNL     1      53.866  -2.262  19.644  0.00  0.00    +0.000 C 
ATOM     17  C   UNL     1      52.956  -1.430  18.743  0.00  0.00    +0.000 C 
ATOM     18  N   UNL     1      53.685  -0.827  17.622  0.00  0.00    +0.000 NA
ATOM     19  H   UNL     1      53.033  -0.215  17.120  0.00  0.00    +0.000 HD
ENDBRANCH  10  13
ENDBRANCH   8   9
ENDBRANCH   1   8
BRANCH   4  20
ATOM     20  C   UNL     1      47.273   3.384  16.931  0.00  0.00    +0.000 C 
BRANCH  20  21
ATOM     21  N   UNL     1      46.986   4.386  15.939  0.00  0.00    +0.000 N 
ATOM     22  C   UNL     1      47.032   4.102  14.599  0.00  0.00    +0.000 C 
ATOM     23  O   UNL     1      47.265   2.973  14.177  0.00  0.00    +0.000 OA
ATOM     24  H   UNL     1      47.049   5.353  16.242  0.00  0.00    +0.000 HD
BRANCH  22  25
ATOM     25  C   UNL     1      46.718   5.215  13.693  0.00  0.00    +0.000 A 
ATOM     26  C   UNL     1      45.632   5.122  12.834  0.00  0.00    +0.000 A 
ATOM     27  S   UNL     1      45.360   6.543  11.930  0.00  0.00    +0.000 S 
ATOM     28  C   UNL     1      46.720   7.307  12.611  0.00  0.00    +0.000 A 
ATOM     29  N   UNL     1      47.066   8.574  12.257  0.00  0.00    +0.000 NA
ATOM     30  C   UNL     1      48.136   9.016  12.830  0.00  0.00    +0.000 A 
ATOM     31  N   UNL     1      48.894   8.305  13.723  0.00  0.00    +0.000 N 
ATOM     32  C   UNL     1      48.571   7.030  14.125  0.00  0.00    +0.000 A 
ATOM     33  O   UNL     1      49.258   6.431  14.949  0.00  0.00    +0.000 OA
ATOM     34  C   UNL     1      47.372   6.489  13.517  0.00  0.00    +0.000 A 
ATOM     35  H   UNL     1      49.722   8.707  14.136  0.00  0.00    +0.000 HD
ENDBRANCH  22  25
ENDBRANCH  20  21
ENDBRANCH   4  20
TORSDOF 6
ENDMDL
MODEL 8
REMARK VINA RESULT:    -6.397      3.503      8.267
REMARK INTER + INTRA:          -9.537
REMARK INTER:                  -7.981
REMARK INTRA:                  -1.556
REMARK UNBOUND:                -0.895
REMARK  Name = 
REMARK  7 active torsions:
REMARK  status: ('A' for Active; 'I' for Inactive)
REMARK    1  A    between atoms: C_1  and  C_2
REMARK    2  A    between atoms: C_2  and  N_3
REMARK    3  A    between atoms: C_2  and  C_12
REMARK    4  A    between atoms: C_4  and  C_6
REMARK    5  A    between atoms: C_15  and  C_16
REMARK    6  A    between atoms: C_16  and  N_17
REMARK    7  A    between atoms: C_18  and  C_20
REMARK                            x       y       z     vdW  Elec       q    Type
REMARK                         _______ _______ _______ _____ _____    ______ ____
ROOT
ATOM      1  C   UNL     1      51.389   4.537  18.005  0.00  0.00    +0.000 A 
ATOM      2  C   UNL     1      51.094   3.193  17.724  0.00  0.00    +0.000 A 
ATOM      3  C   UNL     1      49.789   2.798  17.401  0.00  0.00    +0.000 A 
ATOM      4  C   UNL     1      48.754   3.740  17.338  0.00  0.00    +0.000 A 
ATOM      5  C   UNL     1      49.041   5.075  17.638  0.00  0.00    +0.000 A 
ATOM      6  C   UNL     1      50.343   5.470  17.946  0.00  0.00    +0.000 A 
ENDROOT
BRANCH   1   8
ATOM      7  C   UNL     1      53.165   4.748  19.805  0.00  0.00    +0.000 C 
ATOM      8  C   UNL     1      52.820   4.959  18.323  0.00  0.00    +0.000 C 
BRANCH   8   9
ATOM      9  N   UNL     1      53.000   6.343  17.901  0.00  0.00    +0.000 N 
ATOM     10  C   UNL     1      53.634   6.700  16.733  0.00  0.00    +0.000 C 
ATOM     11  O   UNL     1      54.078   5.867  15.941  0.00  0.00    +0.000 OA
ATOM     12  H   UNL     1      52.387   7.019  18.333  0.00  0.00    +0.000 HD
BRANCH  10  13
ATOM     13  C   UNL     1      53.725   8.227  16.434  0.00  0.00    +0.000 C 
ATOM     14  C   UNL     1      54.143   8.623  15.013  0.00  0.00    +0.000 C 
ATOM     15  C   UNL     1      53.069   8.291  13.982  0.00  0.00    +0.000 C 
ATOM     16  C   UNL     1      51.735   8.904  14.390  0.00  0.00    +0.000 C 
ATOM     17  C   UNL     1      51.368   8.544  15.828  0.00  0.00    +0.000 C 
ATOM     18  N   UNL     1      52.436   8.883  16.775  0.00  0.00    +0.000 NA
ATOM     19  H   UNL     1      52.157   8.531  17.697  0.00  0.00    +0.000 HD
ENDBRANCH  10  13
ENDBRANCH   8   9
ENDBRANCH   1   8
BRANCH   4  20
ATOM     20  C   UNL     1      47.341   3.340  17.005  0.00  0.00    +0.000 C 
BRANCH  20  21
ATOM     21  N   UNL     1      46.774   4.232  16.030  0.00  0.00    +0.000 N 
ATOM     22  C   UNL     1      46.927   4.018  14.685  0.00  0.00    +0.000 C 
ATOM     23  O   UNL     1      47.507   3.030  14.243  0.00  0.00    +0.000 OA
ATOM     24  H   UNL     1      46.528   5.161  16.357  0.00  0.00    +0.000 HD
BRANCH  22  25
ATOM     25  C   UNL     1      46.298   5.006  13.799  0.00  0.00    +0.000 A 
ATOM     26  C   UNL     1      45.023   4.776  13.302  0.00  0.00    +0.000 A 
ATOM     27  S   UNL     1      44.413   6.070  12.373  0.00  0.00    +0.000 S 
ATOM     28  C   UNL     1      45.857   6.955  12.553  0.00  0.00    +0.000 A 
ATOM     29  N   UNL     1      46.003   8.184  11.987  0.00  0.00    +0.000 NA
ATOM     30  C   UNL     1      47.159   8.726  12.180  0.00  0.00    +0.000 A 
ATOM     31  N   UNL     1      48.184   8.151  12.886  0.00  0.00    +0.000 N 
ATOM     32  C   UNL     1      48.072   6.922  13.493  0.00  0.00    +0.000 A 
ATOM     33  O   UNL     1      49.002   6.448  14.141  0.00  0.00    +0.000 OA
ATOM     34  C   UNL     1      46.789   6.273  13.313  0.00  0.00    +0.000 A 
ATOM     35  H   UNL     1      49.066   8.627  13.001  0.00  0.00    +0.000 HD
ENDBRANCH  22  25
ENDBRANCH  20  21
ENDBRANCH   4  20
TORSDOF 6
ENDMDL
MODEL 9
REMARK VINA RESULT:    -6.161      2.413      4.378
REMARK INTER + INTRA:          -9.218
REMARK INTER:                  -8.108
REMARK INTRA:                  -1.110
REMARK UNBOUND:                -0.895
REMARK  Name = 
REMARK  7 active torsions:
REMARK  status: ('A' for Active; 'I' for Inactive)
REMARK    1  A    between atoms: C_1  and  C_2
REMARK    2  A    between atoms: C_2  and  N_3
REMARK    3  A    between atoms: C_2  and  C_12
REMARK    4  A    between atoms: C_4  and  C_6
REMARK    5  A    between atoms: C_15  and  C_16
REMARK    6  A    between atoms: C_16  and  N_17
REMARK    7  A    between atoms: C_18  and  C_20
REMARK                            x       y       z     vdW  Elec       q    Type
REMARK                         _______ _______ _______ _____ _____    ______ ____
ROOT
ATOM      1  C   UNL     1      47.359   6.107  13.669  0.00  0.00    +0.000 A 
ATOM      2  C   UNL     1      48.154   6.466  14.770  0.00  0.00    +0.000 A 
ATOM      3  C   UNL     1      48.247   5.630  15.890  0.00  0.00    +0.000 A 
ATOM      4  C   UNL     1      47.560   4.410  15.928  0.00  0.00    +0.000 A 
ATOM      5  C   UNL     1      46.751   4.060  14.843  0.00  0.00    +0.000 A 
ATOM      6  C   UNL     1      46.670   4.886  13.722  0.00  0.00    +0.000 A 
ENDROOT
BRANCH   1   8
ATOM      7  C   UNL     1      46.489   6.369  11.300  0.00  0.00    +0.000 C 
ATOM      8  C   UNL     1      47.293   7.010  12.442  0.00  0.00    +0.000 C 
BRANCH   8   9
ATOM      9  N   UNL     1      48.654   7.349  12.042  0.00  0.00    +0.000 N 
ATOM     10  C   UNL     1      49.057   8.631  11.745  0.00  0.00    +0.000 C 
ATOM     11  O   UNL     1      48.295   9.596  11.818  0.00  0.00    +0.000 OA
ATOM     12  H   UNL     1      49.365   6.672  12.279  0.00  0.00    +0.000 HD
BRANCH  10  13
ATOM     13  C   UNL     1      50.553   8.811  11.348  0.00  0.00    +0.000 C 
ATOM     14  C   UNL     1      51.095  10.246  11.353  0.00  0.00    +0.000 C 
ATOM     15  C   UNL     1      51.202  10.817  12.763  0.00  0.00    +0.000 C 
ATOM     16  C   UNL     1      52.013   9.884  13.653  0.00  0.00    +0.000 C 
ATOM     17  C   UNL     1      51.491   8.451  13.586  0.00  0.00    +0.000 C 
ATOM     18  N   UNL     1      51.408   7.953  12.209  0.00  0.00    +0.000 NA
ATOM     19  H   UNL     1      50.967   7.028  12.238  0.00  0.00    +0.000 HD
ENDBRANCH  10  13
ENDBRANCH   8   9
ENDBRANCH   1   8
BRANCH   4  20
ATOM     20  C   UNL     1      47.634   3.499  17.125  0.00  0.00    +0.000 C 
BRANCH  20  21
ATOM     21  N   UNL     1      48.999   3.285  17.521  0.00  0.00    +0.000 N 
ATOM     22  C   UNL     1      49.786   2.346  16.906  0.00  0.00    +0.000 C 
ATOM     23  O   UNL     1      49.387   1.681  15.954  0.00  0.00    +0.000 OA
ATOM     24  H   UNL     1      49.261   3.621  18.442  0.00  0.00    +0.000 HD
BRANCH  22  25
ATOM     25  C   UNL     1      51.161   2.228  17.407  0.00  0.00    +0.000 A 
ATOM     26  C   UNL     1      51.730   0.973  17.577  0.00  0.00    +0.000 A 
ATOM     27  S   UNL     1      53.362   1.030  18.071  0.00  0.00    +0.000 S 
ATOM     28  C   UNL     1      53.344   2.731  18.133  0.00  0.00    +0.000 A 
ATOM     29  N   UNL     1      54.452   3.433  18.497  0.00  0.00    +0.000 NA
ATOM     30  C   UNL     1      54.286   4.714  18.530  0.00  0.00    +0.000 A 
ATOM     31  N   UNL     1      53.112   5.357  18.234  0.00  0.00    +0.000 N 
ATOM     32  C   UNL     1      51.976   4.689  17.841  0.00  0.00    +0.000 A 
ATOM     33  O   UNL     1      50.948   5.300  17.556  0.00  0.00    +0.000 OA
ATOM     34  C   UNL     1      52.111   3.248  17.780  0.00  0.00    +0.000 A 
ATOM     35  H   UNL     1      53.047   6.363  18.279  0.00  0.00    +0.000 HD
ENDBRANCH  22  25
ENDBRANCH  20  21
ENDBRANCH   4  20
TORSDOF 6
ENDMDL
