MODEL 1
REMARK VINA RESULT:    -7.518      0.000      0.000
REMARK INTER + INTRA:         -10.675
REMARK INTER:                 -10.375
REMARK INTRA:                  -0.300
REMARK UNBOUND:                -0.300
REMARK  Name = 
REMARK  7 active torsions:
REMARK  status: ('A' for Active; 'I' for Inactive)
REMARK    1  A    between atoms: N_1  and  C_2
REMARK    2  A    between atoms: C_2  and  C_3
REMARK    3  A    between atoms: C_2  and  C_17
REMARK    4  A    between atoms: C_3  and  N_4
REMARK    5  A    between atoms: N_7  and  C_8
REMARK    6  A    between atoms: C_8  and  C_9
REMARK    7  A    between atoms: C_17  and  C_19
REMARK                            x       y       z     vdW  Elec       q    Type
REMARK                         _______ _______ _______ _____ _____    ______ ____
ROOT
ATOM      1  C   UNL     1      48.668   5.875  16.570  0.00  0.00    +0.000 C 
ENDROOT
BRANCH   1   2
ATOM      2  N   UNL     1      48.335   7.151  17.252  0.00  0.00    +0.000 NA
ATOM      3  H   UNL     1      49.176   7.727  17.275  0.00  0.00    +0.000 HD
ATOM      4  H   UNL     1      48.139   6.937  18.233  0.00  0.00    +0.000 HD
ENDBRANCH   1   2
BRANCH   1   5
ATOM      5  C   UNL     1      49.038   4.795  17.619  0.00  0.00    +0.000 C 
ATOM      6  O   UNL     1      48.138   4.189  18.210  0.00  0.00    +0.000 OA
BRANCH   5   7
ATOM      7  C   UNL     1      50.440   4.389  17.818  0.00  0.00    +0.000 A 
ATOM      8  C   UNL     1      51.368   5.306  18.297  0.00  0.00    +0.000 A 
ATOM      9  S   UNL     1      52.896   4.620  18.626  0.00  0.00    +0.000 S 
ATOM     10  C   UNL     1      52.380   3.086  18.096  0.00  0.00    +0.000 A 
ATOM     11  N   UNL     1      53.203   2.006  18.161  0.00  0.00    +0.000 NA
ATOM     12  C   UNL     1      52.680   0.910  17.720  0.00  0.00    +0.000 A 
ATOM     13  N   UNL     1      51.423   0.805  17.185  0.00  0.00    +0.000 N 
ATOM     14  C   UNL     1      50.630   1.902  16.955  0.00  0.00    +0.000 A 
ATOM     15  O   UNL     1      49.663   1.832  16.208  0.00  0.00    +0.000 OA
ATOM     16  C   UNL     1      51.090   3.120  17.596  0.00  0.00    +0.000 A 
ATOM     17  H   UNL     1      51.118  -0.059  16.758  0.00  0.00    +0.000 HD
ENDBRANCH   5   7
ENDBRANCH   1   5
BRANCH   1  18
ATOM     18  C   UNL     1      47.520   5.330  15.681  0.00  0.00    +0.000 C 
BRANCH  18  19
ATOM     19  N   UNL     1      47.847   5.044  14.262  0.00  0.00    +0.000 NA
ATOM     20  C   UNL     1      47.689   6.257  13.433  0.00  0.00    +0.000 C 
ATOM     21  C   UNL     1      46.211   6.672  13.237  0.00  0.00    +0.000 C 
ATOM     22  N   UNL     1      45.369   5.641  12.589  0.00  0.00    +0.000 NA
ATOM     23  C   UNL     1      45.557   4.362  13.329  0.00  0.00    +0.000 C 
ATOM     24  C   UNL     1      47.029   3.970  13.661  0.00  0.00    +0.000 C 
BRANCH  22  25
ATOM     25  C   UNL     1      45.657   5.459  11.148  0.00  0.00    +0.000 C 
BRANCH  25  26
ATOM     26  C   UNL     1      44.476   4.968  10.264  0.00  0.00    +0.000 C 
ATOM     27  C   UNL     1      43.282   4.401  11.057  0.00  0.00    +0.000 C 
ATOM     28  C   UNL     1      43.398   2.913  11.396  0.00  0.00    +0.000 C 
ATOM     29  N   UNL     1      43.775   2.098  10.242  0.00  0.00    +0.000 NA
ATOM     30  C   UNL     1      45.060   2.541   9.708  0.00  0.00    +0.000 C 
ATOM     31  C   UNL     1      44.960   3.972   9.197  0.00  0.00    +0.000 C 
ATOM     32  H   UNL     1      43.062   2.193   9.521  0.00  0.00    +0.000 HD
ENDBRANCH  25  26
ENDBRANCH  22  25
ENDBRANCH  18  19
ENDBRANCH   1  18
TORSDOF 7
ENDMDL
MODEL 2
REMARK VINA RESULT:    -7.041      2.011      2.507
REMARK INTER + INTRA:         -10.017
REMARK INTER:                  -8.980
REMARK INTRA:                  -1.037
REMARK UNBOUND:                -0.300
REMARK  Name = 
REMARK  7 active torsions:
REMARK  status: ('A' for Active; 'I' for Inactive)
REMARK    1  A    between atoms: N_1  and  C_2
REMARK    2  A    between atoms: C_2  and  C_3
REMARK    3  A    between atoms: C_2  and  C_17
REMARK    4  A    between atoms: C_3  and  N_4
REMARK    5  A    between atoms: N_7  and  C_8
REMARK    6  A    between atoms: C_8  and  C_9
REMARK    7  A    between atoms: C_17  and  C_19
REMARK                            x       y       z     vdW  Elec       q    Type
REMARK                         _______ _______ _______ _____ _____    ______ ____
ROOT
ATOM      1  C   UNL     1      49.546   7.243  15.450  0.00  0.00    +0.000 C 
ENDROOT
BRANCH   1   2
ATOM      2  N   UNL     1      50.590   8.260  15.734  0.00  0.00    +0.000 NA
ATOM      3  H   UNL     1      51.387   7.785  16.159  0.00  0.00    +0.000 HD
ATOM      4  H   UNL     1      50.233   8.876  16.469  0.00  0.00    +0.000 HD
ENDBRANCH   1   2
BRANCH   1   5
ATOM      5  C   UNL     1      48.982   6.678  16.779  0.00  0.00    +0.000 C 
ATOM      6  O   UNL     1      48.513   7.454  17.619  0.00  0.00    +0.000 OA
BRANCH   5   7
ATOM      7  C   UNL     1      48.875   5.224  16.993  0.00  0.00    +0.000 A 
ATOM      8  C   UNL     1      47.635   4.601  16.925  0.00  0.00    +0.000 A 
ATOM      9  S   UNL     1      47.722   2.899  17.028  0.00  0.00    +0.000 S 
ATOM     10  C   UNL     1      49.414   2.944  17.212  0.00  0.00    +0.000 A 
ATOM     11  N   UNL     1      50.142   1.800  17.304  0.00  0.00    +0.000 NA
ATOM     12  C   UNL     1      51.412   1.985  17.446  0.00  0.00    +0.000 A 
ATOM     13  N   UNL     1      52.015   3.212  17.544  0.00  0.00    +0.000 N 
ATOM     14  C   UNL     1      51.295   4.379  17.620  0.00  0.00    +0.000 A 
ATOM     15  O   UNL     1      51.817   5.413  18.014  0.00  0.00    +0.000 OA
ATOM     16  C   UNL     1      49.892   4.241  17.281  0.00  0.00    +0.000 A 
ATOM     17  H   UNL     1      52.998   3.283  17.766  0.00  0.00    +0.000 HD
ENDBRANCH   5   7
ENDBRANCH   1   5
BRANCH   1  18
ATOM     18  C   UNL     1      48.367   7.788  14.603  0.00  0.00    +0.000 C 
BRANCH  18  19
ATOM     19  N   UNL     1      48.256   7.292  13.209  0.00  0.00    +0.000 NA
ATOM     20  C   UNL     1      47.266   8.084  12.449  0.00  0.00    +0.000 C 
ATOM     21  C   UNL     1      45.806   7.819  12.891  0.00  0.00    +0.000 C 
ATOM     22  N   UNL     1      45.373   6.411  12.754  0.00  0.00    +0.000 NA
ATOM     23  C   UNL     1      46.386   5.550  13.425  0.00  0.00    +0.000 C 
ATOM     24  C   UNL     1      47.878   5.867  13.105  0.00  0.00    +0.000 C 
BRANCH  22  25
ATOM     25  C   UNL     1      45.174   5.985  11.349  0.00  0.00    +0.000 C 
BRANCH  25  26
ATOM     26  C   UNL     1      43.801   5.340  11.011  0.00  0.00    +0.000 C 
ATOM     27  C   UNL     1      43.078   4.712  12.219  0.00  0.00    +0.000 C 
ATOM     28  C   UNL     1      43.474   3.263  12.509  0.00  0.00    +0.000 C 
ATOM     29  N   UNL     1      43.454   2.422  11.314  0.00  0.00    +0.000 NA
ATOM     30  C   UNL     1      44.375   2.948  10.309  0.00  0.00    +0.000 C 
ATOM     31  C   UNL     1      43.932   4.333   9.855  0.00  0.00    +0.000 C 
ATOM     32  H   UNL     1      42.511   2.410  10.931  0.00  0.00    +0.000 HD
ENDBRANCH  25  26
ENDBRANCH  22  25
ENDBRANCH  18  19
ENDBRANCH   1  18
TORSDOF 7
ENDMDL
MODEL 3
REMARK VINA RESULT:    -6.848      2.472      3.137
REMARK INTER + INTRA:          -9.751
REMARK INTER:                  -9.012
REMARK INTRA:                  -0.739
REMARK UNBOUND:                -0.300
REMARK  Name = 
REMARK  7 active torsions:
REMARK  status: ('A' for Active; 'I' for Inactive)
REMARK    1  A    between atoms: N_1  and  C_2
REMARK    2  A    between atoms: C_2  and  C_3
REMARK    3  A    between atoms: C_2  and  C_17
REMARK    4  A    between atoms: C_3  and  N_4
REMARK    5  A    between atoms: N_7  and  C_8
REMARK    6  A    between atoms: C_8  and  C_9
REMARK    7  A    between atoms: C_17  and  C_19
REMARK                            x       y       z     vdW  Elec       q    Type
REMARK                         _______ _______ _______ _____ _____    ______ ____
ROOT
ATOM      1  C   UNL     1      49.296   7.361  14.253  0.00  0.00    +0.000 C 
ENDROOT
BRANCH   1   2
ATOM      2  N   UNL     1      50.707   7.637  13.882  0.00  0.00    +0.000 NA
ATOM      3  H   UNL     1      50.952   7.035  13.096  0.00  0.00    +0.000 HD
ATOM      4  H   UNL     1      51.299   7.314  14.651  0.00  0.00    +0.000 HD
ENDBRANCH   1   2
BRANCH   1   5
ATOM      5  C   UNL     1      49.157   7.299  15.795  0.00  0.00    +0.000 C 
ATOM      6  O   UNL     1      48.656   8.254  16.399  0.00  0.00    +0.000 OA
BRANCH   5   7
ATOM      7  C   UNL     1      49.487   6.066  16.532  0.00  0.00    +0.000 A 
ATOM      8  C   UNL     1      50.734   5.926  17.129  0.00  0.00    +0.000 A 
ATOM      9  S   UNL     1      50.878   4.514  18.078  0.00  0.00    +0.000 S 
ATOM     10  C   UNL     1      49.296   4.023  17.683  0.00  0.00    +0.000 A 
ATOM     11  N   UNL     1      48.757   2.894  18.215  0.00  0.00    +0.000 NA
ATOM     12  C   UNL     1      47.552   2.642  17.823  0.00  0.00    +0.000 A 
ATOM     13  N   UNL     1      46.853   3.396  16.917  0.00  0.00    +0.000 N 
ATOM     14  C   UNL     1      47.425   4.445  16.239  0.00  0.00    +0.000 A 
ATOM     15  O   UNL     1      46.902   4.900  15.231  0.00  0.00    +0.000 OA
ATOM     16  C   UNL     1      48.702   4.879  16.773  0.00  0.00    +0.000 A 
ATOM     17  H   UNL     1      45.957   3.082  16.571  0.00  0.00    +0.000 HD
ENDBRANCH   5   7
ENDBRANCH   1   5
BRANCH   1  18
ATOM     18  C   UNL     1      48.296   8.412  13.705  0.00  0.00    +0.000 C 
BRANCH  18  19
ATOM     19  N   UNL     1      47.804   8.213  12.320  0.00  0.00    +0.000 NA
ATOM     20  C   UNL     1      46.486   8.856  12.136  0.00  0.00    +0.000 C 
ATOM     21  C   UNL     1      45.342   8.126  12.880  0.00  0.00    +0.000 C 
ATOM     22  N   UNL     1      45.152   6.716  12.473  0.00  0.00    +0.000 NA
ATOM     23  C   UNL     1      46.473   6.033  12.551  0.00  0.00    +0.000 C 
ATOM     24  C   UNL     1      47.679   6.795  11.923  0.00  0.00    +0.000 C 
BRANCH  22  25
ATOM     25  C   UNL     1      44.562   6.562  11.123  0.00  0.00    +0.000 C 
BRANCH  25  26
ATOM     26  C   UNL     1      43.403   5.535  10.990  0.00  0.00    +0.000 C 
ATOM     27  C   UNL     1      42.801   5.075  12.333  0.00  0.00    +0.000 C 
ATOM     28  C   UNL     1      43.524   3.891  12.977  0.00  0.00    +0.000 C 
ATOM     29  N   UNL     1      43.763   2.796  12.038  0.00  0.00    +0.000 NA
ATOM     30  C   UNL     1      44.572   3.261  10.913  0.00  0.00    +0.000 C 
ATOM     31  C   UNL     1      43.826   4.332  10.129  0.00  0.00    +0.000 C 
ATOM     32  H   UNL     1      42.869   2.456  11.690  0.00  0.00    +0.000 HD
ENDBRANCH  25  26
ENDBRANCH  22  25
ENDBRANCH  18  19
ENDBRANCH   1  18
TORSDOF 7
ENDMDL
MODEL 4
REMARK VINA RESULT:    -6.613      3.206      3.961
REMARK INTER + INTRA:          -9.426
REMARK INTER:                  -8.466
REMARK INTRA:                  -0.960
REMARK UNBOUND:                -0.300
REMARK  Name = 
REMARK  7 active torsions:
REMARK  status: ('A' for Active; 'I' for Inactive)
REMARK    1  A    between atoms: N_1  and  C_2
REMARK    2  A    between atoms: C_2  and  C_3
REMARK    3  A    between atoms: C_2  and  C_17
REMARK    4  A    between atoms: C_3  and  N_4
REMARK    5  A    between atoms: N_7  and  C_8
REMARK    6  A    between atoms: C_8  and  C_9
REMARK    7  A    between atoms: C_17  and  C_19
REMARK                            x       y       z     vdW  Elec       q    Type
REMARK                         _______ _______ _______ _____ _____    ______ ____
ROOT
ATOM      1  C   UNL     1      49.119   9.315  14.705  0.00  0.00    +0.000 C 
ENDROOT
BRANCH   1   2
ATOM      2  N   UNL     1      48.644  10.633  15.196  0.00  0.00    +0.000 NA
ATOM      3  H   UNL     1      49.418  11.294  15.128  0.00  0.00    +0.000 HD
ATOM      4  H   UNL     1      48.466  10.544  16.200  0.00  0.00    +0.000 HD
ENDBRANCH   1   2
BRANCH   1   5
ATOM      5  C   UNL     1      49.992   8.630  15.787  0.00  0.00    +0.000 C 
ATOM      6  O   UNL     1      51.192   8.438  15.568  0.00  0.00    +0.000 OA
BRANCH   5   7
ATOM      7  C   UNL     1      49.439   8.330  17.120  0.00  0.00    +0.000 A 
ATOM      8  C   UNL     1      49.594   9.241  18.158  0.00  0.00    +0.000 A 
ATOM      9  S   UNL     1      48.748   8.808  19.576  0.00  0.00    +0.000 S 
ATOM     10  C   UNL     1      48.186   7.367  18.864  0.00  0.00    +0.000 A 
ATOM     11  N   UNL     1      47.349   6.532  19.534  0.00  0.00    +0.000 NA
ATOM     12  C   UNL     1      47.009   5.475  18.873  0.00  0.00    +0.000 A 
ATOM     13  N   UNL     1      47.462   5.159  17.619  0.00  0.00    +0.000 N 
ATOM     14  C   UNL     1      48.432   5.895  16.984  0.00  0.00    +0.000 A 
ATOM     15  O   UNL     1      49.039   5.436  16.025  0.00  0.00    +0.000 OA
ATOM     16  C   UNL     1      48.708   7.180  17.596  0.00  0.00    +0.000 A 
ATOM     17  H   UNL     1      47.243   4.264  17.206  0.00  0.00    +0.000 HD
ENDBRANCH   5   7
ENDBRANCH   1   5
BRANCH   1  18
ATOM     18  C   UNL     1      47.969   8.351  14.311  0.00  0.00    +0.000 C 
BRANCH  18  19
ATOM     19  N   UNL     1      47.990   7.809  12.931  0.00  0.00    +0.000 NA
ATOM     20  C   UNL     1      46.860   8.342  12.142  0.00  0.00    +0.000 C 
ATOM     21  C   UNL     1      45.489   7.772  12.579  0.00  0.00    +0.000 C 
ATOM     22  N   UNL     1      45.380   6.300  12.476  0.00  0.00    +0.000 NA
ATOM     23  C   UNL     1      46.549   5.702  13.179  0.00  0.00    +0.000 C 
ATOM     24  C   UNL     1      47.938   6.334  12.862  0.00  0.00    +0.000 C 
BRANCH  22  25
ATOM     25  C   UNL     1      45.299   5.807  11.082  0.00  0.00    +0.000 C 
BRANCH  25  26
ATOM     26  C   UNL     1      43.952   5.158  10.655  0.00  0.00    +0.000 C 
ATOM     27  C   UNL     1      43.113   4.606  11.825  0.00  0.00    +0.000 C 
ATOM     28  C   UNL     1      43.459   3.172  12.229  0.00  0.00    +0.000 C 
ATOM     29  N   UNL     1      43.535   2.265  11.084  0.00  0.00    +0.000 NA
ATOM     30  C   UNL     1      44.551   2.725  10.140  0.00  0.00    +0.000 C 
ATOM     31  C   UNL     1      44.172   4.087   9.573  0.00  0.00    +0.000 C 
ATOM     32  H   UNL     1      42.630   2.242  10.618  0.00  0.00    +0.000 HD
ENDBRANCH  25  26
ENDBRANCH  22  25
ENDBRANCH  18  19
ENDBRANCH   1  18
TORSDOF 7
ENDMDL
MODEL 5
REMARK VINA RESULT:    -6.522      3.418      8.720
REMARK INTER + INTRA:          -9.301
REMARK INTER:                  -8.404
REMARK INTRA:                  -0.897
REMARK UNBOUND:                -0.300
REMARK  Name = 
REMARK  7 active torsions:
REMARK  status: ('A' for Active; 'I' for Inactive)
REMARK    1  A    between atoms: N_1  and  C_2
REMARK    2  A    between atoms: C_2  and  C_3
REMARK    3  A    between atoms: C_2  and  C_17
REMARK    4  A    between atoms: C_3  and  N_4
REMARK    5  A    between atoms: N_7  and  C_8
REMARK    6  A    between atoms: C_8  and  C_9
REMARK    7  A    between atoms: C_17  and  C_19
REMARK                            x       y       z     vdW  Elec       q    Type
REMARK                         _______ _______ _______ _____ _____    ______ ____
ROOT
ATOM      1  C   UNL     1      46.404   7.334  12.221  0.00  0.00    +0.000 C 
ENDROOT
BRANCH   1   2
ATOM      2  N   UNL     1      47.423   7.007  11.192  0.00  0.00    +0.000 NA
ATOM      3  H   UNL     1      46.943   6.885  10.299  0.00  0.00    +0.000 HD
ATOM      4  H   UNL     1      47.802   6.083  11.412  0.00  0.00    +0.000 HD
ENDBRANCH   1   2
BRANCH   1   5
ATOM      5  C   UNL     1      45.005   6.862  11.750  0.00  0.00    +0.000 C 
ATOM      6  O   UNL     1      44.174   7.698  11.382  0.00  0.00    +0.000 OA
BRANCH   5   7
ATOM      7  C   UNL     1      44.704   5.426  11.607  0.00  0.00    +0.000 A 
ATOM      8  C   UNL     1      44.209   4.708  12.689  0.00  0.00    +0.000 A 
ATOM      9  S   UNL     1      43.760   3.109  12.297  0.00  0.00    +0.000 S 
ATOM     10  C   UNL     1      44.255   3.310  10.680  0.00  0.00    +0.000 A 
ATOM     11  N   UNL     1      44.095   2.317   9.767  0.00  0.00    +0.000 NA
ATOM     12  C   UNL     1      44.520   2.607   8.582  0.00  0.00    +0.000 A 
ATOM     13  N   UNL     1      45.125   3.787   8.238  0.00  0.00    +0.000 N 
ATOM     14  C   UNL     1      45.449   4.744   9.169  0.00  0.00    +0.000 A 
ATOM     15  O   UNL     1      46.249   5.631   8.905  0.00  0.00    +0.000 OA
ATOM     16  C   UNL     1      44.833   4.549  10.468  0.00  0.00    +0.000 A 
ATOM     17  H   UNL     1      45.533   3.906   7.321  0.00  0.00    +0.000 HD
ENDBRANCH   5   7
ENDBRANCH   1   5
BRANCH   1  18
ATOM     18  C   UNL     1      46.700   6.702  13.607  0.00  0.00    +0.000 C 
BRANCH  18  19
ATOM     19  N   UNL     1      48.013   6.031  13.772  0.00  0.00    +0.000 NA
ATOM     20  C   UNL     1      47.881   4.820  14.609  0.00  0.00    +0.000 C 
ATOM     21  C   UNL     1      47.608   5.136  16.098  0.00  0.00    +0.000 C 
ATOM     22  N   UNL     1      48.656   5.951  16.752  0.00  0.00    +0.000 NA
ATOM     23  C   UNL     1      48.902   7.150  15.902  0.00  0.00    +0.000 C 
ATOM     24  C   UNL     1      49.056   6.889  14.373  0.00  0.00    +0.000 C 
BRANCH  22  25
ATOM     25  C   UNL     1      49.918   5.213  16.992  0.00  0.00    +0.000 C 
BRANCH  25  26
ATOM     26  C   UNL     1      49.925   4.231  18.197  0.00  0.00    +0.000 C 
ATOM     27  C   UNL     1      51.096   4.435  19.178  0.00  0.00    +0.000 C 
ATOM     28  C   UNL     1      52.374   3.684  18.802  0.00  0.00    +0.000 C 
ATOM     29  N   UNL     1      52.128   2.282  18.469  0.00  0.00    +0.000 NA
ATOM     30  C   UNL     1      51.199   2.184  17.345  0.00  0.00    +0.000 C 
ATOM     31  C   UNL     1      49.845   2.771  17.721  0.00  0.00    +0.000 C 
ATOM     32  H   UNL     1      51.725   1.814  19.278  0.00  0.00    +0.000 HD
ENDBRANCH  25  26
ENDBRANCH  22  25
ENDBRANCH  18  19
ENDBRANCH   1  18
TORSDOF 7
ENDMDL
MODEL 6
REMARK VINA RESULT:    -6.456      2.874      3.155
REMARK INTER + INTRA:          -9.210
REMARK INTER:                  -8.378
REMARK INTRA:                  -0.832
REMARK UNBOUND:                -0.300
REMARK  Name = 
REMARK  7 active torsions:
REMARK  status: ('A' for Active; 'I' for Inactive)
REMARK    1  A    between atoms: N_1  and  C_2
REMARK    2  A    between atoms: C_2  and  C_3
REMARK    3  A    between atoms: C_2  and  C_17
REMARK    4  A    between atoms: C_3  and  N_4
REMARK    5  A    between atoms: N_7  and  C_8
REMARK    6  A    between atoms: C_8  and  C_9
REMARK    7  A    between atoms: C_17  and  C_19
REMARK                            x       y       z     vdW  Elec       q    Type
REMARK                         _______ _______ _______ _____ _____    ______ ____
ROOT
ATOM      1  C   UNL     1      49.362   7.279  15.355  0.00  0.00    +0.000 C 
ENDROOT
BRANCH   1   2
ATOM      2  N   UNL     1      50.753   7.374  14.843  0.00  0.00    +0.000 NA
ATOM      3  H   UNL     1      50.887   8.312  14.463  0.00  0.00    +0.000 HD
ATOM      4  H   UNL     1      50.829   6.752  14.034  0.00  0.00    +0.000 HD
ENDBRANCH   1   2
BRANCH   1   5
ATOM      5  C   UNL     1      49.274   7.909  16.768  0.00  0.00    +0.000 C 
ATOM      6  O   UNL     1      48.592   8.924  16.940  0.00  0.00    +0.000 OA
BRANCH   5   7
ATOM      7  C   UNL     1      49.880   7.236  17.930  0.00  0.00    +0.000 A 
ATOM      8  C   UNL     1      51.136   7.625  18.383  0.00  0.00    +0.000 A 
ATOM      9  S   UNL     1      51.604   6.858  19.834  0.00  0.00    +0.000 S 
ATOM     10  C   UNL     1      50.166   5.947  19.879  0.00  0.00    +0.000 A 
ATOM     11  N   UNL     1      49.899   5.105  20.911  0.00  0.00    +0.000 NA
ATOM     12  C   UNL     1      48.775   4.475  20.810  0.00  0.00    +0.000 A 
ATOM     13  N   UNL     1      47.913   4.584  19.750  0.00  0.00    +0.000 N 
ATOM     14  C   UNL     1      48.228   5.297  18.619  0.00  0.00    +0.000 A 
ATOM     15  O   UNL     1      47.603   5.133  17.580  0.00  0.00    +0.000 OA
ATOM     16  C   UNL     1      49.383   6.163  18.758  0.00  0.00    +0.000 A 
ATOM     17  H   UNL     1      47.106   3.981  19.683  0.00  0.00    +0.000 HD
ENDBRANCH   5   7
ENDBRANCH   1   5
BRANCH   1  18
ATOM     18  C   UNL     1      48.317   7.968  14.438  0.00  0.00    +0.000 C 
BRANCH  18  19
ATOM     19  N   UNL     1      48.195   7.452  13.053  0.00  0.00    +0.000 NA
ATOM     20  C   UNL     1      47.153   8.192  12.309  0.00  0.00    +0.000 C 
ATOM     21  C   UNL     1      45.718   7.871  12.790  0.00  0.00    +0.000 C 
ATOM     22  N   UNL     1      45.341   6.444  12.678  0.00  0.00    +0.000 NA
ATOM     23  C   UNL     1      46.407   5.635  13.334  0.00  0.00    +0.000 C 
ATOM     24  C   UNL     1      47.876   6.011  12.973  0.00  0.00    +0.000 C 
BRANCH  22  25
ATOM     25  C   UNL     1      45.128   5.994  11.283  0.00  0.00    +0.000 C 
BRANCH  25  26
ATOM     26  C   UNL     1      43.757   5.327  10.975  0.00  0.00    +0.000 C 
ATOM     27  C   UNL     1      43.063   4.704  12.202  0.00  0.00    +0.000 C 
ATOM     28  C   UNL     1      43.482   3.264  12.503  0.00  0.00    +0.000 C 
ATOM     29  N   UNL     1      43.454   2.408  11.317  0.00  0.00    +0.000 NA
ATOM     30  C   UNL     1      44.351   2.935  10.291  0.00  0.00    +0.000 C 
ATOM     31  C   UNL     1      43.882   4.308   9.829  0.00  0.00    +0.000 C 
ATOM     32  H   UNL     1      42.505   2.380  10.951  0.00  0.00    +0.000 HD
ENDBRANCH  25  26
ENDBRANCH  22  25
ENDBRANCH  18  19
ENDBRANCH   1  18
TORSDOF 7
ENDMDL
MODEL 7
REMARK VINA RESULT:    -6.278      3.459      8.045
REMARK INTER + INTRA:          -8.963
REMARK INTER:                  -8.185
REMARK INTRA:                  -0.779
REMARK UNBOUND:                -0.300
REMARK  Name = 
REMARK  7 active torsions:
REMARK  status: ('A' for Active; 'I' for Inactive)
REMARK    1  A    between atoms: N_1  and  C_2
REMARK    2  A    between atoms: C_2  and  C_3
REMARK    3  A    between atoms: C_2  and  C_17
REMARK    4  A    between atoms: C_3  and  N_4
REMARK    5  A    between atoms: N_7  and  C_8
REMARK    6  A    between atoms: C_8  and  C_9
REMARK    7  A    between atoms: C_17  and  C_19
REMARK                            x       y       z     vdW  Elec       q    Type
REMARK                         _______ _______ _______ _____ _____    ______ ____
ROOT
ATOM      1  C   UNL     1      47.431   8.584  13.590  0.00  0.00    +0.000 C 
ENDROOT
BRANCH   1   2
ATOM      2  N   UNL     1      46.844   9.808  12.988  0.00  0.00    +0.000 NA
ATOM      3  H   UNL     1      46.223  10.233  13.677  0.00  0.00    +0.000 HD
ATOM      4  H   UNL     1      46.227   9.515  12.227  0.00  0.00    +0.000 HD
ENDBRANCH   1   2
BRANCH   1   5
ATOM      5  C   UNL     1      47.332   7.403  12.591  0.00  0.00    +0.000 C 
ATOM      6  O   UNL     1      48.364   6.939  12.095  0.00  0.00    +0.000 OA
BRANCH   5   7
ATOM      7  C   UNL     1      46.040   6.743  12.333  0.00  0.00    +0.000 A 
ATOM      8  C   UNL     1      44.965   7.481  11.854  0.00  0.00    +0.000 A 
ATOM      9  S   UNL     1      43.608   6.526  11.453  0.00  0.00    +0.000 S 
ATOM     10  C   UNL     1      44.397   5.102  11.950  0.00  0.00    +0.000 A 
ATOM     11  N   UNL     1      43.801   3.887  11.825  0.00  0.00    +0.000 NA
ATOM     12  C   UNL     1      44.514   2.896  12.247  0.00  0.00    +0.000 A 
ATOM     13  N   UNL     1      45.754   3.015  12.819  0.00  0.00    +0.000 N 
ATOM     14  C   UNL     1      46.313   4.235  13.110  0.00  0.00    +0.000 A 
ATOM     15  O   UNL     1      47.255   4.325  13.885  0.00  0.00    +0.000 OA
ATOM     16  C   UNL     1      45.643   5.365  12.493  0.00  0.00    +0.000 A 
ATOM     17  H   UNL     1      46.209   2.211  13.228  0.00  0.00    +0.000 HD
ENDBRANCH   5   7
ENDBRANCH   1   5
BRANCH   1  18
ATOM     18  C   UNL     1      48.914   8.753  14.014  0.00  0.00    +0.000 C 
BRANCH  18  19
ATOM     19  N   UNL     1      49.190   8.848  15.468  0.00  0.00    +0.000 NA
ATOM     20  C   UNL     1      50.612   8.558  15.751  0.00  0.00    +0.000 C 
ATOM     21  C   UNL     1      50.980   7.068  15.555  0.00  0.00    +0.000 C 
ATOM     22  N   UNL     1      50.212   6.133  16.407  0.00  0.00    +0.000 NA
ATOM     23  C   UNL     1      48.764   6.438  16.235  0.00  0.00    +0.000 C 
ATOM     24  C   UNL     1      48.366   7.944  16.298  0.00  0.00    +0.000 C 
BRANCH  22  25
ATOM     25  C   UNL     1      50.590   6.186  17.838  0.00  0.00    +0.000 C 
BRANCH  25  26
ATOM     26  C   UNL     1      50.792   4.818  18.550  0.00  0.00    +0.000 C 
ATOM     27  C   UNL     1      50.226   3.609  17.778  0.00  0.00    +0.000 C 
ATOM     28  C   UNL     1      48.749   3.320  18.053  0.00  0.00    +0.000 C 
ATOM     29  N   UNL     1      48.432   3.304  19.480  0.00  0.00    +0.000 NA
ATOM     30  C   UNL     1      48.760   4.592  20.086  0.00  0.00    +0.000 C 
ATOM     31  C   UNL     1      50.256   4.860  19.991  0.00  0.00    +0.000 C 
ATOM     32  H   UNL     1      48.976   2.572  19.933  0.00  0.00    +0.000 HD
ENDBRANCH  25  26
ENDBRANCH  22  25
ENDBRANCH  18  19
ENDBRANCH   1  18
TORSDOF 7
ENDMDL
MODEL 8
REMARK VINA RESULT:    -5.740      3.769      8.915
REMARK INTER + INTRA:          -8.221
REMARK INTER:                  -7.523
REMARK INTRA:                  -0.698
REMARK UNBOUND:                -0.300
REMARK  Name = 
REMARK  7 active torsions:
REMARK  status: ('A' for Active; 'I' for Inactive)
REMARK    1  A    between atoms: N_1  and  C_2
REMARK    2  A    between atoms: C_2  and  C_3
REMARK    3  A    between atoms: C_2  and  C_17
REMARK    4  A    between atoms: C_3  and  N_4
REMARK    5  A    between atoms: N_7  and  C_8
REMARK    6  A    between atoms: C_8  and  C_9
REMARK    7  A    between atoms: C_17  and  C_19
REMARK                            x       y       z     vdW  Elec       q    Type
REMARK                         _______ _______ _______ _____ _____    ______ ____
ROOT
ATOM      1  C   UNL     1      47.043   7.680  13.510  0.00  0.00    +0.000 C 
ENDROOT
BRANCH   1   2
ATOM      2  N   UNL     1      46.192   8.888  13.650  0.00  0.00    +0.000 NA
ATOM      3  H   UNL     1      46.379   9.501  12.856  0.00  0.00    +0.000 HD
ATOM      4  H   UNL     1      46.524   9.409  14.465  0.00  0.00    +0.000 HD
ENDBRANCH   1   2
BRANCH   1   5
ATOM      5  C   UNL     1      46.737   6.969  12.167  0.00  0.00    +0.000 C 
ATOM      6  O   UNL     1      47.644   6.806  11.345  0.00  0.00    +0.000 OA
BRANCH   5   7
ATOM      7  C   UNL     1      45.415   6.366  11.920  0.00  0.00    +0.000 A 
ATOM      8  C   UNL     1      44.380   7.143  11.412  0.00  0.00    +0.000 A 
ATOM      9  S   UNL     1      42.980   6.246  11.030  0.00  0.00    +0.000 S 
ATOM     10  C   UNL     1      43.694   4.799  11.574  0.00  0.00    +0.000 A 
ATOM     11  N   UNL     1      43.038   3.612  11.480  0.00  0.00    +0.000 NA
ATOM     12  C   UNL     1      43.698   2.600  11.937  0.00  0.00    +0.000 A 
ATOM     13  N   UNL     1      44.939   2.674  12.514  0.00  0.00    +0.000 N 
ATOM     14  C   UNL     1      45.557   3.873  12.772  0.00  0.00    +0.000 A 
ATOM     15  O   UNL     1      46.498   3.938  13.552  0.00  0.00    +0.000 OA
ATOM     16  C   UNL     1      44.948   5.015  12.118  0.00  0.00    +0.000 A 
ATOM     17  H   UNL     1      45.351   1.861  12.950  0.00  0.00    +0.000 HD
ENDBRANCH   5   7
ENDBRANCH   1   5
BRANCH   1  18
ATOM     18  C   UNL     1      48.563   7.983  13.576  0.00  0.00    +0.000 C 
BRANCH  18  19
ATOM     19  N   UNL     1      49.411   7.009  14.306  0.00  0.00    +0.000 NA
ATOM     20  C   UNL     1      48.727   6.531  15.526  0.00  0.00    +0.000 C 
ATOM     21  C   UNL     1      48.630   7.609  16.632  0.00  0.00    +0.000 C 
ATOM     22  N   UNL     1      49.936   8.129  17.093  0.00  0.00    +0.000 NA
ATOM     23  C   UNL     1      50.715   8.546  15.893  0.00  0.00    +0.000 C 
ATOM     24  C   UNL     1      50.732   7.540  14.702  0.00  0.00    +0.000 C 
BRANCH  22  25
ATOM     25  C   UNL     1      50.708   7.161  17.906  0.00  0.00    +0.000 C 
BRANCH  25  26
ATOM     26  C   UNL     1      50.502   7.234  19.445  0.00  0.00    +0.000 C 
ATOM     27  C   UNL     1      51.809   7.285  20.261  0.00  0.00    +0.000 C 
ATOM     28  C   UNL     1      52.399   5.913  20.595  0.00  0.00    +0.000 C 
ATOM     29  N   UNL     1      51.407   4.988  21.138  0.00  0.00    +0.000 NA
ATOM     30  C   UNL     1      50.320   4.791  20.181  0.00  0.00    +0.000 C 
ATOM     31  C   UNL     1      49.584   6.100  19.935  0.00  0.00    +0.000 C 
ATOM     32  H   UNL     1      51.028   5.375  22.000  0.00  0.00    +0.000 HD
ENDBRANCH  25  26
ENDBRANCH  22  25
ENDBRANCH  18  19
ENDBRANCH   1  18
TORSDOF 7
ENDMDL
MODEL 9
REMARK VINA RESULT:    -5.584      3.233      9.429
REMARK INTER + INTRA:          -8.006
REMARK INTER:                  -7.594
REMARK INTRA:                  -0.412
REMARK UNBOUND:                -0.300
REMARK  Name = 
REMARK  7 active torsions:
REMARK  status: ('A' for Active; 'I' for Inactive)
REMARK    1  A    between atoms: N_1  and  C_2
REMARK    2  A    between atoms: C_2  and  C_3
REMARK    3  A    between atoms: C_2  and  C_17
REMARK    4  A    between atoms: C_3  and  N_4
REMARK    5  A    between atoms: N_7  and  C_8
REMARK    6  A    between atoms: C_8  and  C_9
REMARK    7  A    between atoms: C_17  and  C_19
REMARK                            x       y       z     vdW  Elec       q    Type
REMARK                         _______ _______ _______ _____ _____    ______ ____
ROOT
ATOM      1  C   UNL     1      48.013   6.352  14.367  0.00  0.00    +0.000 C 
ENDROOT
BRANCH   1   2
ATOM      2  N   UNL     1      49.022   6.276  13.281  0.00  0.00    +0.000 NA
ATOM      3  H   UNL     1      49.159   5.293  13.044  0.00  0.00    +0.000 HD
ATOM      4  H   UNL     1      49.920   6.576  13.670  0.00  0.00    +0.000 HD
ENDBRANCH   1   2
BRANCH   1   5
ATOM      5  C   UNL     1      46.858   5.356  14.087  0.00  0.00    +0.000 C 
ATOM      6  O   UNL     1      46.685   4.398  14.848  0.00  0.00    +0.000 OA
BRANCH   5   7
ATOM      7  C   UNL     1      45.887   5.615  13.010  0.00  0.00    +0.000 A 
ATOM      8  C   UNL     1      45.416   6.904  12.793  0.00  0.00    +0.000 A 
ATOM      9  S   UNL     1      44.434   7.046  11.404  0.00  0.00    +0.000 S 
ATOM     10  C   UNL     1      44.570   5.381  11.074  0.00  0.00    +0.000 A 
ATOM     11  N   UNL     1      43.996   4.834   9.970  0.00  0.00    +0.000 NA
ATOM     12  C   UNL     1      44.176   3.560   9.850  0.00  0.00    +0.000 A 
ATOM     13  N   UNL     1      44.845   2.779  10.755  0.00  0.00    +0.000 N 
ATOM     14  C   UNL     1      45.293   3.269  11.958  0.00  0.00    +0.000 A 
ATOM     15  O   UNL     1      45.601   2.512  12.868  0.00  0.00    +0.000 OA
ATOM     16  C   UNL     1      45.281   4.716  12.058  0.00  0.00    +0.000 A 
ATOM     17  H   UNL     1      44.853   1.773  10.657  0.00  0.00    +0.000 HD
ENDBRANCH   5   7
ENDBRANCH   1   5
BRANCH   1  18
ATOM     18  C   UNL     1      48.595   6.054  15.774  0.00  0.00    +0.000 C 
BRANCH  18  19
ATOM     19  N   UNL     1      49.529   7.058  16.341  0.00  0.00    +0.000 NA
ATOM     20  C   UNL     1      50.907   6.527  16.379  0.00  0.00    +0.000 C 
ATOM     21  C   UNL     1      51.104   5.421  17.443  0.00  0.00    +0.000 C 
ATOM     22  N   UNL     1      50.809   5.848  18.829  0.00  0.00    +0.000 NA
ATOM     23  C   UNL     1      49.460   6.479  18.839  0.00  0.00    +0.000 C 
ATOM     24  C   UNL     1      49.175   7.508  17.703  0.00  0.00    +0.000 C 
BRANCH  22  25
ATOM     25  C   UNL     1      51.821   6.770  19.395  0.00  0.00    +0.000 C 
BRANCH  25  26
ATOM     26  C   UNL     1      52.540   6.295  20.689  0.00  0.00    +0.000 C 
ATOM     27  C   UNL     1      54.052   6.595  20.724  0.00  0.00    +0.000 C 
ATOM     28  C   UNL     1      54.924   5.521  20.071  0.00  0.00    +0.000 C 
ATOM     29  N   UNL     1      54.585   4.170  20.517  0.00  0.00    +0.000 NA
ATOM     30  C   UNL     1      53.190   3.869  20.205  0.00  0.00    +0.000 C 
ATOM     31  C   UNL     1      52.261   4.807  20.964  0.00  0.00    +0.000 C 
ATOM     32  H   UNL     1      54.725   4.107  21.523  0.00  0.00    +0.000 HD
ENDBRANCH  25  26
ENDBRANCH  22  25
ENDBRANCH  18  19
ENDBRANCH   1  18
TORSDOF 7
ENDMDL
