MODEL 1
REMARK VINA RESULT:    -6.390      0.000      0.000
REMARK INTER + INTRA:          -8.057
REMARK INTER:                  -7.698
REMARK INTRA:                  -0.359
REMARK UNBOUND:                -0.359
REMARK  Name = 
REMARK  5 active torsions:
REMARK  status: ('A' for Active; 'I' for Inactive)
REMARK    1  A    between atoms: C_1  and  C_2
REMARK    2  A    between atoms: C_2  and  O_3
REMARK    3  A    between atoms: C_10  and  C_11
REMARK    4  A    between atoms: C_12  and  C_13
REMARK    5  A    between atoms: C_16  and  C_17
REMARK                            x       y       z     vdW  Elec       q    Type
REMARK                         _______ _______ _______ _____ _____    ______ ____
ROOT
ATOM      1  C   UNL     1      50.296   3.824  18.195  0.00  0.00    +0.000 C 
ATOM      2  C   UNL     1      49.337   4.398  19.249  0.00  0.00    +0.000 C 
ATOM      3  C   UNL     1      48.473   5.561  18.697  0.00  0.00    +0.000 C 
ATOM      4  N   UNL     1      49.273   6.770  18.528  0.00  0.00    +0.000 N 
ATOM      5  C   UNL     1      49.394   7.371  17.308  0.00  0.00    +0.000 A 
ATOM      6  N   UNL     1      50.150   8.472  17.189  0.00  0.00    +0.000 NA
ATOM      7  C   UNL     1      50.211   9.057  15.980  0.00  0.00    +0.000 A 
ATOM      8  C   UNL     1      49.551   8.586  14.873  0.00  0.00    +0.000 A 
ATOM      9  C   UNL     1      48.808   7.447  15.075  0.00  0.00    +0.000 A 
ATOM     10  N   UNL     1      48.734   6.837  16.272  0.00  0.00    +0.000 NA
ATOM     11  C   UNL     1      50.043   7.178  19.694  0.00  0.00    +0.000 C 
ATOM     12  C   UNL     1      50.865   5.986  20.212  0.00  0.00    +0.000 C 
ATOM     13  O   UNL     1      50.078   4.800  20.415  0.00  0.00    +0.000 OA
ENDROOT
BRANCH   2  14
ATOM     14  O   UNL     1      48.441   3.357  19.656  0.00  0.00    +0.000 OA
ATOM     15  H   UNL     1      48.836   2.508  19.400  0.00  0.00    +0.000 HD
ENDBRANCH   2  14
BRANCH   9  16
ATOM     16  C   UNL     1      48.033   6.856  13.978  0.00  0.00    +0.000 C 
ATOM     17  C   UNL     1      47.291   5.740  14.097  0.00  0.00    +0.000 C 
BRANCH  17  18
ATOM     18  C   UNL     1      46.483   5.178  13.016  0.00  0.00    +0.000 A 
ATOM     19  N   UNL     1      45.997   3.930  13.166  0.00  0.00    +0.000 NA
ATOM     20  C   UNL     1      45.290   3.433  12.131  0.00  0.00    +0.000 A 
ATOM     21  C   UNL     1      45.039   4.133  10.972  0.00  0.00    +0.000 A 
ATOM     22  C   UNL     1      45.584   5.397  10.916  0.00  0.00    +0.000 A 
ATOM     23  N   UNL     1      46.302   5.947  11.925  0.00  0.00    +0.000 NA
BRANCH  21  24
ATOM     24  C   UNL     1      44.263   3.507   9.891  0.00  0.00    +0.000 C 
ATOM     25  N   UNL     1      44.024   4.237   8.762  0.00  0.00    +0.000 N 
ATOM     26  O   UNL     1      43.813   2.377  10.018  0.00  0.00    +0.000 OA
ATOM     27  H   UNL     1      44.162   5.235   8.692  0.00  0.00    +0.000 HD
ATOM     28  H   UNL     1      43.398   3.811   8.088  0.00  0.00    +0.000 HD
ENDBRANCH  21  24
ENDBRANCH  17  18
ENDBRANCH   9  16
TORSDOF 4
ENDMDL
MODEL 2
REMARK VINA RESULT:    -6.352      2.190      3.485
REMARK INTER + INTRA:          -8.011
REMARK INTER:                  -7.654
REMARK INTRA:                  -0.357
REMARK UNBOUND:                -0.359
REMARK  Name = 
REMARK  5 active torsions:
REMARK  status: ('A' for Active; 'I' for Inactive)
REMARK    1  A    between atoms: C_1  and  C_2
REMARK    2  A    between atoms: C_2  and  O_3
REMARK    3  A    between atoms: C_10  and  C_11
REMARK    4  A    between atoms: C_12  and  C_13
REMARK    5  A    between atoms: C_16  and  C_17
REMARK                            x       y       z     vdW  Elec       q    Type
REMARK                         _______ _______ _______ _____ _____    ______ ____
ROOT
ATOM      1  C   UNL     1      47.888   9.336  17.365  0.00  0.00    +0.000 C 
ATOM      2  C   UNL     1      49.395   9.320  17.071  0.00  0.00    +0.000 C 
ATOM      3  C   UNL     1      49.906   7.915  16.659  0.00  0.00    +0.000 C 
ATOM      4  N   UNL     1      49.954   7.019  17.809  0.00  0.00    +0.000 N 
ATOM      5  C   UNL     1      49.243   5.853  17.826  0.00  0.00    +0.000 A 
ATOM      6  N   UNL     1      49.301   5.063  18.908  0.00  0.00    +0.000 NA
ATOM      7  C   UNL     1      48.620   3.905  18.869  0.00  0.00    +0.000 A 
ATOM      8  C   UNL     1      47.872   3.498  17.792  0.00  0.00    +0.000 A 
ATOM      9  C   UNL     1      47.854   4.369  16.729  0.00  0.00    +0.000 A 
ATOM     10  N   UNL     1      48.521   5.537  16.743  0.00  0.00    +0.000 NA
ATOM     11  C   UNL     1      50.667   7.531  18.971  0.00  0.00    +0.000 C 
ATOM     12  C   UNL     1      50.137   8.931  19.325  0.00  0.00    +0.000 C 
ATOM     13  O   UNL     1      50.119   9.831  18.204  0.00  0.00    +0.000 OA
ENDROOT
BRANCH   2  14
ATOM     14  O   UNL     1      49.649  10.205  15.974  0.00  0.00    +0.000 OA
ATOM     15  H   UNL     1      48.806  10.363  15.519  0.00  0.00    +0.000 HD
ENDBRANCH   2  14
BRANCH   9  16
ATOM     16  C   UNL     1      47.113   4.041  15.506  0.00  0.00    +0.000 C 
ATOM     17  C   UNL     1      46.941   4.892  14.479  0.00  0.00    +0.000 C 
BRANCH  17  18
ATOM     18  C   UNL     1      46.242   4.549  13.242  0.00  0.00    +0.000 A 
ATOM     19  N   UNL     1      45.771   3.293  13.104  0.00  0.00    +0.000 NA
ATOM     20  C   UNL     1      45.168   3.004  11.933  0.00  0.00    +0.000 A 
ATOM     21  C   UNL     1      45.004   3.914  10.914  0.00  0.00    +0.000 A 
ATOM     22  C   UNL     1      45.525   5.167  11.152  0.00  0.00    +0.000 A 
ATOM     23  N   UNL     1      46.140   5.514  12.308  0.00  0.00    +0.000 NA
BRANCH  21  24
ATOM     24  C   UNL     1      44.338   3.508   9.667  0.00  0.00    +0.000 C 
ATOM     25  N   UNL     1      44.002   4.479   8.769  0.00  0.00    +0.000 N 
ATOM     26  O   UNL     1      44.062   2.334   9.460  0.00  0.00    +0.000 OA
ATOM     27  H   UNL     1      43.989   5.467   8.979  0.00  0.00    +0.000 HD
ATOM     28  H   UNL     1      43.451   4.171   7.974  0.00  0.00    +0.000 HD
ENDBRANCH  21  24
ENDBRANCH  17  18
ENDBRANCH   9  16
TORSDOF 4
ENDMDL
MODEL 3
REMARK VINA RESULT:    -5.791      4.720      8.572
REMARK INTER + INTRA:          -7.335
REMARK INTER:                  -7.044
REMARK INTRA:                  -0.291
REMARK UNBOUND:                -0.359
REMARK  Name = 
REMARK  5 active torsions:
REMARK  status: ('A' for Active; 'I' for Inactive)
REMARK    1  A    between atoms: C_1  and  C_2
REMARK    2  A    between atoms: C_2  and  O_3
REMARK    3  A    between atoms: C_10  and  C_11
REMARK    4  A    between atoms: C_12  and  C_13
REMARK    5  A    between atoms: C_16  and  C_17
REMARK                            x       y       z     vdW  Elec       q    Type
REMARK                         _______ _______ _______ _____ _____    ______ ____
ROOT
ATOM      1  C   UNL     1      45.635   3.285   9.599  0.00  0.00    +0.000 C 
ATOM      2  C   UNL     1      44.279   3.935   9.908  0.00  0.00    +0.000 C 
ATOM      3  C   UNL     1      44.408   5.162  10.848  0.00  0.00    +0.000 C 
ATOM      4  N   UNL     1      44.704   4.743  12.214  0.00  0.00    +0.000 N 
ATOM      5  C   UNL     1      45.833   5.167  12.853  0.00  0.00    +0.000 A 
ATOM      6  N   UNL     1      46.078   4.749  14.103  0.00  0.00    +0.000 NA
ATOM      7  C   UNL     1      47.179   5.221  14.714  0.00  0.00    +0.000 A 
ATOM      8  C   UNL     1      48.058   6.096  14.125  0.00  0.00    +0.000 A 
ATOM      9  C   UNL     1      47.742   6.468  12.840  0.00  0.00    +0.000 A 
ATOM     10  N   UNL     1      46.651   6.006  12.203  0.00  0.00    +0.000 NA
ATOM     11  C   UNL     1      43.811   3.734  12.765  0.00  0.00    +0.000 C 
ATOM     12  C   UNL     1      43.703   2.552  11.788  0.00  0.00    +0.000 C 
ATOM     13  O   UNL     1      43.378   2.953  10.446  0.00  0.00    +0.000 OA
ENDROOT
BRANCH   2  14
ATOM     14  O   UNL     1      43.712   4.400   8.677  0.00  0.00    +0.000 OA
ATOM     15  H   UNL     1      42.903   4.892   8.890  0.00  0.00    +0.000 HD
ENDBRANCH   2  14
BRANCH   9  16
ATOM     16  C   UNL     1      48.586   7.418  12.108  0.00  0.00    +0.000 C 
ATOM     17  C   UNL     1      49.931   7.381  12.099  0.00  0.00    +0.000 C 
BRANCH  17  18
ATOM     18  C   UNL     1      50.769   8.300  11.333  0.00  0.00    +0.000 A 
ATOM     19  N   UNL     1      50.455   9.611  11.346  0.00  0.00    +0.000 NA
ATOM     20  C   UNL     1      51.227  10.421  10.594  0.00  0.00    +0.000 A 
ATOM     21  C   UNL     1      52.300   9.980   9.852  0.00  0.00    +0.000 A 
ATOM     22  C   UNL     1      52.533   8.623   9.901  0.00  0.00    +0.000 A 
ATOM     23  N   UNL     1      51.791   7.762  10.638  0.00  0.00    +0.000 NA
BRANCH  21  24
ATOM     24  C   UNL     1      53.083  10.936   9.055  0.00  0.00    +0.000 C 
ATOM     25  N   UNL     1      52.655  11.227   7.792  0.00  0.00    +0.000 N 
ATOM     26  O   UNL     1      54.110  11.427   9.502  0.00  0.00    +0.000 OA
ATOM     27  H   UNL     1      51.964  10.689   7.289  0.00  0.00    +0.000 HD
ATOM     28  H   UNL     1      53.278  11.805   7.239  0.00  0.00    +0.000 HD
ENDBRANCH  21  24
ENDBRANCH  17  18
ENDBRANCH   9  16
TORSDOF 4
ENDMDL
MODEL 4
REMARK VINA RESULT:    -5.777      2.440      3.651
REMARK INTER + INTRA:          -7.318
REMARK INTER:                  -6.962
REMARK INTRA:                  -0.356
REMARK UNBOUND:                -0.359
REMARK  Name = 
REMARK  5 active torsions:
REMARK  status: ('A' for Active; 'I' for Inactive)
REMARK    1  A    between atoms: C_1  and  C_2
REMARK    2  A    between atoms: C_2  and  O_3
REMARK    3  A    between atoms: C_10  and  C_11
REMARK    4  A    between atoms: C_12  and  C_13
REMARK    5  A    between atoms: C_16  and  C_17
REMARK                            x       y       z     vdW  Elec       q    Type
REMARK                         _______ _______ _______ _____ _____    ______ ____
ROOT
ATOM      1  C   UNL     1      51.290   8.660  15.826  0.00  0.00    +0.000 C 
ATOM      2  C   UNL     1      52.472   7.685  15.929  0.00  0.00    +0.000 C 
ATOM      3  C   UNL     1      52.019   6.227  16.199  0.00  0.00    +0.000 C 
ATOM      4  N   UNL     1      51.557   6.070  17.573  0.00  0.00    +0.000 N 
ATOM      5  C   UNL     1      50.289   5.646  17.848  0.00  0.00    +0.000 A 
ATOM      6  N   UNL     1      49.896   5.528  19.124  0.00  0.00    +0.000 NA
ATOM      7  C   UNL     1      48.653   5.068  19.353  0.00  0.00    +0.000 A 
ATOM      8  C   UNL     1      47.775   4.723  18.357  0.00  0.00    +0.000 A 
ATOM      9  C   UNL     1      48.249   4.883  17.076  0.00  0.00    +0.000 A 
ATOM     10  N   UNL     1      49.485   5.347  16.818  0.00  0.00    +0.000 NA
ATOM     11  C   UNL     1      52.474   6.547  18.599  0.00  0.00    +0.000 C 
ATOM     12  C   UNL     1      52.906   7.987  18.275  0.00  0.00    +0.000 C 
ATOM     13  O   UNL     1      53.396   8.143  16.932  0.00  0.00    +0.000 OA
ENDROOT
BRANCH   2  14
ATOM     14  O   UNL     1      53.170   7.691  14.678  0.00  0.00    +0.000 OA
ATOM     15  H   UNL     1      53.209   8.608  14.364  0.00  0.00    +0.000 HD
ENDBRANCH   2  14
BRANCH   9  16
ATOM     16  C   UNL     1      47.419   4.525  15.921  0.00  0.00    +0.000 C 
ATOM     17  C   UNL     1      47.404   5.210  14.763  0.00  0.00    +0.000 C 
BRANCH  17  18
ATOM     18  C   UNL     1      46.611   4.825  13.598  0.00  0.00    +0.000 A 
ATOM     19  N   UNL     1      46.314   5.773  12.687  0.00  0.00    +0.000 NA
ATOM     20  C   UNL     1      45.548   5.388  11.647  0.00  0.00    +0.000 A 
ATOM     21  C   UNL     1      45.086   4.102  11.474  0.00  0.00    +0.000 A 
ATOM     22  C   UNL     1      45.441   3.210  12.462  0.00  0.00    +0.000 A 
ATOM     23  N   UNL     1      46.209   3.541  13.529  0.00  0.00    +0.000 NA
BRANCH  21  24
ATOM     24  C   UNL     1      44.249   3.773  10.311  0.00  0.00    +0.000 C 
ATOM     25  N   UNL     1      43.977   4.763   9.411  0.00  0.00    +0.000 N 
ATOM     26  O   UNL     1      43.781   2.652  10.175  0.00  0.00    +0.000 OA
ATOM     27  H   UNL     1      44.133   5.746   9.584  0.00  0.00    +0.000 HD
ATOM     28  H   UNL     1      43.312   4.525   8.683  0.00  0.00    +0.000 HD
ENDBRANCH  21  24
ENDBRANCH  17  18
ENDBRANCH   9  16
TORSDOF 4
ENDMDL
MODEL 5
REMARK VINA RESULT:    -5.656      2.050      2.176
REMARK INTER + INTRA:          -7.172
REMARK INTER:                  -6.869
REMARK INTRA:                  -0.304
REMARK UNBOUND:                -0.359
REMARK  Name = 
REMARK  5 active torsions:
REMARK  status: ('A' for Active; 'I' for Inactive)
REMARK    1  A    between atoms: C_1  and  C_2
REMARK    2  A    between atoms: C_2  and  O_3
REMARK    3  A    between atoms: C_10  and  C_11
REMARK    4  A    between atoms: C_12  and  C_13
REMARK    5  A    between atoms: C_16  and  C_17
REMARK                            x       y       z     vdW  Elec       q    Type
REMARK                         _______ _______ _______ _____ _____    ______ ____
ROOT
ATOM      1  C   UNL     1      51.243   3.613  17.581  0.00  0.00    +0.000 C 
ATOM      2  C   UNL     1      51.209   4.580  18.773  0.00  0.00    +0.000 C 
ATOM      3  C   UNL     1      50.714   5.995  18.376  0.00  0.00    +0.000 C 
ATOM      4  N   UNL     1      51.732   6.710  17.615  0.00  0.00    +0.000 N 
ATOM      5  C   UNL     1      51.479   7.164  16.352  0.00  0.00    +0.000 A 
ATOM      6  N   UNL     1      52.446   7.803  15.678  0.00  0.00    +0.000 NA
ATOM      7  C   UNL     1      52.146   8.271  14.454  0.00  0.00    +0.000 A 
ATOM      8  C   UNL     1      50.915   8.122  13.864  0.00  0.00    +0.000 A 
ATOM      9  C   UNL     1      49.984   7.445  14.614  0.00  0.00    +0.000 A 
ATOM     10  N   UNL     1      50.259   6.962  15.839  0.00  0.00    +0.000 NA
ATOM     11  C   UNL     1      53.053   6.754  18.225  0.00  0.00    +0.000 C 
ATOM     12  C   UNL     1      53.487   5.331  18.616  0.00  0.00    +0.000 C 
ATOM     13  O   UNL     1      52.504   4.632  19.397  0.00  0.00    +0.000 OA
ENDROOT
BRANCH   2  14
ATOM     14  O   UNL     1      50.292   4.063  19.745  0.00  0.00    +0.000 OA
ATOM     15  H   UNL     1      50.101   3.141  19.511  0.00  0.00    +0.000 HD
ENDBRANCH   2  14
BRANCH   9  16
ATOM     16  C   UNL     1      48.622   7.241  14.109  0.00  0.00    +0.000 C 
ATOM     17  C   UNL     1      48.228   6.154  13.421  0.00  0.00    +0.000 C 
BRANCH  17  18
ATOM     18  C   UNL     1      46.860   5.932  12.959  0.00  0.00    +0.000 A 
ATOM     19  N   UNL     1      46.106   5.026  13.612  0.00  0.00    +0.000 NA
ATOM     20  C   UNL     1      44.864   4.820  13.131  0.00  0.00    +0.000 A 
ATOM     21  C   UNL     1      44.344   5.490  12.046  0.00  0.00    +0.000 A 
ATOM     22  C   UNL     1      45.197   6.390  11.446  0.00  0.00    +0.000 A 
ATOM     23  N   UNL     1      46.455   6.638  11.885  0.00  0.00    +0.000 NA
BRANCH  21  24
ATOM     24  C   UNL     1      42.979   5.196  11.587  0.00  0.00    +0.000 C 
ATOM     25  N   UNL     1      42.042   6.185  11.670  0.00  0.00    +0.000 N 
ATOM     26  O   UNL     1      42.684   4.082  11.176  0.00  0.00    +0.000 OA
ATOM     27  H   UNL     1      42.160   7.033  12.206  0.00  0.00    +0.000 HD
ATOM     28  H   UNL     1      41.092   5.912  11.445  0.00  0.00    +0.000 HD
ENDBRANCH  21  24
ENDBRANCH  17  18
ENDBRANCH   9  16
TORSDOF 4
ENDMDL
MODEL 6
REMARK VINA RESULT:    -5.370      5.070      8.323
REMARK INTER + INTRA:          -6.828
REMARK INTER:                  -6.479
REMARK INTRA:                  -0.349
REMARK UNBOUND:                -0.359
REMARK  Name = 
REMARK  5 active torsions:
REMARK  status: ('A' for Active; 'I' for Inactive)
REMARK    1  A    between atoms: C_1  and  C_2
REMARK    2  A    between atoms: C_2  and  O_3
REMARK    3  A    between atoms: C_10  and  C_11
REMARK    4  A    between atoms: C_12  and  C_13
REMARK    5  A    between atoms: C_16  and  C_17
REMARK                            x       y       z     vdW  Elec       q    Type
REMARK                         _______ _______ _______ _____ _____    ______ ____
ROOT
ATOM      1  C   UNL     1      45.397   4.461  13.684  0.00  0.00    +0.000 C 
ATOM      2  C   UNL     1      44.941   4.133  12.255  0.00  0.00    +0.000 C 
ATOM      3  C   UNL     1      45.393   5.203  11.227  0.00  0.00    +0.000 C 
ATOM      4  N   UNL     1      44.613   6.427  11.371  0.00  0.00    +0.000 N 
ATOM      5  C   UNL     1      45.218   7.621  11.645  0.00  0.00    +0.000 A 
ATOM      6  N   UNL     1      44.466   8.722  11.785  0.00  0.00    +0.000 NA
ATOM      7  C   UNL     1      45.101   9.884  12.014  0.00  0.00    +0.000 A 
ATOM      8  C   UNL     1      46.465   9.998  12.116  0.00  0.00    +0.000 A 
ATOM      9  C   UNL     1      47.163   8.822  11.972  0.00  0.00    +0.000 A 
ATOM     10  N   UNL     1      46.553   7.644  11.749  0.00  0.00    +0.000 NA
ATOM     11  C   UNL     1      43.168   6.252  11.365  0.00  0.00    +0.000 C 
ATOM     12  C   UNL     1      42.776   5.170  12.385  0.00  0.00    +0.000 C 
ATOM     13  O   UNL     1      43.515   3.948  12.228  0.00  0.00    +0.000 OA
ENDROOT
BRANCH   2  14
ATOM     14  O   UNL     1      45.537   2.889  11.867  0.00  0.00    +0.000 OA
ATOM     15  H   UNL     1      44.821   2.251  11.719  0.00  0.00    +0.000 HD
ENDBRANCH   2  14
BRANCH   9  16
ATOM     16  C   UNL     1      48.629   8.811  12.034  0.00  0.00    +0.000 C 
ATOM     17  C   UNL     1      49.400   7.882  11.441  0.00  0.00    +0.000 C 
BRANCH  17  18
ATOM     18  C   UNL     1      50.861   7.898  11.465  0.00  0.00    +0.000 A 
ATOM     19  N   UNL     1      51.476   8.482  12.512  0.00  0.00    +0.000 NA
ATOM     20  C   UNL     1      52.823   8.512  12.478  0.00  0.00    +0.000 A 
ATOM     21  C   UNL     1      53.573   7.971  11.457  0.00  0.00    +0.000 A 
ATOM     22  C   UNL     1      52.850   7.403  10.432  0.00  0.00    +0.000 A 
ATOM     23  N   UNL     1      51.496   7.344  10.413  0.00  0.00    +0.000 NA
BRANCH  21  24
ATOM     24  C   UNL     1      55.040   8.056  11.501  0.00  0.00    +0.000 C 
ATOM     25  N   UNL     1      55.651   8.065  12.722  0.00  0.00    +0.000 N 
ATOM     26  O   UNL     1      55.691   8.153  10.470  0.00  0.00    +0.000 OA
ATOM     27  H   UNL     1      55.169   8.222  13.596  0.00  0.00    +0.000 HD
ATOM     28  H   UNL     1      56.651   8.231  12.712  0.00  0.00    +0.000 HD
ENDBRANCH  21  24
ENDBRANCH  17  18
ENDBRANCH   9  16
TORSDOF 4
ENDMDL
MODEL 7
REMARK VINA RESULT:    -5.249      2.659      3.439
REMARK INTER + INTRA:          -6.682
REMARK INTER:                  -6.330
REMARK INTRA:                  -0.352
REMARK UNBOUND:                -0.359
REMARK  Name = 
REMARK  5 active torsions:
REMARK  status: ('A' for Active; 'I' for Inactive)
REMARK    1  A    between atoms: C_1  and  C_2
REMARK    2  A    between atoms: C_2  and  O_3
REMARK    3  A    between atoms: C_10  and  C_11
REMARK    4  A    between atoms: C_12  and  C_13
REMARK    5  A    between atoms: C_16  and  C_17
REMARK                            x       y       z     vdW  Elec       q    Type
REMARK                         _______ _______ _______ _____ _____    ______ ____
ROOT
ATOM      1  C   UNL     1      51.457   7.529  16.181  0.00  0.00    +0.000 C 
ATOM      2  C   UNL     1      50.638   8.329  17.204  0.00  0.00    +0.000 C 
ATOM      3  C   UNL     1      49.393   9.004  16.572  0.00  0.00    +0.000 C 
ATOM      4  N   UNL     1      49.779  10.142  15.745  0.00  0.00    +0.000 N 
ATOM      5  C   UNL     1      49.461  10.190  14.418  0.00  0.00    +0.000 A 
ATOM      6  N   UNL     1      49.847  11.246  13.687  0.00  0.00    +0.000 NA
ATOM      7  C   UNL     1      49.479  11.277  12.394  0.00  0.00    +0.000 A 
ATOM      8  C   UNL     1      48.742  10.289  11.791  0.00  0.00    +0.000 A 
ATOM      9  C   UNL     1      48.397   9.236  12.604  0.00  0.00    +0.000 A 
ATOM     10  N   UNL     1      48.756   9.177  13.899  0.00  0.00    +0.000 NA
ATOM     11  C   UNL     1      50.650  11.115  16.389  0.00  0.00    +0.000 C 
ATOM     12  C   UNL     1      51.855  10.394  17.014  0.00  0.00    +0.000 C 
ATOM     13  O   UNL     1      51.482   9.293  17.859  0.00  0.00    +0.000 OA
ENDROOT
BRANCH   2  14
ATOM     14  O   UNL     1      50.168   7.425  18.210  0.00  0.00    +0.000 OA
ATOM     15  H   UNL     1      49.776   6.659  17.761  0.00  0.00    +0.000 HD
ENDBRANCH   2  14
BRANCH   9  16
ATOM     16  C   UNL     1      47.587   8.126  12.087  0.00  0.00    +0.000 C 
ATOM     17  C   UNL     1      47.255   7.038  12.805  0.00  0.00    +0.000 C 
BRANCH  17  18
ATOM     18  C   UNL     1      46.410   5.957  12.305  0.00  0.00    +0.000 A 
ATOM     19  N   UNL     1      46.200   4.890  13.101  0.00  0.00    +0.000 NA
ATOM     20  C   UNL     1      45.448   3.896  12.588  0.00  0.00    +0.000 A 
ATOM     21  C   UNL     1      44.889   3.932  11.330  0.00  0.00    +0.000 A 
ATOM     22  C   UNL     1      45.168   5.063  10.594  0.00  0.00    +0.000 A 
ATOM     23  N   UNL     1      45.917   6.093  11.058  0.00  0.00    +0.000 NA
BRANCH  21  24
ATOM     24  C   UNL     1      44.087   2.798  10.850  0.00  0.00    +0.000 C 
ATOM     25  N   UNL     1      44.524   2.117   9.750  0.00  0.00    +0.000 N 
ATOM     26  O   UNL     1      43.038   2.497  11.402  0.00  0.00    +0.000 OA
ATOM     27  H   UNL     1      45.241   2.454   9.123  0.00  0.00    +0.000 HD
ATOM     28  H   UNL     1      43.891   1.413   9.389  0.00  0.00    +0.000 HD
ENDBRANCH  21  24
ENDBRANCH  17  18
ENDBRANCH   9  16
TORSDOF 4
ENDMDL
MODEL 8
REMARK VINA RESULT:    -4.929      2.335      2.973
REMARK INTER + INTRA:          -6.297
REMARK INTER:                  -6.006
REMARK INTRA:                  -0.291
REMARK UNBOUND:                -0.359
REMARK  Name = 
REMARK  5 active torsions:
REMARK  status: ('A' for Active; 'I' for Inactive)
REMARK    1  A    between atoms: C_1  and  C_2
REMARK    2  A    between atoms: C_2  and  O_3
REMARK    3  A    between atoms: C_10  and  C_11
REMARK    4  A    between atoms: C_12  and  C_13
REMARK    5  A    between atoms: C_16  and  C_17
REMARK                            x       y       z     vdW  Elec       q    Type
REMARK                         _______ _______ _______ _____ _____    ______ ____
ROOT
ATOM      1  C   UNL     1      53.232   6.534  16.004  0.00  0.00    +0.000 C 
ATOM      2  C   UNL     1      52.818   6.872  17.444  0.00  0.00    +0.000 C 
ATOM      3  C   UNL     1      51.354   7.375  17.539  0.00  0.00    +0.000 C 
ATOM      4  N   UNL     1      51.233   8.730  17.012  0.00  0.00    +0.000 N 
ATOM      5  C   UNL     1      50.395   9.009  15.970  0.00  0.00    +0.000 A 
ATOM      6  N   UNL     1      50.322  10.264  15.503  0.00  0.00    +0.000 NA
ATOM      7  C   UNL     1      49.455  10.507  14.504  0.00  0.00    +0.000 A 
ATOM      8  C   UNL     1      48.656   9.545  13.941  0.00  0.00    +0.000 A 
ATOM      9  C   UNL     1      48.798   8.283  14.467  0.00  0.00    +0.000 A 
ATOM     10  N   UNL     1      49.662   8.010  15.462  0.00  0.00    +0.000 NA
ATOM     11  C   UNL     1      52.171   9.699  17.558  0.00  0.00    +0.000 C 
ATOM     12  C   UNL     1      53.602   9.144  17.457  0.00  0.00    +0.000 C 
ATOM     13  O   UNL     1      53.738   7.823  18.006  0.00  0.00    +0.000 OA
ENDROOT
BRANCH   2  14
ATOM     14  O   UNL     1      52.910   5.678  18.230  0.00  0.00    +0.000 OA
ATOM     15  H   UNL     1      53.745   5.711  18.723  0.00  0.00    +0.000 HD
ENDBRANCH   2  14
BRANCH   9  16
ATOM     16  C   UNL     1      47.982   7.169  13.971  0.00  0.00    +0.000 C 
ATOM     17  C   UNL     1      47.256   7.213  12.839  0.00  0.00    +0.000 C 
BRANCH  17  18
ATOM     18  C   UNL     1      46.481   6.087  12.323  0.00  0.00    +0.000 A 
ATOM     19  N   UNL     1      45.956   6.188  11.086  0.00  0.00    +0.000 NA
ATOM     20  C   UNL     1      45.215   5.146  10.661  0.00  0.00    +0.000 A 
ATOM     21  C   UNL     1      44.994   4.011  11.408  0.00  0.00    +0.000 A 
ATOM     22  C   UNL     1      45.570   4.009  12.660  0.00  0.00    +0.000 A 
ATOM     23  N   UNL     1      46.324   5.027  13.139  0.00  0.00    +0.000 NA
BRANCH  21  24
ATOM     24  C   UNL     1      44.166   2.924  10.866  0.00  0.00    +0.000 C 
ATOM     25  N   UNL     1      44.670   2.178   9.840  0.00  0.00    +0.000 N 
ATOM     26  O   UNL     1      43.040   2.721  11.299  0.00  0.00    +0.000 OA
ATOM     27  H   UNL     1      45.477   2.440   9.292  0.00  0.00    +0.000 HD
ATOM     28  H   UNL     1      44.029   1.511   9.424  0.00  0.00    +0.000 HD
ENDBRANCH  21  24
ENDBRANCH  17  18
ENDBRANCH   9  16
TORSDOF 4
ENDMDL
