MODEL 1
REMARK VINA RESULT:    -7.741      0.000      0.000
REMARK INTER + INTRA:         -11.436
REMARK INTER:                 -11.136
REMARK INTRA:                  -0.300
REMARK UNBOUND:                -0.300
REMARK  Name = 
REMARK  8 active torsions:
REMARK  status: ('A' for Active; 'I' for Inactive)
REMARK    1  A    between atoms: N_1  and  C_2
REMARK    2  A    between atoms: C_2  and  C_3
REMARK    3  A    between atoms: C_2  and  C_19
REMARK    4  A    between atoms: C_3  and  N_4
REMARK    5  A    between atoms: C_7  and  N_8
REMARK    6  A    between atoms: N_8  and  C_9
REMARK    7  A    between atoms: C_9  and  C_10
REMARK    8  A    between atoms: C_10  and  N_11
REMARK                            x       y       z     vdW  Elec       q    Type
REMARK                         _______ _______ _______ _____ _____    ______ ____
ROOT
ATOM      1  N   UNL     1      46.457   5.185  14.407  0.00  0.00    +0.000 NA
ATOM      2  C   UNL     1      47.188   6.256  13.710  0.00  0.00    +0.000 C 
ATOM      3  C   UNL     1      46.247   7.187  12.946  0.00  0.00    +0.000 C 
ATOM      4  C   UNL     1      45.330   6.438  11.966  0.00  0.00    +0.000 C 
ATOM      5  C   UNL     1      44.619   5.327  12.755  0.00  0.00    +0.000 C 
ATOM      6  C   UNL     1      45.611   4.418  13.480  0.00  0.00    +0.000 C 
ENDROOT
BRANCH   4   7
ATOM      7  N   UNL     1      46.106   5.975  10.805  0.00  0.00    +0.000 NA
ATOM      8  H   UNL     1      46.904   5.423  11.123  0.00  0.00    +0.000 HD
BRANCH   7   9
ATOM      9  C   UNL     1      45.353   5.166   9.832  0.00  0.00    +0.000 C 
BRANCH   9  10
ATOM     10  C   UNL     1      46.106   4.853   8.514  0.00  0.00    +0.000 C 
BRANCH  10  11
ATOM     11  N   UNL     1      45.372   3.920   7.635  0.00  0.00    +0.000 NA
ATOM     12  C   UNL     1      44.598   2.900   8.367  0.00  0.00    +0.000 C 
ATOM     13  C   UNL     1      45.456   1.801   9.027  0.00  0.00    +0.000 C 
ATOM     14  N   UNL     1      46.305   1.092   8.054  0.00  0.00    +0.000 NA
ATOM     15  C   UNL     1      47.116   2.069   7.305  0.00  0.00    +0.000 C 
ATOM     16  C   UNL     1      46.297   3.236   6.698  0.00  0.00    +0.000 C 
ATOM     17  H   UNL     1      45.692   0.621   7.391  0.00  0.00    +0.000 HD
ENDBRANCH  10  11
ENDBRANCH   9  10
ENDBRANCH   7   9
ENDBRANCH   4   7
BRANCH   1  18
ATOM     18  C   UNL     1      47.384   4.278  15.122  0.00  0.00    +0.000 C 
BRANCH  18  19
ATOM     19  C   UNL     1      47.351   4.335  16.690  0.00  0.00    +0.000 C 
BRANCH  19  20
ATOM     20  C   UNL     1      48.750   4.557  17.236  0.00  0.00    +0.000 A 
ATOM     21  C   UNL     1      49.210   5.699  17.875  0.00  0.00    +0.000 A 
ATOM     22  S   UNL     1      50.809   5.552  18.459  0.00  0.00    +0.000 S 
ATOM     23  C   UNL     1      50.929   3.946  17.904  0.00  0.00    +0.000 A 
ATOM     24  N   UNL     1      52.035   3.193  18.151  0.00  0.00    +0.000 NA
ATOM     25  C   UNL     1      51.965   1.985  17.695  0.00  0.00    +0.000 A 
ATOM     26  N   UNL     1      50.905   1.470  16.993  0.00  0.00    +0.000 N 
ATOM     27  C   UNL     1      49.786   2.207  16.677  0.00  0.00    +0.000 A 
ATOM     28  O   UNL     1      48.884   1.739  15.993  0.00  0.00    +0.000 OA
ATOM     29  C   UNL     1      49.791   3.552  17.228  0.00  0.00    +0.000 A 
ATOM     30  H   UNL     1      50.929   0.527  16.638  0.00  0.00    +0.000 HD
ENDBRANCH  19  20
BRANCH  19  31
ATOM     31  N   UNL     1      46.766   3.129  17.284  0.00  0.00    +0.000 NA
ATOM     32  H   UNL     1      45.804   3.308  17.562  0.00  0.00    +0.000 HD
ATOM     33  H   UNL     1      47.298   2.847  18.101  0.00  0.00    +0.000 HD
ENDBRANCH  19  31
ENDBRANCH  18  19
ENDBRANCH   1  18
TORSDOF 8
ENDMDL
MODEL 2
REMARK VINA RESULT:    -7.554      2.133      2.532
REMARK INTER + INTRA:         -11.166
REMARK INTER:                 -10.862
REMARK INTRA:                  -0.303
REMARK UNBOUND:                -0.300
REMARK  Name = 
REMARK  8 active torsions:
REMARK  status: ('A' for Active; 'I' for Inactive)
REMARK    1  A    between atoms: N_1  and  C_2
REMARK    2  A    between atoms: C_2  and  C_3
REMARK    3  A    between atoms: C_2  and  C_19
REMARK    4  A    between atoms: C_3  and  N_4
REMARK    5  A    between atoms: C_7  and  N_8
REMARK    6  A    between atoms: N_8  and  C_9
REMARK    7  A    between atoms: C_9  and  C_10
REMARK    8  A    between atoms: C_10  and  N_11
REMARK                            x       y       z     vdW  Elec       q    Type
REMARK                         _______ _______ _______ _____ _____    ______ ____
ROOT
ATOM      1  N   UNL     1      45.585   6.025  13.138  0.00  0.00    +0.000 NA
ATOM      2  C   UNL     1      45.553   6.668  11.815  0.00  0.00    +0.000 C 
ATOM      3  C   UNL     1      44.140   7.098  11.421  0.00  0.00    +0.000 C 
ATOM      4  C   UNL     1      43.126   5.945  11.482  0.00  0.00    +0.000 C 
ATOM      5  C   UNL     1      43.229   5.310  12.879  0.00  0.00    +0.000 C 
ATOM      6  C   UNL     1      44.660   4.884  13.206  0.00  0.00    +0.000 C 
ENDROOT
BRANCH   4   7
ATOM      7  N   UNL     1      43.350   5.018  10.362  0.00  0.00    +0.000 NA
ATOM      8  H   UNL     1      44.110   5.365   9.776  0.00  0.00    +0.000 HD
BRANCH   7   9
ATOM      9  C   UNL     1      43.671   3.635  10.749  0.00  0.00    +0.000 C 
BRANCH   9  10
ATOM     10  C   UNL     1      44.881   3.009  10.010  0.00  0.00    +0.000 C 
BRANCH  10  11
ATOM     11  N   UNL     1      44.547   2.535   8.651  0.00  0.00    +0.000 NA
ATOM     12  C   UNL     1      45.180   1.249   8.300  0.00  0.00    +0.000 C 
ATOM     13  C   UNL     1      46.697   1.337   8.033  0.00  0.00    +0.000 C 
ATOM     14  N   UNL     1      47.024   2.292   6.962  0.00  0.00    +0.000 NA
ATOM     15  C   UNL     1      46.429   3.605   7.275  0.00  0.00    +0.000 C 
ATOM     16  C   UNL     1      44.922   3.545   7.630  0.00  0.00    +0.000 C 
ATOM     17  H   UNL     1      46.598   1.954   6.100  0.00  0.00    +0.000 HD
ENDBRANCH  10  11
ENDBRANCH   9  10
ENDBRANCH   7   9
ENDBRANCH   4   7
BRANCH   1  18
ATOM     18  C   UNL     1      46.957   5.593  13.494  0.00  0.00    +0.000 C 
BRANCH  18  19
ATOM     19  C   UNL     1      47.101   4.708  14.782  0.00  0.00    +0.000 C 
BRANCH  19  20
ATOM     20  C   UNL     1      48.112   5.326  15.733  0.00  0.00    +0.000 A 
ATOM     21  C   UNL     1      48.959   6.387  15.451  0.00  0.00    +0.000 A 
ATOM     22  S   UNL     1      49.883   6.892  16.797  0.00  0.00    +0.000 S 
ATOM     23  C   UNL     1      49.158   5.729  17.808  0.00  0.00    +0.000 A 
ATOM     24  N   UNL     1      49.447   5.667  19.136  0.00  0.00    +0.000 NA
ATOM     25  C   UNL     1      48.794   4.754  19.778  0.00  0.00    +0.000 A 
ATOM     26  N   UNL     1      47.902   3.881  19.210  0.00  0.00    +0.000 N 
ATOM     27  C   UNL     1      47.613   3.872  17.864  0.00  0.00    +0.000 A 
ATOM     28  O   UNL     1      46.861   3.038  17.376  0.00  0.00    +0.000 OA
ATOM     29  C   UNL     1      48.274   4.928  17.113  0.00  0.00    +0.000 A 
ATOM     30  H   UNL     1      47.450   3.170  19.764  0.00  0.00    +0.000 HD
ENDBRANCH  19  20
BRANCH  19  31
ATOM     31  N   UNL     1      47.482   3.326  14.475  0.00  0.00    +0.000 NA
ATOM     32  H   UNL     1      46.989   2.684  15.090  0.00  0.00    +0.000 HD
ATOM     33  H   UNL     1      48.481   3.201  14.601  0.00  0.00    +0.000 HD
ENDBRANCH  19  31
ENDBRANCH  18  19
ENDBRANCH   1  18
TORSDOF 8
ENDMDL
MODEL 3
REMARK VINA RESULT:    -7.027      3.404      8.169
REMARK INTER + INTRA:         -10.408
REMARK INTER:                  -9.375
REMARK INTRA:                  -1.033
REMARK UNBOUND:                -0.300
REMARK  Name = 
REMARK  8 active torsions:
REMARK  status: ('A' for Active; 'I' for Inactive)
REMARK    1  A    between atoms: N_1  and  C_2
REMARK    2  A    between atoms: C_2  and  C_3
REMARK    3  A    between atoms: C_2  and  C_19
REMARK    4  A    between atoms: C_3  and  N_4
REMARK    5  A    between atoms: C_7  and  N_8
REMARK    6  A    between atoms: N_8  and  C_9
REMARK    7  A    between atoms: C_9  and  C_10
REMARK    8  A    between atoms: C_10  and  N_11
REMARK                            x       y       z     vdW  Elec       q    Type
REMARK                         _______ _______ _______ _____ _____    ______ ____
ROOT
ATOM      1  N   UNL     1      48.445   7.882  12.707  0.00  0.00    +0.000 NA
ATOM      2  C   UNL     1      47.977   7.507  14.051  0.00  0.00    +0.000 C 
ATOM      3  C   UNL     1      48.755   8.230  15.150  0.00  0.00    +0.000 C 
ATOM      4  C   UNL     1      50.274   8.031  15.036  0.00  0.00    +0.000 C 
ATOM      5  C   UNL     1      50.687   8.420  13.607  0.00  0.00    +0.000 C 
ATOM      6  C   UNL     1      49.889   7.651  12.554  0.00  0.00    +0.000 C 
ENDROOT
BRANCH   4   7
ATOM      7  N   UNL     1      50.634   6.661  15.434  0.00  0.00    +0.000 NA
ATOM      8  H   UNL     1      51.520   6.399  14.999  0.00  0.00    +0.000 HD
BRANCH   7   9
ATOM      9  C   UNL     1      50.758   6.443  16.884  0.00  0.00    +0.000 C 
BRANCH   9  10
ATOM     10  C   UNL     1      49.676   5.524  17.507  0.00  0.00    +0.000 C 
BRANCH  10  11
ATOM     11  N   UNL     1      49.290   4.403  16.625  0.00  0.00    +0.000 NA
ATOM     12  C   UNL     1      47.928   4.525  16.072  0.00  0.00    +0.000 C 
ATOM     13  C   UNL     1      46.801   4.274  17.095  0.00  0.00    +0.000 C 
ATOM     14  N   UNL     1      46.901   2.947  17.725  0.00  0.00    +0.000 NA
ATOM     15  C   UNL     1      48.243   2.781  18.312  0.00  0.00    +0.000 C 
ATOM     16  C   UNL     1      49.402   3.106  17.337  0.00  0.00    +0.000 C 
ATOM     17  H   UNL     1      46.790   2.245  16.995  0.00  0.00    +0.000 HD
ENDBRANCH  10  11
ENDBRANCH   9  10
ENDBRANCH   7   9
ENDBRANCH   4   7
BRANCH   1  18
ATOM     18  C   UNL     1      47.697   7.155  11.655  0.00  0.00    +0.000 C 
BRANCH  18  19
ATOM     19  C   UNL     1      46.164   6.935  11.908  0.00  0.00    +0.000 C 
BRANCH  19  20
ATOM     20  C   UNL     1      45.627   5.862  10.977  0.00  0.00    +0.000 A 
ATOM     21  C   UNL     1      45.936   5.714   9.633  0.00  0.00    +0.000 A 
ATOM     22  S   UNL     1      45.233   4.325   8.926  0.00  0.00    +0.000 S 
ATOM     23  C   UNL     1      44.518   3.861  10.401  0.00  0.00    +0.000 A 
ATOM     24  N   UNL     1      43.824   2.697  10.515  0.00  0.00    +0.000 NA
ATOM     25  C   UNL     1      43.369   2.466  11.704  0.00  0.00    +0.000 A 
ATOM     26  N   UNL     1      43.520   3.305  12.779  0.00  0.00    +0.000 N 
ATOM     27  C   UNL     1      44.171   4.515  12.701  0.00  0.00    +0.000 A 
ATOM     28  O   UNL     1      44.233   5.271  13.662  0.00  0.00    +0.000 OA
ATOM     29  C   UNL     1      44.759   4.785  11.399  0.00  0.00    +0.000 A 
ATOM     30  H   UNL     1      43.111   3.078  13.672  0.00  0.00    +0.000 HD
ENDBRANCH  19  20
BRANCH  19  31
ATOM     31  N   UNL     1      45.386   8.169  11.754  0.00  0.00    +0.000 NA
ATOM     32  H   UNL     1      45.775   8.902  12.341  0.00  0.00    +0.000 HD
ATOM     33  H   UNL     1      44.420   8.009  12.020  0.00  0.00    +0.000 HD
ENDBRANCH  19  31
ENDBRANCH  18  19
ENDBRANCH   1  18
TORSDOF 8
ENDMDL
MODEL 4
REMARK VINA RESULT:    -6.918      2.819      4.189
REMARK INTER + INTRA:         -10.251
REMARK INTER:                  -9.066
REMARK INTRA:                  -1.186
REMARK UNBOUND:                -0.300
REMARK  Name = 
REMARK  8 active torsions:
REMARK  status: ('A' for Active; 'I' for Inactive)
REMARK    1  A    between atoms: N_1  and  C_2
REMARK    2  A    between atoms: C_2  and  C_3
REMARK    3  A    between atoms: C_2  and  C_19
REMARK    4  A    between atoms: C_3  and  N_4
REMARK    5  A    between atoms: C_7  and  N_8
REMARK    6  A    between atoms: N_8  and  C_9
REMARK    7  A    between atoms: C_9  and  C_10
REMARK    8  A    between atoms: C_10  and  N_11
REMARK                            x       y       z     vdW  Elec       q    Type
REMARK                         _______ _______ _______ _____ _____    ______ ____
ROOT
ATOM      1  N   UNL     1      48.808   8.393  13.476  0.00  0.00    +0.000 NA
ATOM      2  C   UNL     1      48.926   7.057  12.871  0.00  0.00    +0.000 C 
ATOM      3  C   UNL     1      47.726   6.723  11.984  0.00  0.00    +0.000 C 
ATOM      4  C   UNL     1      46.383   6.865  12.715  0.00  0.00    +0.000 C 
ATOM      5  C   UNL     1      46.340   8.271  13.336  0.00  0.00    +0.000 C 
ATOM      6  C   UNL     1      47.553   8.537  14.228  0.00  0.00    +0.000 C 
ENDROOT
BRANCH   4   7
ATOM      7  N   UNL     1      46.211   5.760  13.671  0.00  0.00    +0.000 NA
ATOM      8  H   UNL     1      46.029   6.136  14.603  0.00  0.00    +0.000 HD
BRANCH   7   9
ATOM      9  C   UNL     1      45.131   4.814  13.345  0.00  0.00    +0.000 C 
BRANCH   9  10
ATOM     10  C   UNL     1      45.533   3.659  12.392  0.00  0.00    +0.000 C 
BRANCH  10  11
ATOM     11  N   UNL     1      44.384   3.077  11.670  0.00  0.00    +0.000 NA
ATOM     12  C   UNL     1      44.690   2.697  10.278  0.00  0.00    +0.000 C 
ATOM     13  C   UNL     1      44.854   3.889   9.313  0.00  0.00    +0.000 C 
ATOM     14  N   UNL     1      43.661   4.751   9.279  0.00  0.00    +0.000 NA
ATOM     15  C   UNL     1      43.322   5.177  10.649  0.00  0.00    +0.000 C 
ATOM     16  C   UNL     1      43.231   4.012  11.667  0.00  0.00    +0.000 C 
ATOM     17  H   UNL     1      42.884   4.196   8.922  0.00  0.00    +0.000 HD
ENDBRANCH  10  11
ENDBRANCH   9  10
ENDBRANCH   7   9
ENDBRANCH   4   7
BRANCH   1  18
ATOM     18  C   UNL     1      49.965   8.691  14.352  0.00  0.00    +0.000 C 
BRANCH  18  19
ATOM     19  C   UNL     1      50.567   7.483  15.152  0.00  0.00    +0.000 C 
BRANCH  19  20
ATOM     20  C   UNL     1      50.170   7.572  16.615  0.00  0.00    +0.000 A 
ATOM     21  C   UNL     1      50.654   8.485  17.542  0.00  0.00    +0.000 A 
ATOM     22  S   UNL     1      49.898   8.363  19.070  0.00  0.00    +0.000 S 
ATOM     23  C   UNL     1      48.879   7.108  18.535  0.00  0.00    +0.000 A 
ATOM     24  N   UNL     1      47.916   6.586  19.340  0.00  0.00    +0.000 NA
ATOM     25  C   UNL     1      47.201   5.663  18.783  0.00  0.00    +0.000 A 
ATOM     26  N   UNL     1      47.380   5.195  17.506  0.00  0.00    +0.000 N 
ATOM     27  C   UNL     1      48.371   5.657  16.670  0.00  0.00    +0.000 A 
ATOM     28  O   UNL     1      48.547   5.174  15.558  0.00  0.00    +0.000 OA
ATOM     29  C   UNL     1      49.156   6.745  17.231  0.00  0.00    +0.000 A 
ATOM     30  H   UNL     1      46.807   4.450  17.144  0.00  0.00    +0.000 HD
ENDBRANCH  19  20
BRANCH  19  31
ATOM     31  N   UNL     1      52.027   7.401  15.033  0.00  0.00    +0.000 NA
ATOM     32  H   UNL     1      52.467   7.832  15.842  0.00  0.00    +0.000 HD
ATOM     33  H   UNL     1      52.337   7.880  14.194  0.00  0.00    +0.000 HD
ENDBRANCH  19  31
ENDBRANCH  18  19
ENDBRANCH   1  18
TORSDOF 8
ENDMDL
MODEL 5
REMARK VINA RESULT:    -6.808      2.490      3.441
REMARK INTER + INTRA:         -10.093
REMARK INTER:                  -9.212
REMARK INTRA:                  -0.880
REMARK UNBOUND:                -0.300
REMARK  Name = 
REMARK  8 active torsions:
REMARK  status: ('A' for Active; 'I' for Inactive)
REMARK    1  A    between atoms: N_1  and  C_2
REMARK    2  A    between atoms: C_2  and  C_3
REMARK    3  A    between atoms: C_2  and  C_19
REMARK    4  A    between atoms: C_3  and  N_4
REMARK    5  A    between atoms: C_7  and  N_8
REMARK    6  A    between atoms: N_8  and  C_9
REMARK    7  A    between atoms: C_9  and  C_10
REMARK    8  A    between atoms: C_10  and  N_11
REMARK                            x       y       z     vdW  Elec       q    Type
REMARK                         _______ _______ _______ _____ _____    ______ ____
ROOT
ATOM      1  N   UNL     1      48.281   5.139  15.631  0.00  0.00    +0.000 NA
ATOM      2  C   UNL     1      47.094   4.410  15.156  0.00  0.00    +0.000 C 
ATOM      3  C   UNL     1      46.990   4.421  13.630  0.00  0.00    +0.000 C 
ATOM      4  C   UNL     1      47.022   5.838  13.039  0.00  0.00    +0.000 C 
ATOM      5  C   UNL     1      48.271   6.543  13.593  0.00  0.00    +0.000 C 
ATOM      6  C   UNL     1      48.308   6.518  15.121  0.00  0.00    +0.000 C 
ENDROOT
BRANCH   4   7
ATOM      7  N   UNL     1      45.750   6.526  13.310  0.00  0.00    +0.000 NA
ATOM      8  H   UNL     1      45.935   7.426  13.754  0.00  0.00    +0.000 HD
BRANCH   7   9
ATOM      9  C   UNL     1      44.906   6.768  12.128  0.00  0.00    +0.000 C 
BRANCH   9  10
ATOM     10  C   UNL     1      45.083   5.748  10.974  0.00  0.00    +0.000 C 
BRANCH  10  11
ATOM     11  N   UNL     1      43.802   5.196  10.488  0.00  0.00    +0.000 NA
ATOM     12  C   UNL     1      42.949   4.646  11.559  0.00  0.00    +0.000 C 
ATOM     13  C   UNL     1      43.447   3.310  12.147  0.00  0.00    +0.000 C 
ATOM     14  N   UNL     1      43.590   2.264  11.120  0.00  0.00    +0.000 NA
ATOM     15  C   UNL     1      44.453   2.758  10.031  0.00  0.00    +0.000 C 
ATOM     16  C   UNL     1      44.032   4.140   9.471  0.00  0.00    +0.000 C 
ATOM     17  H   UNL     1      42.667   2.081  10.729  0.00  0.00    +0.000 HD
ENDBRANCH  10  11
ENDBRANCH   9  10
ENDBRANCH   7   9
ENDBRANCH   4   7
BRANCH   1  18
ATOM     18  C   UNL     1      48.354   5.141  17.111  0.00  0.00    +0.000 C 
BRANCH  18  19
ATOM     19  C   UNL     1      49.783   5.296  17.742  0.00  0.00    +0.000 C 
BRANCH  19  20
ATOM     20  C   UNL     1      50.519   3.969  17.708  0.00  0.00    +0.000 A 
ATOM     21  C   UNL     1      49.961   2.729  17.434  0.00  0.00    +0.000 A 
ATOM     22  S   UNL     1      51.112   1.467  17.371  0.00  0.00    +0.000 S 
ATOM     23  C   UNL     1      52.398   2.542  17.676  0.00  0.00    +0.000 A 
ATOM     24  N   UNL     1      53.690   2.117  17.677  0.00  0.00    +0.000 NA
ATOM     25  C   UNL     1      54.555   3.054  17.892  0.00  0.00    +0.000 A 
ATOM     26  N   UNL     1      54.246   4.369  18.133  0.00  0.00    +0.000 N 
ATOM     27  C   UNL     1      52.953   4.837  18.190  0.00  0.00    +0.000 A 
ATOM     28  O   UNL     1      52.706   6.003  18.473  0.00  0.00    +0.000 OA
ATOM     29  C   UNL     1      51.948   3.830  17.887  0.00  0.00    +0.000 A 
ATOM     30  H   UNL     1      54.970   5.043  18.325  0.00  0.00    +0.000 HD
ENDBRANCH  19  20
BRANCH  19  31
ATOM     31  N   UNL     1      49.738   5.809  19.115  0.00  0.00    +0.000 NA
ATOM     32  H   UNL     1      49.286   6.719  19.133  0.00  0.00    +0.000 HD
ATOM     33  H   UNL     1      50.678   5.900  19.486  0.00  0.00    +0.000 HD
ENDBRANCH  19  31
ENDBRANCH  18  19
ENDBRANCH   1  18
TORSDOF 8
ENDMDL
MODEL 6
REMARK VINA RESULT:    -6.704      3.341      8.802
REMARK INTER + INTRA:          -9.943
REMARK INTER:                  -9.639
REMARK INTRA:                  -0.304
REMARK UNBOUND:                -0.300
REMARK  Name = 
REMARK  8 active torsions:
REMARK  status: ('A' for Active; 'I' for Inactive)
REMARK    1  A    between atoms: N_1  and  C_2
REMARK    2  A    between atoms: C_2  and  C_3
REMARK    3  A    between atoms: C_2  and  C_19
REMARK    4  A    between atoms: C_3  and  N_4
REMARK    5  A    between atoms: C_7  and  N_8
REMARK    6  A    between atoms: N_8  and  C_9
REMARK    7  A    between atoms: C_9  and  C_10
REMARK    8  A    between atoms: C_10  and  N_11
REMARK                            x       y       z     vdW  Elec       q    Type
REMARK                         _______ _______ _______ _____ _____    ______ ____
ROOT
ATOM      1  N   UNL     1      47.816   7.583  12.341  0.00  0.00    +0.000 NA
ATOM      2  C   UNL     1      47.013   8.351  13.306  0.00  0.00    +0.000 C 
ATOM      3  C   UNL     1      47.888   9.167  14.258  0.00  0.00    +0.000 C 
ATOM      4  C   UNL     1      48.933   8.311  14.990  0.00  0.00    +0.000 C 
ATOM      5  C   UNL     1      49.716   7.525  13.926  0.00  0.00    +0.000 C 
ATOM      6  C   UNL     1      48.789   6.714  13.019  0.00  0.00    +0.000 C 
ENDROOT
BRANCH   4   7
ATOM      7  N   UNL     1      48.278   7.483  16.015  0.00  0.00    +0.000 NA
ATOM      8  H   UNL     1      47.494   6.979  15.599  0.00  0.00    +0.000 HD
BRANCH   7   9
ATOM      9  C   UNL     1      49.151   6.499  16.676  0.00  0.00    +0.000 C 
BRANCH   9  10
ATOM     10  C   UNL     1      49.060   6.474  18.223  0.00  0.00    +0.000 C 
BRANCH  10  11
ATOM     11  N   UNL     1      47.818   5.850  18.721  0.00  0.00    +0.000 NA
ATOM     12  C   UNL     1      47.785   5.681  20.186  0.00  0.00    +0.000 C 
ATOM     13  C   UNL     1      48.708   4.566  20.720  0.00  0.00    +0.000 C 
ATOM     14  N   UNL     1      48.408   3.255  20.121  0.00  0.00    +0.000 NA
ATOM     15  C   UNL     1      48.447   3.365  18.651  0.00  0.00    +0.000 C 
ATOM     16  C   UNL     1      47.596   4.528  18.083  0.00  0.00    +0.000 C 
ATOM     17  H   UNL     1      47.460   2.998  20.390  0.00  0.00    +0.000 HD
ENDBRANCH  10  11
ENDBRANCH   9  10
ENDBRANCH   7   9
ENDBRANCH   4   7
BRANCH   1  18
ATOM     18  C   UNL     1      46.954   6.779  11.443  0.00  0.00    +0.000 C 
BRANCH  18  19
ATOM     19  C   UNL     1      45.418   6.771  11.768  0.00  0.00    +0.000 C 
BRANCH  19  20
ATOM     20  C   UNL     1      44.894   5.346  11.785  0.00  0.00    +0.000 A 
ATOM     21  C   UNL     1      44.277   4.712  12.854  0.00  0.00    +0.000 A 
ATOM     22  S   UNL     1      43.713   3.144  12.477  0.00  0.00    +0.000 S 
ATOM     23  C   UNL     1      44.246   3.272  10.865  0.00  0.00    +0.000 A 
ATOM     24  N   UNL     1      44.005   2.287   9.959  0.00  0.00    +0.000 NA
ATOM     25  C   UNL     1      44.442   2.542   8.770  0.00  0.00    +0.000 A 
ATOM     26  N   UNL     1      45.123   3.677   8.410  0.00  0.00    +0.000 N 
ATOM     27  C   UNL     1      45.434   4.679   9.301  0.00  0.00    +0.000 A 
ATOM     28  O   UNL     1      46.100   5.651   8.965  0.00  0.00    +0.000 OA
ATOM     29  C   UNL     1      44.902   4.466  10.637  0.00  0.00    +0.000 A 
ATOM     30  H   UNL     1      45.465   3.799   7.470  0.00  0.00    +0.000 HD
ENDBRANCH  19  20
BRANCH  19  31
ATOM     31  N   UNL     1      44.640   7.580  10.825  0.00  0.00    +0.000 NA
ATOM     32  H   UNL     1      43.901   7.019  10.411  0.00  0.00    +0.000 HD
ATOM     33  H   UNL     1      45.240   7.933  10.087  0.00  0.00    +0.000 HD
ENDBRANCH  19  31
ENDBRANCH  18  19
ENDBRANCH   1  18
TORSDOF 8
ENDMDL
MODEL 7
REMARK VINA RESULT:    -6.678      2.656      4.921
REMARK INTER + INTRA:          -9.905
REMARK INTER:                  -9.284
REMARK INTRA:                  -0.621
REMARK UNBOUND:                -0.300
REMARK  Name = 
REMARK  8 active torsions:
REMARK  status: ('A' for Active; 'I' for Inactive)
REMARK    1  A    between atoms: N_1  and  C_2
REMARK    2  A    between atoms: C_2  and  C_3
REMARK    3  A    between atoms: C_2  and  C_19
REMARK    4  A    between atoms: C_3  and  N_4
REMARK    5  A    between atoms: C_7  and  N_8
REMARK    6  A    between atoms: N_8  and  C_9
REMARK    7  A    between atoms: C_9  and  C_10
REMARK    8  A    between atoms: C_10  and  N_11
REMARK                            x       y       z     vdW  Elec       q    Type
REMARK                         _______ _______ _______ _____ _____    ______ ____
ROOT
ATOM      1  N   UNL     1      49.343   4.118  18.527  0.00  0.00    +0.000 NA
ATOM      2  C   UNL     1      48.616   5.371  18.267  0.00  0.00    +0.000 C 
ATOM      3  C   UNL     1      47.156   5.117  17.889  0.00  0.00    +0.000 C 
ATOM      4  C   UNL     1      47.005   4.153  16.703  0.00  0.00    +0.000 C 
ATOM      5  C   UNL     1      47.803   2.882  17.034  0.00  0.00    +0.000 C 
ATOM      6  C   UNL     1      49.258   3.197  17.383  0.00  0.00    +0.000 C 
ENDROOT
BRANCH   4   7
ATOM      7  N   UNL     1      47.398   4.825  15.454  0.00  0.00    +0.000 NA
ATOM      8  H   UNL     1      48.415   4.815  15.365  0.00  0.00    +0.000 HD
BRANCH   7   9
ATOM      9  C   UNL     1      46.829   4.245  14.227  0.00  0.00    +0.000 C 
BRANCH   9  10
ATOM     10  C   UNL     1      45.636   5.028  13.622  0.00  0.00    +0.000 C 
BRANCH  10  11
ATOM     11  N   UNL     1      44.560   4.148  13.120  0.00  0.00    +0.000 NA
ATOM     12  C   UNL     1      44.888   3.477  11.848  0.00  0.00    +0.000 C 
ATOM     13  C   UNL     1      44.877   4.405  10.616  0.00  0.00    +0.000 C 
ATOM     14  N   UNL     1      43.580   5.079  10.434  0.00  0.00    +0.000 NA
ATOM     15  C   UNL     1      43.213   5.784  11.675  0.00  0.00    +0.000 C 
ATOM     16  C   UNL     1      43.294   4.904  12.948  0.00  0.00    +0.000 C 
ATOM     17  H   UNL     1      42.877   4.361  10.262  0.00  0.00    +0.000 HD
ENDBRANCH  10  11
ENDBRANCH   9  10
ENDBRANCH   7   9
ENDBRANCH   4   7
BRANCH   1  18
ATOM     18  C   UNL     1      50.761   4.380  18.867  0.00  0.00    +0.000 C 
BRANCH  18  19
ATOM     19  C   UNL     1      51.818   4.072  17.748  0.00  0.00    +0.000 C 
BRANCH  19  20
ATOM     20  C   UNL     1      53.050   3.424  18.354  0.00  0.00    +0.000 A 
ATOM     21  C   UNL     1      54.063   4.073  19.044  0.00  0.00    +0.000 A 
ATOM     22  S   UNL     1      55.237   3.009  19.684  0.00  0.00    +0.000 S 
ATOM     23  C   UNL     1      54.414   1.643  19.086  0.00  0.00    +0.000 A 
ATOM     24  N   UNL     1      54.849   0.382  19.352  0.00  0.00    +0.000 NA
ATOM     25  C   UNL     1      54.102  -0.551  18.858  0.00  0.00    +0.000 A 
ATOM     26  N   UNL     1      52.978  -0.339  18.100  0.00  0.00    +0.000 N 
ATOM     27  C   UNL     1      52.526   0.917  17.764  0.00  0.00    +0.000 A 
ATOM     28  O   UNL     1      51.557   1.073  17.032  0.00  0.00    +0.000 OA
ATOM     29  C   UNL     1      53.297   1.998  18.356  0.00  0.00    +0.000 A 
ATOM     30  H   UNL     1      52.459  -1.114  17.719  0.00  0.00    +0.000 HD
ENDBRANCH  19  20
BRANCH  19  31
ATOM     31  N   UNL     1      52.202   5.270  16.993  0.00  0.00    +0.000 NA
ATOM     32  H   UNL     1      53.081   5.639  17.348  0.00  0.00    +0.000 HD
ATOM     33  H   UNL     1      51.486   5.983  17.080  0.00  0.00    +0.000 HD
ENDBRANCH  19  31
ENDBRANCH  18  19
ENDBRANCH   1  18
TORSDOF 8
ENDMDL
MODEL 8
REMARK VINA RESULT:    -6.638      3.609      8.747
REMARK INTER + INTRA:          -9.848
REMARK INTER:                  -8.767
REMARK INTRA:                  -1.081
REMARK UNBOUND:                -0.300
REMARK  Name = 
REMARK  8 active torsions:
REMARK  status: ('A' for Active; 'I' for Inactive)
REMARK    1  A    between atoms: N_1  and  C_2
REMARK    2  A    between atoms: C_2  and  C_3
REMARK    3  A    between atoms: C_2  and  C_19
REMARK    4  A    between atoms: C_3  and  N_4
REMARK    5  A    between atoms: C_7  and  N_8
REMARK    6  A    between atoms: N_8  and  C_9
REMARK    7  A    between atoms: C_9  and  C_10
REMARK    8  A    between atoms: C_10  and  N_11
REMARK                            x       y       z     vdW  Elec       q    Type
REMARK                         _______ _______ _______ _____ _____    ______ ____
ROOT
ATOM      1  N   UNL     1      48.275   7.738  13.022  0.00  0.00    +0.000 NA
ATOM      2  C   UNL     1      48.140   9.084  13.600  0.00  0.00    +0.000 C 
ATOM      3  C   UNL     1      49.150   9.329  14.723  0.00  0.00    +0.000 C 
ATOM      4  C   UNL     1      49.086   8.262  15.826  0.00  0.00    +0.000 C 
ATOM      5  C   UNL     1      49.212   6.887  15.149  0.00  0.00    +0.000 C 
ATOM      6  C   UNL     1      48.165   6.694  14.052  0.00  0.00    +0.000 C 
ENDROOT
BRANCH   4   7
ATOM      7  N   UNL     1      47.871   8.446  16.636  0.00  0.00    +0.000 NA
ATOM      8  H   UNL     1      47.233   7.665  16.479  0.00  0.00    +0.000 HD
BRANCH   7   9
ATOM      9  C   UNL     1      48.098   8.562  18.085  0.00  0.00    +0.000 C 
BRANCH   9  10
ATOM     10  C   UNL     1      48.639   7.281  18.771  0.00  0.00    +0.000 C 
BRANCH  10  11
ATOM     11  N   UNL     1      47.570   6.431  19.335  0.00  0.00    +0.000 NA
ATOM     12  C   UNL     1      47.907   5.848  20.648  0.00  0.00    +0.000 C 
ATOM     13  C   UNL     1      48.953   4.715  20.592  0.00  0.00    +0.000 C 
ATOM     14  N   UNL     1      48.536   3.608  19.716  0.00  0.00    +0.000 NA
ATOM     15  C   UNL     1      48.204   4.137  18.380  0.00  0.00    +0.000 C 
ATOM     16  C   UNL     1      47.219   5.332  18.401  0.00  0.00    +0.000 C 
ATOM     17  H   UNL     1      47.689   3.201  20.110  0.00  0.00    +0.000 HD
ENDBRANCH  10  11
ENDBRANCH   9  10
ENDBRANCH   7   9
ENDBRANCH   4   7
BRANCH   1  18
ATOM     18  C   UNL     1      47.274   7.508  11.954  0.00  0.00    +0.000 C 
BRANCH  18  19
ATOM     19  C   UNL     1      45.929   6.825  12.389  0.00  0.00    +0.000 C 
BRANCH  19  20
ATOM     20  C   UNL     1      45.488   5.821  11.339  0.00  0.00    +0.000 A 
ATOM     21  C   UNL     1      45.876   5.802  10.008  0.00  0.00    +0.000 A 
ATOM     22  S   UNL     1      45.271   4.457   9.144  0.00  0.00    +0.000 S 
ATOM     23  C   UNL     1      44.494   3.840  10.529  0.00  0.00    +0.000 A 
ATOM     24  N   UNL     1      43.843   2.647  10.502  0.00  0.00    +0.000 NA
ATOM     25  C   UNL     1      43.332   2.296  11.637  0.00  0.00    +0.000 A 
ATOM     26  N   UNL     1      43.388   3.042  12.787  0.00  0.00    +0.000 N 
ATOM     27  C   UNL     1      43.994   4.276  12.852  0.00  0.00    +0.000 A 
ATOM     28  O   UNL     1      43.971   4.947  13.877  0.00  0.00    +0.000 OA
ATOM     29  C   UNL     1      44.642   4.680  11.615  0.00  0.00    +0.000 A 
ATOM     30  H   UNL     1      42.940   2.723  13.632  0.00  0.00    +0.000 HD
ENDBRANCH  19  20
BRANCH  19  31
ATOM     31  N   UNL     1      44.858   7.797  12.634  0.00  0.00    +0.000 NA
ATOM     32  H   UNL     1      44.335   7.537  13.465  0.00  0.00    +0.000 HD
ATOM     33  H   UNL     1      44.226   7.829  11.841  0.00  0.00    +0.000 HD
ENDBRANCH  19  31
ENDBRANCH  18  19
ENDBRANCH   1  18
TORSDOF 8
ENDMDL
MODEL 9
REMARK VINA RESULT:    -6.517      3.087      4.085
REMARK INTER + INTRA:          -9.674
REMARK INTER:                  -8.807
REMARK INTRA:                  -0.867
REMARK UNBOUND:                -0.300
REMARK  Name = 
REMARK  8 active torsions:
REMARK  status: ('A' for Active; 'I' for Inactive)
REMARK    1  A    between atoms: N_1  and  C_2
REMARK    2  A    between atoms: C_2  and  C_3
REMARK    3  A    between atoms: C_2  and  C_19
REMARK    4  A    between atoms: C_3  and  N_4
REMARK    5  A    between atoms: C_7  and  N_8
REMARK    6  A    between atoms: N_8  and  C_9
REMARK    7  A    between atoms: C_9  and  C_10
REMARK    8  A    between atoms: C_10  and  N_11
REMARK                            x       y       z     vdW  Elec       q    Type
REMARK                         _______ _______ _______ _____ _____    ______ ____
ROOT
ATOM      1  N   UNL     1      49.063   7.686  15.697  0.00  0.00    +0.000 NA
ATOM      2  C   UNL     1      48.583   6.643  14.777  0.00  0.00    +0.000 C 
ATOM      3  C   UNL     1      48.528   7.137  13.330  0.00  0.00    +0.000 C 
ATOM      4  C   UNL     1      47.697   8.419  13.169  0.00  0.00    +0.000 C 
ATOM      5  C   UNL     1      48.238   9.452  14.171  0.00  0.00    +0.000 C 
ATOM      6  C   UNL     1      48.250   8.908  15.599  0.00  0.00    +0.000 C 
ENDROOT
BRANCH   4   7
ATOM      7  N   UNL     1      46.265   8.112  13.307  0.00  0.00    +0.000 NA
ATOM      8  H   UNL     1      45.799   8.868  13.812  0.00  0.00    +0.000 HD
BRANCH   7   9
ATOM      9  C   UNL     1      45.545   7.903  12.041  0.00  0.00    +0.000 C 
BRANCH   9  10
ATOM     10  C   UNL     1      45.049   6.454  11.798  0.00  0.00    +0.000 C 
BRANCH  10  11
ATOM     11  N   UNL     1      44.734   5.733  13.048  0.00  0.00    +0.000 NA
ATOM     12  C   UNL     1      45.701   4.669  13.379  0.00  0.00    +0.000 C 
ATOM     13  C   UNL     1      45.602   3.417  12.483  0.00  0.00    +0.000 C 
ATOM     14  N   UNL     1      44.260   2.813  12.510  0.00  0.00    +0.000 NA
ATOM     15  C   UNL     1      43.253   3.833  12.167  0.00  0.00    +0.000 C 
ATOM     16  C   UNL     1      43.374   5.141  12.990  0.00  0.00    +0.000 C 
ATOM     17  H   UNL     1      44.076   2.501  13.463  0.00  0.00    +0.000 HD
ENDBRANCH  10  11
ENDBRANCH   9  10
ENDBRANCH   7   9
ENDBRANCH   4   7
BRANCH   1  18
ATOM     18  C   UNL     1      49.087   7.200  17.096  0.00  0.00    +0.000 C 
BRANCH  18  19
ATOM     19  C   UNL     1      50.300   6.289  17.501  0.00  0.00    +0.000 C 
BRANCH  19  20
ATOM     20  C   UNL     1      49.891   4.827  17.471  0.00  0.00    +0.000 A 
ATOM     21  C   UNL     1      48.613   4.338  17.249  0.00  0.00    +0.000 A 
ATOM     22  S   UNL     1      48.545   2.632  17.172  0.00  0.00    +0.000 S 
ATOM     23  C   UNL     1      50.226   2.493  17.403  0.00  0.00    +0.000 A 
ATOM     24  N   UNL     1      50.848   1.284  17.367  0.00  0.00    +0.000 NA
ATOM     25  C   UNL     1      52.130   1.343  17.526  0.00  0.00    +0.000 A 
ATOM     26  N   UNL     1      52.842   2.494  17.747  0.00  0.00    +0.000 N 
ATOM     27  C   UNL     1      52.253   3.734  17.841  0.00  0.00    +0.000 A 
ATOM     28  O   UNL     1      52.907   4.735  18.105  0.00  0.00    +0.000 OA
ATOM     29  C   UNL     1      50.819   3.725  17.600  0.00  0.00    +0.000 A 
ATOM     30  H   UNL     1      53.839   2.465  17.896  0.00  0.00    +0.000 HD
ENDBRANCH  19  20
BRANCH  19  31
ATOM     31  N   UNL     1      50.843   6.631  18.820  0.00  0.00    +0.000 NA
ATOM     32  H   UNL     1      51.615   7.285  18.720  0.00  0.00    +0.000 HD
ATOM     33  H   UNL     1      51.178   5.796  19.288  0.00  0.00    +0.000 HD
ENDBRANCH  19  31
ENDBRANCH  18  19
ENDBRANCH   1  18
TORSDOF 8
ENDMDL
