MODEL 1
REMARK VINA RESULT:    -7.105      0.000      0.000
REMARK INTER + INTRA:         -12.145
REMARK INTER:                 -10.636
REMARK INTRA:                  -1.510
REMARK UNBOUND:                -1.510
REMARK  Name = 
REMARK  11 active torsions:
REMARK  status: ('A' for Active; 'I' for Inactive)
REMARK    1  A    between atoms: C_1  and  C_2
REMARK    2  A    between atoms: C_2  and  N_3
REMARK    3  A    between atoms: C_2  and  C_19
REMARK    4  A    between atoms: N_3  and  C_4
REMARK    5  A    between atoms: C_4  and  C_5
REMARK    6  A    between atoms: C_8  and  C_9
REMARK    7  A    between atoms: C_9  and  O_10
REMARK    8  A    between atoms: C_9  and  C_11
REMARK    9  A    between atoms: C_11  and  N_12
REMARK   10  A    between atoms: C_19  and  C_21
REMARK   11  A    between atoms: N_27  and  C_28
REMARK                            x       y       z     vdW  Elec       q    Type
REMARK                         _______ _______ _______ _____ _____    ______ ____
ROOT
ATOM      1  N   UNL     1      47.054   7.468  11.923  0.00  0.00    +0.000 NA
ATOM      2  H   UNL     1      46.917   7.563  10.912  0.00  0.00    +0.000 HD
ENDROOT
BRANCH   1   4
ATOM      3  C   UNL     1      45.405   8.890  12.961  0.00  0.00    +0.000 C 
ATOM      4  C   UNL     1      45.723   7.447  12.571  0.00  0.00    +0.000 C 
BRANCH   4   5
ATOM      5  C   UNL     1      44.632   6.913  11.606  0.00  0.00    +0.000 C 
ATOM      6  O   UNL     1      43.948   7.700  10.945  0.00  0.00    +0.000 OA
BRANCH   5   7
ATOM      7  C   UNL     1      44.390   5.464  11.538  0.00  0.00    +0.000 A 
ATOM      8  C   UNL     1      43.683   4.770  12.506  0.00  0.00    +0.000 A 
ATOM      9  S   UNL     1      43.457   3.121  12.130  0.00  0.00    +0.000 S 
ATOM     10  C   UNL     1      44.307   3.282  10.666  0.00  0.00    +0.000 A 
ATOM     11  N   UNL     1      44.451   2.222   9.831  0.00  0.00    +0.000 NA
ATOM     12  C   UNL     1      45.089   2.485   8.740  0.00  0.00    +0.000 A 
ATOM     13  N   UNL     1      45.637   3.709   8.406  0.00  0.00    +0.000 N 
ATOM     14  C   UNL     1      46.350   3.866   7.158  0.00  0.00    +0.000 C 
ATOM     15  C   UNL     1      45.603   4.792   9.291  0.00  0.00    +0.000 A 
ATOM     16  O   UNL     1      46.259   5.815   9.109  0.00  0.00    +0.000 OA
ATOM     17  C   UNL     1      44.792   4.561  10.480  0.00  0.00    +0.000 A 
ENDBRANCH   5   7
ENDBRANCH   4   5
ENDBRANCH   1   4
BRANCH   1  18
ATOM     18  C   UNL     1      47.809   6.235  12.152  0.00  0.00    +0.000 C 
BRANCH  18  19
ATOM     19  C   UNL     1      47.804   5.888  13.620  0.00  0.00    +0.000 A 
ATOM     20  C   UNL     1      48.503   6.662  14.559  0.00  0.00    +0.000 A 
ATOM     21  C   UNL     1      48.536   6.285  15.906  0.00  0.00    +0.000 A 
ATOM     22  C   UNL     1      47.879   5.122  16.338  0.00  0.00    +0.000 A 
ATOM     23  C   UNL     1      47.143   4.387  15.402  0.00  0.00    +0.000 A 
ATOM     24  C   UNL     1      47.115   4.758  14.060  0.00  0.00    +0.000 A 
BRANCH  22  25
ATOM     25  C   UNL     1      47.965   4.699  17.794  0.00  0.00    +0.000 C 
BRANCH  25  26
ATOM     26  O   UNL     1      46.764   3.993  18.131  0.00  0.00    +0.000 OA
ATOM     27  H   UNL     1      46.908   3.063  17.884  0.00  0.00    +0.000 HD
ENDBRANCH  25  26
BRANCH  25  28
ATOM     28  C   UNL     1      49.177   3.789  18.171  0.00  0.00    +0.000 C 
BRANCH  28  29
ATOM     29  N   UNL     1      50.164   3.548  17.104  0.00  0.00    +0.000 NA
ATOM     30  C   UNL     1      51.505   4.029  17.443  0.00  0.00    +0.000 C 
ATOM     31  C   UNL     1      52.160   2.876  18.181  0.00  0.00    +0.000 C 
ATOM     32  O   UNL     1      51.451   1.694  17.798  0.00  0.00    +0.000 OA
ATOM     33  C   UNL     1      50.399   2.114  16.931  0.00  0.00    +0.000 C 
ENDBRANCH  28  29
ENDBRANCH  25  28
ENDBRANCH  22  25
ENDBRANCH  18  19
ENDBRANCH   1  18
TORSDOF 9
ENDMDL
MODEL 2
REMARK VINA RESULT:    -6.812      2.230      8.314
REMARK INTER + INTRA:         -11.706
REMARK INTER:                 -10.478
REMARK INTRA:                  -1.228
REMARK UNBOUND:                -1.510
REMARK  Name = 
REMARK  11 active torsions:
REMARK  status: ('A' for Active; 'I' for Inactive)
REMARK    1  A    between atoms: C_1  and  C_2
REMARK    2  A    between atoms: C_2  and  N_3
REMARK    3  A    between atoms: C_2  and  C_19
REMARK    4  A    between atoms: N_3  and  C_4
REMARK    5  A    between atoms: C_4  and  C_5
REMARK    6  A    between atoms: C_8  and  C_9
REMARK    7  A    between atoms: C_9  and  O_10
REMARK    8  A    between atoms: C_9  and  C_11
REMARK    9  A    between atoms: C_11  and  N_12
REMARK   10  A    between atoms: C_19  and  C_21
REMARK   11  A    between atoms: N_27  and  C_28
REMARK                            x       y       z     vdW  Elec       q    Type
REMARK                         _______ _______ _______ _____ _____    ______ ____
ROOT
ATOM      1  N   UNL     1      49.554   6.747  14.800  0.00  0.00    +0.000 NA
ATOM      2  H   UNL     1      50.278   6.973  14.110  0.00  0.00    +0.000 HD
ENDROOT
BRANCH   1   4
ATOM      3  C   UNL     1      49.969   8.554  16.343  0.00  0.00    +0.000 C 
ATOM      4  C   UNL     1      50.088   7.043  16.148  0.00  0.00    +0.000 C 
BRANCH   4   5
ATOM      5  C   UNL     1      49.281   6.307  17.250  0.00  0.00    +0.000 C 
ATOM      6  O   UNL     1      48.806   6.940  18.198  0.00  0.00    +0.000 OA
BRANCH   5   7
ATOM      7  C   UNL     1      49.145   4.846  17.176  0.00  0.00    +0.000 A 
ATOM      8  C   UNL     1      47.965   4.214  16.818  0.00  0.00    +0.000 A 
ATOM      9  S   UNL     1      48.111   2.518  16.707  0.00  0.00    +0.000 S 
ATOM     10  C   UNL     1      49.753   2.574  17.144  0.00  0.00    +0.000 A 
ATOM     11  N   UNL     1      50.491   1.438  17.204  0.00  0.00    +0.000 NA
ATOM     12  C   UNL     1      51.730   1.621  17.516  0.00  0.00    +0.000 A 
ATOM     13  N   UNL     1      52.310   2.840  17.813  0.00  0.00    +0.000 N 
ATOM     14  C   UNL     1      53.709   2.907  18.172  0.00  0.00    +0.000 C 
ATOM     15  C   UNL     1      51.555   4.016  17.869  0.00  0.00    +0.000 A 
ATOM     16  O   UNL     1      51.997   5.065  18.331  0.00  0.00    +0.000 OA
ATOM     17  C   UNL     1      50.180   3.859  17.410  0.00  0.00    +0.000 A 
ENDBRANCH   5   7
ENDBRANCH   4   5
ENDBRANCH   1   4
BRANCH   1  18
ATOM     18  C   UNL     1      48.372   7.549  14.476  0.00  0.00    +0.000 C 
BRANCH  18  19
ATOM     19  C   UNL     1      47.535   6.842  13.438  0.00  0.00    +0.000 A 
ATOM     20  C   UNL     1      47.090   7.501  12.281  0.00  0.00    +0.000 A 
ATOM     21  C   UNL     1      46.262   6.844  11.365  0.00  0.00    +0.000 A 
ATOM     22  C   UNL     1      45.855   5.519  11.591  0.00  0.00    +0.000 A 
ATOM     23  C   UNL     1      46.348   4.856  12.721  0.00  0.00    +0.000 A 
ATOM     24  C   UNL     1      47.166   5.511  13.638  0.00  0.00    +0.000 A 
BRANCH  22  25
ATOM     25  C   UNL     1      44.917   4.836  10.612  0.00  0.00    +0.000 C 
BRANCH  25  26
ATOM     26  O   UNL     1      43.673   5.546  10.608  0.00  0.00    +0.000 OA
ATOM     27  H   UNL     1      42.990   4.915  10.893  0.00  0.00    +0.000 HD
ENDBRANCH  25  26
BRANCH  25  28
ATOM     28  C   UNL     1      45.420   4.740   9.138  0.00  0.00    +0.000 C 
BRANCH  28  29
ATOM     29  N   UNL     1      44.790   3.702   8.303  0.00  0.00    +0.000 NA
ATOM     30  C   UNL     1      45.651   3.243   7.211  0.00  0.00    +0.000 C 
ATOM     31  C   UNL     1      46.483   2.124   7.811  0.00  0.00    +0.000 C 
ATOM     32  O   UNL     1      45.762   1.650   8.953  0.00  0.00    +0.000 OA
ATOM     33  C   UNL     1      44.600   2.469   9.068  0.00  0.00    +0.000 C 
ENDBRANCH  28  29
ENDBRANCH  25  28
ENDBRANCH  22  25
ENDBRANCH  18  19
ENDBRANCH   1  18
TORSDOF 9
ENDMDL
MODEL 3
REMARK VINA RESULT:    -6.654      2.163      8.140
REMARK INTER + INTRA:         -11.471
REMARK INTER:                 -10.340
REMARK INTRA:                  -1.131
REMARK UNBOUND:                -1.510
REMARK  Name = 
REMARK  11 active torsions:
REMARK  status: ('A' for Active; 'I' for Inactive)
REMARK    1  A    between atoms: C_1  and  C_2
REMARK    2  A    between atoms: C_2  and  N_3
REMARK    3  A    between atoms: C_2  and  C_19
REMARK    4  A    between atoms: N_3  and  C_4
REMARK    5  A    between atoms: C_4  and  C_5
REMARK    6  A    between atoms: C_8  and  C_9
REMARK    7  A    between atoms: C_9  and  O_10
REMARK    8  A    between atoms: C_9  and  C_11
REMARK    9  A    between atoms: C_11  and  N_12
REMARK   10  A    between atoms: C_19  and  C_21
REMARK   11  A    between atoms: N_27  and  C_28
REMARK                            x       y       z     vdW  Elec       q    Type
REMARK                         _______ _______ _______ _____ _____    ______ ____
ROOT
ATOM      1  N   UNL     1      49.383   6.606  15.150  0.00  0.00    +0.000 NA
ATOM      2  H   UNL     1      50.289   6.282  14.798  0.00  0.00    +0.000 HD
ENDROOT
BRANCH   1   4
ATOM      3  C   UNL     1      48.636   8.587  16.304  0.00  0.00    +0.000 C 
ATOM      4  C   UNL     1      49.619   7.419  16.363  0.00  0.00    +0.000 C 
BRANCH   4   5
ATOM      5  C   UNL     1      49.375   6.594  17.654  0.00  0.00    +0.000 C 
ATOM      6  O   UNL     1      49.473   7.130  18.762  0.00  0.00    +0.000 OA
BRANCH   5   7
ATOM      7  C   UNL     1      49.084   5.158  17.536  0.00  0.00    +0.000 A 
ATOM      8  C   UNL     1      47.809   4.661  17.321  0.00  0.00    +0.000 A 
ATOM      9  S   UNL     1      47.767   2.967  17.117  0.00  0.00    +0.000 S 
ATOM     10  C   UNL     1      49.451   2.845  17.319  0.00  0.00    +0.000 A 
ATOM     11  N   UNL     1      50.073   1.643  17.224  0.00  0.00    +0.000 NA
ATOM     12  C   UNL     1      51.355   1.693  17.366  0.00  0.00    +0.000 A 
ATOM     13  N   UNL     1      52.089   2.833  17.631  0.00  0.00    +0.000 N 
ATOM     14  C   UNL     1      53.524   2.749  17.791  0.00  0.00    +0.000 C 
ATOM     15  C   UNL     1      51.470   4.069  17.844  0.00  0.00    +0.000 A 
ATOM     16  O   UNL     1      52.074   5.044  18.285  0.00  0.00    +0.000 OA
ATOM     17  C   UNL     1      50.037   4.068  17.578  0.00  0.00    +0.000 A 
ENDBRANCH   5   7
ENDBRANCH   4   5
ENDBRANCH   1   4
BRANCH   1  18
ATOM     18  C   UNL     1      48.742   7.370  14.077  0.00  0.00    +0.000 C 
BRANCH  18  19
ATOM     19  C   UNL     1      47.426   6.734  13.702  0.00  0.00    +0.000 A 
ATOM     20  C   UNL     1      47.158   5.384  13.981  0.00  0.00    +0.000 A 
ATOM     21  C   UNL     1      45.956   4.800  13.566  0.00  0.00    +0.000 A 
ATOM     22  C   UNL     1      45.004   5.550  12.858  0.00  0.00    +0.000 A 
ATOM     23  C   UNL     1      45.261   6.908  12.631  0.00  0.00    +0.000 A 
ATOM     24  C   UNL     1      46.459   7.488  13.037  0.00  0.00    +0.000 A 
BRANCH  22  25
ATOM     25  C   UNL     1      43.726   4.890  12.372  0.00  0.00    +0.000 C 
BRANCH  25  26
ATOM     26  O   UNL     1      42.645   5.813  12.548  0.00  0.00    +0.000 OA
ATOM     27  H   UNL     1      42.544   6.289  11.706  0.00  0.00    +0.000 HD
ENDBRANCH  25  26
BRANCH  25  28
ATOM     28  C   UNL     1      43.721   4.425  10.881  0.00  0.00    +0.000 C 
BRANCH  28  29
ATOM     29  N   UNL     1      44.994   3.892  10.363  0.00  0.00    +0.000 NA
ATOM     30  C   UNL     1      44.830   2.646   9.613  0.00  0.00    +0.000 C 
ATOM     31  C   UNL     1      44.540   3.080   8.188  0.00  0.00    +0.000 C 
ATOM     32  O   UNL     1      45.042   4.414   8.061  0.00  0.00    +0.000 OA
ATOM     33  C   UNL     1      45.549   4.781   9.343  0.00  0.00    +0.000 C 
ENDBRANCH  28  29
ENDBRANCH  25  28
ENDBRANCH  22  25
ENDBRANCH  18  19
ENDBRANCH   1  18
TORSDOF 9
ENDMDL
MODEL 4
REMARK VINA RESULT:    -6.621      3.128      8.816
REMARK INTER + INTRA:         -11.420
REMARK INTER:                 -10.103
REMARK INTRA:                  -1.317
REMARK UNBOUND:                -1.510
REMARK  Name = 
REMARK  11 active torsions:
REMARK  status: ('A' for Active; 'I' for Inactive)
REMARK    1  A    between atoms: C_1  and  C_2
REMARK    2  A    between atoms: C_2  and  N_3
REMARK    3  A    between atoms: C_2  and  C_19
REMARK    4  A    between atoms: N_3  and  C_4
REMARK    5  A    between atoms: C_4  and  C_5
REMARK    6  A    between atoms: C_8  and  C_9
REMARK    7  A    between atoms: C_9  and  O_10
REMARK    8  A    between atoms: C_9  and  C_11
REMARK    9  A    between atoms: C_11  and  N_12
REMARK   10  A    between atoms: C_19  and  C_21
REMARK   11  A    between atoms: N_27  and  C_28
REMARK                            x       y       z     vdW  Elec       q    Type
REMARK                         _______ _______ _______ _____ _____    ______ ____
ROOT
ATOM      1  N   UNL     1      48.197   4.532  15.891  0.00  0.00    +0.000 NA
ATOM      2  H   UNL     1      49.206   4.526  16.074  0.00  0.00    +0.000 HD
ENDROOT
BRANCH   1   4
ATOM      3  C   UNL     1      47.144   2.982  17.411  0.00  0.00    +0.000 C 
ATOM      4  C   UNL     1      47.490   4.454  17.189  0.00  0.00    +0.000 C 
BRANCH   4   5
ATOM      5  C   UNL     1      48.382   4.963  18.352  0.00  0.00    +0.000 C 
ATOM      6  O   UNL     1      48.757   4.185  19.233  0.00  0.00    +0.000 OA
BRANCH   5   7
ATOM      7  C   UNL     1      48.721   6.392  18.415  0.00  0.00    +0.000 A 
ATOM      8  C   UNL     1      47.903   7.337  19.011  0.00  0.00    +0.000 A 
ATOM      9  S   UNL     1      48.583   8.902  19.039  0.00  0.00    +0.000 S 
ATOM     10  C   UNL     1      49.988   8.367  18.246  0.00  0.00    +0.000 A 
ATOM     11  N   UNL     1      51.007   9.225  17.990  0.00  0.00    +0.000 NA
ATOM     12  C   UNL     1      52.027   8.686  17.412  0.00  0.00    +0.000 A 
ATOM     13  N   UNL     1      52.124   7.362  17.026  0.00  0.00    +0.000 N 
ATOM     14  C   UNL     1      53.318   6.887  16.363  0.00  0.00    +0.000 C 
ATOM     15  C   UNL     1      51.051   6.476  17.174  0.00  0.00    +0.000 A 
ATOM     16  O   UNL     1      51.036   5.364  16.653  0.00  0.00    +0.000 OA
ATOM     17  C   UNL     1      49.930   7.025  17.926  0.00  0.00    +0.000 A 
ENDBRANCH   5   7
ENDBRANCH   4   5
ENDBRANCH   1   4
BRANCH   1  18
ATOM     18  C   UNL     1      47.890   5.760  15.157  0.00  0.00    +0.000 C 
BRANCH  18  19
ATOM     19  C   UNL     1      47.095   5.437  13.916  0.00  0.00    +0.000 A 
ATOM     20  C   UNL     1      46.888   6.391  12.907  0.00  0.00    +0.000 A 
ATOM     21  C   UNL     1      46.094   6.088  11.796  0.00  0.00    +0.000 A 
ATOM     22  C   UNL     1      45.484   4.830  11.676  0.00  0.00    +0.000 A 
ATOM     23  C   UNL     1      45.739   3.870  12.662  0.00  0.00    +0.000 A 
ATOM     24  C   UNL     1      46.524   4.172  13.772  0.00  0.00    +0.000 A 
BRANCH  22  25
ATOM     25  C   UNL     1      44.585   4.532  10.489  0.00  0.00    +0.000 C 
BRANCH  25  26
ATOM     26  O   UNL     1      43.556   5.528  10.440  0.00  0.00    +0.000 OA
ATOM     27  H   UNL     1      42.722   5.080  10.661  0.00  0.00    +0.000 HD
ENDBRANCH  25  26
BRANCH  25  28
ATOM     28  C   UNL     1      45.285   4.497   9.094  0.00  0.00    +0.000 C 
BRANCH  28  29
ATOM     29  N   UNL     1      44.811   3.466   8.154  0.00  0.00    +0.000 NA
ATOM     30  C   UNL     1      45.767   3.181   7.084  0.00  0.00    +0.000 C 
ATOM     31  C   UNL     1      46.683   2.111   7.650  0.00  0.00    +0.000 C 
ATOM     32  O   UNL     1      45.961   1.482   8.713  0.00  0.00    +0.000 OA
ATOM     33  C   UNL     1      44.715   2.166   8.819  0.00  0.00    +0.000 C 
ENDBRANCH  28  29
ENDBRANCH  25  28
ENDBRANCH  22  25
ENDBRANCH  18  19
ENDBRANCH   1  18
TORSDOF 9
ENDMDL
MODEL 5
REMARK VINA RESULT:    -6.393      3.284      7.766
REMARK INTER + INTRA:         -11.079
REMARK INTER:                  -9.075
REMARK INTRA:                  -2.004
REMARK UNBOUND:                -1.510
REMARK  Name = 
REMARK  11 active torsions:
REMARK  status: ('A' for Active; 'I' for Inactive)
REMARK    1  A    between atoms: C_1  and  C_2
REMARK    2  A    between atoms: C_2  and  N_3
REMARK    3  A    between atoms: C_2  and  C_19
REMARK    4  A    between atoms: N_3  and  C_4
REMARK    5  A    between atoms: C_4  and  C_5
REMARK    6  A    between atoms: C_8  and  C_9
REMARK    7  A    between atoms: C_9  and  O_10
REMARK    8  A    between atoms: C_9  and  C_11
REMARK    9  A    between atoms: C_11  and  N_12
REMARK   10  A    between atoms: C_19  and  C_21
REMARK   11  A    between atoms: N_27  and  C_28
REMARK                            x       y       z     vdW  Elec       q    Type
REMARK                         _______ _______ _______ _____ _____    ______ ____
ROOT
ATOM      1  N   UNL     1      50.132   7.785  13.510  0.00  0.00    +0.000 NA
ATOM      2  H   UNL     1      50.980   7.305  13.193  0.00  0.00    +0.000 HD
ENDROOT
BRANCH   1   4
ATOM      3  C   UNL     1      50.637  10.117  13.858  0.00  0.00    +0.000 C 
ATOM      4  C   UNL     1      50.514   8.762  14.553  0.00  0.00    +0.000 C 
BRANCH   4   5
ATOM      5  C   UNL     1      49.443   8.844  15.673  0.00  0.00    +0.000 C 
ATOM      6  O   UNL     1      48.455   9.571  15.534  0.00  0.00    +0.000 OA
BRANCH   5   7
ATOM      7  C   UNL     1      49.655   8.090  16.916  0.00  0.00    +0.000 A 
ATOM      8  C   UNL     1      50.275   8.631  18.031  0.00  0.00    +0.000 A 
ATOM      9  S   UNL     1      50.297   7.577  19.373  0.00  0.00    +0.000 S 
ATOM     10  C   UNL     1      49.488   6.361  18.502  0.00  0.00    +0.000 A 
ATOM     11  N   UNL     1      49.163   5.186  19.096  0.00  0.00    +0.000 NA
ATOM     12  C   UNL     1      48.523   4.362  18.336  0.00  0.00    +0.000 A 
ATOM     13  N   UNL     1      48.198   4.581  17.010  0.00  0.00    +0.000 N 
ATOM     14  C   UNL     1      47.497   3.563  16.260  0.00  0.00    +0.000 C 
ATOM     15  C   UNL     1      48.613   5.734  16.336  0.00  0.00    +0.000 A 
ATOM     16  O   UNL     1      48.521   5.855  15.117  0.00  0.00    +0.000 OA
ATOM     17  C   UNL     1      49.237   6.732  17.196  0.00  0.00    +0.000 A 
ENDBRANCH   5   7
ENDBRANCH   4   5
ENDBRANCH   1   4
BRANCH   1  18
ATOM     18  C   UNL     1      49.522   8.421  12.340  0.00  0.00    +0.000 C 
BRANCH  18  19
ATOM     19  C   UNL     1      48.074   8.013  12.225  0.00  0.00    +0.000 A 
ATOM     20  C   UNL     1      47.705   6.707  11.866  0.00  0.00    +0.000 A 
ATOM     21  C   UNL     1      46.357   6.370  11.703  0.00  0.00    +0.000 A 
ATOM     22  C   UNL     1      45.353   7.334  11.885  0.00  0.00    +0.000 A 
ATOM     23  C   UNL     1      45.729   8.619  12.293  0.00  0.00    +0.000 A 
ATOM     24  C   UNL     1      47.071   8.957  12.449  0.00  0.00    +0.000 A 
BRANCH  22  25
ATOM     25  C   UNL     1      43.897   6.965  11.657  0.00  0.00    +0.000 C 
BRANCH  25  26
ATOM     26  O   UNL     1      43.262   8.045  10.963  0.00  0.00    +0.000 OA
ATOM     27  H   UNL     1      43.667   8.087  10.080  0.00  0.00    +0.000 HD
ENDBRANCH  25  26
BRANCH  25  28
ATOM     28  C   UNL     1      43.644   5.657  10.843  0.00  0.00    +0.000 C 
BRANCH  28  29
ATOM     29  N   UNL     1      42.938   4.577  11.555  0.00  0.00    +0.000 NA
ATOM     30  C   UNL     1      43.510   3.253  11.301  0.00  0.00    +0.000 C 
ATOM     31  C   UNL     1      44.606   3.094  12.339  0.00  0.00    +0.000 C 
ATOM     32  O   UNL     1      44.294   4.003  13.400  0.00  0.00    +0.000 OA
ATOM     33  C   UNL     1      43.119   4.706  13.001  0.00  0.00    +0.000 C 
ENDBRANCH  28  29
ENDBRANCH  25  28
ENDBRANCH  22  25
ENDBRANCH  18  19
ENDBRANCH   1  18
TORSDOF 9
ENDMDL
MODEL 6
REMARK VINA RESULT:    -6.191      2.920      8.265
REMARK INTER + INTRA:         -10.776
REMARK INTER:                  -9.446
REMARK INTRA:                  -1.330
REMARK UNBOUND:                -1.510
REMARK  Name = 
REMARK  11 active torsions:
REMARK  status: ('A' for Active; 'I' for Inactive)
REMARK    1  A    between atoms: C_1  and  C_2
REMARK    2  A    between atoms: C_2  and  N_3
REMARK    3  A    between atoms: C_2  and  C_19
REMARK    4  A    between atoms: N_3  and  C_4
REMARK    5  A    between atoms: C_4  and  C_5
REMARK    6  A    between atoms: C_8  and  C_9
REMARK    7  A    between atoms: C_9  and  O_10
REMARK    8  A    between atoms: C_9  and  C_11
REMARK    9  A    between atoms: C_11  and  N_12
REMARK   10  A    between atoms: C_19  and  C_21
REMARK   11  A    between atoms: N_27  and  C_28
REMARK                            x       y       z     vdW  Elec       q    Type
REMARK                         _______ _______ _______ _____ _____    ______ ____
ROOT
ATOM      1  N   UNL     1      48.824   8.088  15.290  0.00  0.00    +0.000 NA
ATOM      2  H   UNL     1      49.513   7.627  14.689  0.00  0.00    +0.000 HD
ENDROOT
BRANCH   1   4
ATOM      3  C   UNL     1      48.648  10.064  16.662  0.00  0.00    +0.000 C 
ATOM      4  C   UNL     1      49.552   8.887  16.302  0.00  0.00    +0.000 C 
BRANCH   4   5
ATOM      5  C   UNL     1      49.854   8.050  17.573  0.00  0.00    +0.000 C 
ATOM      6  O   UNL     1      49.446   8.426  18.676  0.00  0.00    +0.000 OA
BRANCH   5   7
ATOM      7  C   UNL     1      50.681   6.841  17.449  0.00  0.00    +0.000 A 
ATOM      8  C   UNL     1      52.065   6.871  17.431  0.00  0.00    +0.000 A 
ATOM      9  S   UNL     1      52.777   5.320  17.386  0.00  0.00    +0.000 S 
ATOM     10  C   UNL     1      51.255   4.561  17.379  0.00  0.00    +0.000 A 
ATOM     11  N   UNL     1      51.158   3.208  17.378  0.00  0.00    +0.000 NA
ATOM     12  C   UNL     1      49.948   2.760  17.404  0.00  0.00    +0.000 A 
ATOM     13  N   UNL     1      48.804   3.536  17.398  0.00  0.00    +0.000 N 
ATOM     14  C   UNL     1      47.503   2.906  17.406  0.00  0.00    +0.000 C 
ATOM     15  C   UNL     1      48.866   4.929  17.287  0.00  0.00    +0.000 A 
ATOM     16  O   UNL     1      47.874   5.619  17.068  0.00  0.00    +0.000 OA
ATOM     17  C   UNL     1      50.217   5.471  17.371  0.00  0.00    +0.000 A 
ENDBRANCH   5   7
ENDBRANCH   4   5
ENDBRANCH   1   4
BRANCH   1  18
ATOM     18  C   UNL     1      47.971   8.912  14.432  0.00  0.00    +0.000 C 
BRANCH  18  19
ATOM     19  C   UNL     1      47.164   8.035  13.508  0.00  0.00    +0.000 A 
ATOM     20  C   UNL     1      45.972   8.487  12.921  0.00  0.00    +0.000 A 
ATOM     21  C   UNL     1      45.207   7.634  12.119  0.00  0.00    +0.000 A 
ATOM     22  C   UNL     1      45.614   6.309  11.895  0.00  0.00    +0.000 A 
ATOM     23  C   UNL     1      46.830   5.885  12.443  0.00  0.00    +0.000 A 
ATOM     24  C   UNL     1      47.588   6.731  13.247  0.00  0.00    +0.000 A 
BRANCH  22  25
ATOM     25  C   UNL     1      44.749   5.380  11.062  0.00  0.00    +0.000 C 
BRANCH  25  26
ATOM     26  O   UNL     1      43.564   6.088  10.679  0.00  0.00    +0.000 OA
ATOM     27  H   UNL     1      43.716   6.420   9.778  0.00  0.00    +0.000 HD
ENDBRANCH  25  26
BRANCH  25  28
ATOM     28  C   UNL     1      45.409   4.812   9.765  0.00  0.00    +0.000 C 
BRANCH  28  29
ATOM     29  N   UNL     1      44.588   3.878   8.974  0.00  0.00    +0.000 NA
ATOM     30  C   UNL     1      45.167   3.572   7.666  0.00  0.00    +0.000 C 
ATOM     31  C   UNL     1      46.097   2.398   7.914  0.00  0.00    +0.000 C 
ATOM     32  O   UNL     1      45.650   1.775   9.122  0.00  0.00    +0.000 OA
ATOM     33  C   UNL     1      44.558   2.557   9.602  0.00  0.00    +0.000 C 
ENDBRANCH  28  29
ENDBRANCH  25  28
ENDBRANCH  22  25
ENDBRANCH  18  19
ENDBRANCH   1  18
TORSDOF 9
ENDMDL
MODEL 7
REMARK VINA RESULT:    -6.110      2.956      7.887
REMARK INTER + INTRA:         -10.655
REMARK INTER:                  -9.002
REMARK INTRA:                  -1.653
REMARK UNBOUND:                -1.510
REMARK  Name = 
REMARK  11 active torsions:
REMARK  status: ('A' for Active; 'I' for Inactive)
REMARK    1  A    between atoms: C_1  and  C_2
REMARK    2  A    between atoms: C_2  and  N_3
REMARK    3  A    between atoms: C_2  and  C_19
REMARK    4  A    between atoms: N_3  and  C_4
REMARK    5  A    between atoms: C_4  and  C_5
REMARK    6  A    between atoms: C_8  and  C_9
REMARK    7  A    between atoms: C_9  and  O_10
REMARK    8  A    between atoms: C_9  and  C_11
REMARK    9  A    between atoms: C_11  and  N_12
REMARK   10  A    between atoms: C_19  and  C_21
REMARK   11  A    between atoms: N_27  and  C_28
REMARK                            x       y       z     vdW  Elec       q    Type
REMARK                         _______ _______ _______ _____ _____    ______ ____
ROOT
ATOM      1  N   UNL     1      50.906   6.984  15.198  0.00  0.00    +0.000 NA
ATOM      2  H   UNL     1      51.541   6.238  14.897  0.00  0.00    +0.000 HD
ENDROOT
BRANCH   1   4
ATOM      3  C   UNL     1      51.017   9.202  16.138  0.00  0.00    +0.000 C 
ATOM      4  C   UNL     1      51.594   7.790  16.231  0.00  0.00    +0.000 C 
BRANCH   4   5
ATOM      5  C   UNL     1      51.349   7.217  17.653  0.00  0.00    +0.000 C 
ATOM      6  O   UNL     1      52.304   6.945  18.385  0.00  0.00    +0.000 OA
BRANCH   5   7
ATOM      7  C   UNL     1      49.969   6.952  18.084  0.00  0.00    +0.000 A 
ATOM      8  C   UNL     1      49.188   7.890  18.738  0.00  0.00    +0.000 A 
ATOM      9  S   UNL     1      47.593   7.360  19.030  0.00  0.00    +0.000 S 
ATOM     10  C   UNL     1      47.900   5.855  18.301  0.00  0.00    +0.000 A 
ATOM     11  N   UNL     1      46.917   4.926  18.192  0.00  0.00    +0.000 NA
ATOM     12  C   UNL     1      47.272   3.841  17.590  0.00  0.00    +0.000 A 
ATOM     13  N   UNL     1      48.539   3.568  17.109  0.00  0.00    +0.000 N 
ATOM     14  C   UNL     1      48.813   2.298  16.473  0.00  0.00    +0.000 C 
ATOM     15  C   UNL     1      49.602   4.456  17.302  0.00  0.00    +0.000 A 
ATOM     16  O   UNL     1      50.769   4.149  17.074  0.00  0.00    +0.000 OA
ATOM     17  C   UNL     1      49.208   5.737  17.874  0.00  0.00    +0.000 A 
ENDBRANCH   5   7
ENDBRANCH   4   5
ENDBRANCH   1   4
BRANCH   1  18
ATOM     18  C   UNL     1      50.556   7.769  14.013  0.00  0.00    +0.000 C 
BRANCH  18  19
ATOM     19  C   UNL     1      49.147   7.449  13.577  0.00  0.00    +0.000 A 
ATOM     20  C   UNL     1      48.589   8.020  12.422  0.00  0.00    +0.000 A 
ATOM     21  C   UNL     1      47.260   7.758  12.073  0.00  0.00    +0.000 A 
ATOM     22  C   UNL     1      46.461   6.928  12.875  0.00  0.00    +0.000 A 
ATOM     23  C   UNL     1      47.044   6.323  13.995  0.00  0.00    +0.000 A 
ATOM     24  C   UNL     1      48.364   6.589  14.348  0.00  0.00    +0.000 A 
BRANCH  22  25
ATOM     25  C   UNL     1      45.006   6.692  12.509  0.00  0.00    +0.000 C 
BRANCH  25  26
ATOM     26  O   UNL     1      44.406   7.956  12.205  0.00  0.00    +0.000 OA
ATOM     27  H   UNL     1      45.115   8.620  12.248  0.00  0.00    +0.000 HD
ENDBRANCH  25  26
BRANCH  25  28
ATOM     28  C   UNL     1      44.752   5.737  11.301  0.00  0.00    +0.000 C 
BRANCH  28  29
ATOM     29  N   UNL     1      43.462   5.024  11.296  0.00  0.00    +0.000 NA
ATOM     30  C   UNL     1      43.589   3.610  10.939  0.00  0.00    +0.000 C 
ATOM     31  C   UNL     1      43.872   2.898  12.250  0.00  0.00    +0.000 C 
ATOM     32  O   UNL     1      43.398   3.760  13.289  0.00  0.00    +0.000 OA
ATOM     33  C   UNL     1      42.914   4.940  12.650  0.00  0.00    +0.000 C 
ENDBRANCH  28  29
ENDBRANCH  25  28
ENDBRANCH  22  25
ENDBRANCH  18  19
ENDBRANCH   1  18
TORSDOF 9
ENDMDL
MODEL 8
REMARK VINA RESULT:    -5.945      2.935      8.110
REMARK INTER + INTRA:         -10.408
REMARK INTER:                  -9.286
REMARK INTRA:                  -1.122
REMARK UNBOUND:                -1.510
REMARK  Name = 
REMARK  11 active torsions:
REMARK  status: ('A' for Active; 'I' for Inactive)
REMARK    1  A    between atoms: C_1  and  C_2
REMARK    2  A    between atoms: C_2  and  N_3
REMARK    3  A    between atoms: C_2  and  C_19
REMARK    4  A    between atoms: N_3  and  C_4
REMARK    5  A    between atoms: C_4  and  C_5
REMARK    6  A    between atoms: C_8  and  C_9
REMARK    7  A    between atoms: C_9  and  O_10
REMARK    8  A    between atoms: C_9  and  C_11
REMARK    9  A    between atoms: C_11  and  N_12
REMARK   10  A    between atoms: C_19  and  C_21
REMARK   11  A    between atoms: N_27  and  C_28
REMARK                            x       y       z     vdW  Elec       q    Type
REMARK                         _______ _______ _______ _____ _____    ______ ____
ROOT
ATOM      1  N   UNL     1      49.762   7.136  13.918  0.00  0.00    +0.000 NA
ATOM      2  H   UNL     1      50.009   6.461  13.189  0.00  0.00    +0.000 HD
ENDROOT
BRANCH   1   4
ATOM      3  C   UNL     1      50.771   9.326  13.996  0.00  0.00    +0.000 C 
ATOM      4  C   UNL     1      50.993   7.851  14.326  0.00  0.00    +0.000 C 
BRANCH   4   5
ATOM      5  C   UNL     1      51.265   7.689  15.845  0.00  0.00    +0.000 C 
ATOM      6  O   UNL     1      52.394   7.392  16.245  0.00  0.00    +0.000 OA
BRANCH   5   7
ATOM      7  C   UNL     1      50.146   7.836  16.787  0.00  0.00    +0.000 A 
ATOM      8  C   UNL     1      49.671   9.067  17.209  0.00  0.00    +0.000 A 
ATOM      9  S   UNL     1      48.299   8.955  18.218  0.00  0.00    +0.000 S 
ATOM     10  C   UNL     1      48.303   7.258  18.129  0.00  0.00    +0.000 A 
ATOM     11  N   UNL     1      47.347   6.530  18.759  0.00  0.00    +0.000 NA
ATOM     12  C   UNL     1      47.446   5.255  18.587  0.00  0.00    +0.000 A 
ATOM     13  N   UNL     1      48.438   4.617  17.866  0.00  0.00    +0.000 N 
ATOM     14  C   UNL     1      48.447   3.174  17.770  0.00  0.00    +0.000 C 
ATOM     15  C   UNL     1      49.500   5.327  17.297  0.00  0.00    +0.000 A 
ATOM     16  O   UNL     1      50.495   4.772  16.838  0.00  0.00    +0.000 OA
ATOM     17  C   UNL     1      49.356   6.775  17.377  0.00  0.00    +0.000 A 
ENDBRANCH   5   7
ENDBRANCH   4   5
ENDBRANCH   1   4
BRANCH   1  18
ATOM     18  C   UNL     1      48.749   8.035  13.361  0.00  0.00    +0.000 C 
BRANCH  18  19
ATOM     19  C   UNL     1      47.445   7.299  13.181  0.00  0.00    +0.000 A 
ATOM     20  C   UNL     1      47.289   5.969  13.604  0.00  0.00    +0.000 A 
ATOM     21  C   UNL     1      46.091   5.286  13.368  0.00  0.00    +0.000 A 
ATOM     22  C   UNL     1      45.030   5.915  12.698  0.00  0.00    +0.000 A 
ATOM     23  C   UNL     1      45.179   7.257  12.328  0.00  0.00    +0.000 A 
ATOM     24  C   UNL     1      46.373   7.935  12.555  0.00  0.00    +0.000 A 
BRANCH  22  25
ATOM     25  C   UNL     1      43.753   5.146  12.407  0.00  0.00    +0.000 C 
BRANCH  25  26
ATOM     26  O   UNL     1      42.660   6.072  12.397  0.00  0.00    +0.000 OA
ATOM     27  H   UNL     1      42.977   6.873  11.947  0.00  0.00    +0.000 HD
ENDBRANCH  25  26
BRANCH  25  28
ATOM     28  C   UNL     1      43.725   4.356  11.060  0.00  0.00    +0.000 C 
BRANCH  28  29
ATOM     29  N   UNL     1      45.032   3.932  10.528  0.00  0.00    +0.000 NA
ATOM     30  C   UNL     1      44.987   2.630   9.862  0.00  0.00    +0.000 C 
ATOM     31  C   UNL     1      44.605   2.937   8.425  0.00  0.00    +0.000 C 
ATOM     32  O   UNL     1      44.951   4.307   8.198  0.00  0.00    +0.000 OA
ATOM     33  C   UNL     1      45.453   4.809   9.435  0.00  0.00    +0.000 C 
ENDBRANCH  28  29
ENDBRANCH  25  28
ENDBRANCH  22  25
ENDBRANCH  18  19
ENDBRANCH   1  18
TORSDOF 9
ENDMDL
MODEL 9
REMARK VINA RESULT:    -5.906      3.116      8.344
REMARK INTER + INTRA:         -10.350
REMARK INTER:                  -8.991
REMARK INTRA:                  -1.359
REMARK UNBOUND:                -1.510
REMARK  Name = 
REMARK  11 active torsions:
REMARK  status: ('A' for Active; 'I' for Inactive)
REMARK    1  A    between atoms: C_1  and  C_2
REMARK    2  A    between atoms: C_2  and  N_3
REMARK    3  A    between atoms: C_2  and  C_19
REMARK    4  A    between atoms: N_3  and  C_4
REMARK    5  A    between atoms: C_4  and  C_5
REMARK    6  A    between atoms: C_8  and  C_9
REMARK    7  A    between atoms: C_9  and  O_10
REMARK    8  A    between atoms: C_9  and  C_11
REMARK    9  A    between atoms: C_11  and  N_12
REMARK   10  A    between atoms: C_19  and  C_21
REMARK   11  A    between atoms: N_27  and  C_28
REMARK                            x       y       z     vdW  Elec       q    Type
REMARK                         _______ _______ _______ _____ _____    ______ ____
ROOT
ATOM      1  N   UNL     1      48.472   5.246  16.033  0.00  0.00    +0.000 NA
ATOM      2  H   UNL     1      48.242   6.042  15.429  0.00  0.00    +0.000 HD
ENDROOT
BRANCH   1   4
ATOM      3  C   UNL     1      49.070   4.655  18.293  0.00  0.00    +0.000 C 
ATOM      4  C   UNL     1      48.310   5.671  17.441  0.00  0.00    +0.000 C 
BRANCH   4   5
ATOM      5  C   UNL     1      48.893   7.090  17.676  0.00  0.00    +0.000 C 
ATOM      6  O   UNL     1      49.030   7.523  18.823  0.00  0.00    +0.000 OA
BRANCH   5   7
ATOM      7  C   UNL     1      49.222   7.924  16.511  0.00  0.00    +0.000 A 
ATOM      8  C   UNL     1      48.345   8.854  15.976  0.00  0.00    +0.000 A 
ATOM      9  S   UNL     1      49.016   9.761  14.696  0.00  0.00    +0.000 S 
ATOM     10  C   UNL     1      50.496   8.933  14.811  0.00  0.00    +0.000 A 
ATOM     11  N   UNL     1      51.535   9.258  14.001  0.00  0.00    +0.000 NA
ATOM     12  C   UNL     1      52.610   8.576  14.211  0.00  0.00    +0.000 A 
ATOM     13  N   UNL     1      52.748   7.562  15.140  0.00  0.00    +0.000 N 
ATOM     14  C   UNL     1      54.005   6.857  15.260  0.00  0.00    +0.000 C 
ATOM     15  C   UNL     1      51.667   7.126  15.914  0.00  0.00    +0.000 A 
ATOM     16  O   UNL     1      51.708   6.099  16.587  0.00  0.00    +0.000 OA
ATOM     17  C   UNL     1      50.473   7.951  15.781  0.00  0.00    +0.000 A 
ENDBRANCH   5   7
ENDBRANCH   4   5
ENDBRANCH   1   4
BRANCH   1  18
ATOM     18  C   UNL     1      47.576   4.146  15.671  0.00  0.00    +0.000 C 
BRANCH  18  19
ATOM     19  C   UNL     1      46.939   4.415  14.330  0.00  0.00    +0.000 A 
ATOM     20  C   UNL     1      46.900   5.707  13.783  0.00  0.00    +0.000 A 
ATOM     21  C   UNL     1      46.247   5.943  12.569  0.00  0.00    +0.000 A 
ATOM     22  C   UNL     1      45.613   4.895  11.882  0.00  0.00    +0.000 A 
ATOM     23  C   UNL     1      45.704   3.603  12.412  0.00  0.00    +0.000 A 
ATOM     24  C   UNL     1      46.347   3.368  13.624  0.00  0.00    +0.000 A 
BRANCH  22  25
ATOM     25  C   UNL     1      44.867   5.176  10.590  0.00  0.00    +0.000 C 
BRANCH  25  26
ATOM     26  O   UNL     1      44.543   6.571  10.549  0.00  0.00    +0.000 OA
ATOM     27  H   UNL     1      43.691   6.673  11.006  0.00  0.00    +0.000 HD
ENDBRANCH  25  26
BRANCH  25  28
ATOM     28  C   UNL     1      45.626   4.820   9.273  0.00  0.00    +0.000 C 
BRANCH  28  29
ATOM     29  N   UNL     1      44.919   3.928   8.336  0.00  0.00    +0.000 NA
ATOM     30  C   UNL     1      45.784   3.403   7.279  0.00  0.00    +0.000 C 
ATOM     31  C   UNL     1      46.401   2.146   7.866  0.00  0.00    +0.000 C 
ATOM     32  O   UNL     1      45.536   1.727   8.926  0.00  0.00    +0.000 OA
ATOM     33  C   UNL     1      44.497   2.701   9.012  0.00  0.00    +0.000 C 
ENDBRANCH  28  29
ENDBRANCH  25  28
ENDBRANCH  22  25
ENDBRANCH  18  19
ENDBRANCH   1  18
TORSDOF 9
ENDMDL
