MODEL 1
REMARK VINA RESULT:    -7.408      0.000      0.000
REMARK INTER + INTRA:          -9.754
REMARK INTER:                  -9.357
REMARK INTRA:                  -0.397
REMARK UNBOUND:                -0.397
REMARK  Name = 
REMARK  5 active torsions:
REMARK  status: ('A' for Active; 'I' for Inactive)
REMARK    1  A    between atoms: N_1  and  C_2
REMARK    2  A    between atoms: C_2  and  C_3
REMARK    3  A    between atoms: C_6  and  O_7
REMARK    4  A    between atoms: O_7  and  C_8
REMARK    5  A    between atoms: C_8  and  C_9
REMARK                            x       y       z     vdW  Elec       q    Type
REMARK                         _______ _______ _______ _____ _____    ______ ____
ROOT
ATOM      1  C   UNL     1      46.493   2.743   7.134  0.00  0.00    +0.000 A 
ATOM      2  N   UNL     1      45.996   4.000   7.315  0.00  0.00    +0.000 NA
ATOM      3  C   UNL     1      45.123   4.184   8.331  0.00  0.00    +0.000 A 
ATOM      4  C   UNL     1      44.681   3.170   9.171  0.00  0.00    +0.000 A 
ATOM      5  C   UNL     1      45.239   1.907   9.008  0.00  0.00    +0.000 A 
ATOM      6  C   UNL     1      46.149   1.680   7.974  0.00  0.00    +0.000 A 
ATOM      7 CL   UNL     1      46.781   0.088   7.778  0.00  0.00    +0.000 Cl
ENDROOT
BRANCH   1   8
ATOM      8  C   UNL     1      47.354   2.572   5.904  0.00  0.00    +0.000 C 
BRANCH   8   9
ATOM      9  N   UNL     1      48.777   2.469   6.246  0.00  0.00    +0.000 NA
ATOM     10  H   UNL     1      48.859   2.218   7.229  0.00  0.00    +0.000 HD
ATOM     11  H   UNL     1      49.184   3.401   6.158  0.00  0.00    +0.000 HD
ENDBRANCH   8   9
ENDBRANCH   1   8
BRANCH   4  12
ATOM     12  O   UNL     1      43.729   3.299  10.145  0.00  0.00    +0.000 OA
BRANCH  12  13
ATOM     13  C   UNL     1      43.617   4.617  10.694  0.00  0.00    +0.000 C 
BRANCH  13  14
ATOM     14  C   UNL     1      44.672   4.868  11.734  0.00  0.00    +0.000 A 
ATOM     15  C   UNL     1      45.549   5.950  11.602  0.00  0.00    +0.000 A 
ATOM     16  C   UNL     1      46.543   6.156  12.553  0.00  0.00    +0.000 A 
ATOM     17  C   UNL     1      46.638   5.262  13.602  0.00  0.00    +0.000 A 
ATOM     18  N   UNL     1      45.824   4.193  13.754  0.00  0.00    +0.000 NA
ATOM     19  C   UNL     1      44.863   4.020  12.819  0.00  0.00    +0.000 A 
ENDBRANCH  13  14
ENDBRANCH  12  13
ENDBRANCH   4  12
TORSDOF 5
ENDMDL
MODEL 2
REMARK VINA RESULT:    -7.240      2.517      5.962
REMARK INTER + INTRA:          -9.542
REMARK INTER:                  -9.262
REMARK INTRA:                  -0.281
REMARK UNBOUND:                -0.397
REMARK  Name = 
REMARK  5 active torsions:
REMARK  status: ('A' for Active; 'I' for Inactive)
REMARK    1  A    between atoms: N_1  and  C_2
REMARK    2  A    between atoms: C_2  and  C_3
REMARK    3  A    between atoms: C_6  and  O_7
REMARK    4  A    between atoms: O_7  and  C_8
REMARK    5  A    between atoms: C_8  and  C_9
REMARK                            x       y       z     vdW  Elec       q    Type
REMARK                         _______ _______ _______ _____ _____    ______ ____
ROOT
ATOM      1  C   UNL     1      46.339   4.535  13.348  0.00  0.00    +0.000 A 
ATOM      2  N   UNL     1      45.856   3.271  13.178  0.00  0.00    +0.000 NA
ATOM      3  C   UNL     1      45.144   3.023  12.056  0.00  0.00    +0.000 A 
ATOM      4  C   UNL     1      44.849   3.980  11.093  0.00  0.00    +0.000 A 
ATOM      5  C   UNL     1      45.396   5.248  11.254  0.00  0.00    +0.000 A 
ATOM      6  C   UNL     1      46.143   5.540  12.397  0.00  0.00    +0.000 A 
ATOM      7 CL   UNL     1      46.764   7.139  12.580  0.00  0.00    +0.000 Cl
ENDROOT
BRANCH   1   8
ATOM      8  C   UNL     1      47.008   4.785  14.680  0.00  0.00    +0.000 C 
BRANCH   8   9
ATOM      9  N   UNL     1      47.460   3.537  15.304  0.00  0.00    +0.000 NA
ATOM     10  H   UNL     1      48.397   3.678  15.678  0.00  0.00    +0.000 HD
ATOM     11  H   UNL     1      47.554   2.838  14.565  0.00  0.00    +0.000 HD
ENDBRANCH   8   9
ENDBRANCH   1   8
BRANCH   4  12
ATOM     12  O   UNL     1      44.053   3.791   9.997  0.00  0.00    +0.000 OA
BRANCH  12  13
ATOM     13  C   UNL     1      44.642   4.202   8.758  0.00  0.00    +0.000 C 
BRANCH  13  14
ATOM     14  C   UNL     1      45.591   3.163   8.232  0.00  0.00    +0.000 A 
ATOM     15  C   UNL     1      46.555   3.507   7.278  0.00  0.00    +0.000 A 
ATOM     16  C   UNL     1      47.409   2.533   6.773  0.00  0.00    +0.000 A 
ATOM     17  C   UNL     1      47.262   1.236   7.229  0.00  0.00    +0.000 A 
ATOM     18  N   UNL     1      46.331   0.859   8.133  0.00  0.00    +0.000 NA
ATOM     19  C   UNL     1      45.518   1.828   8.612  0.00  0.00    +0.000 A 
ENDBRANCH  13  14
ENDBRANCH  12  13
ENDBRANCH   4  12
TORSDOF 5
ENDMDL
MODEL 3
REMARK VINA RESULT:    -6.884      1.770      1.995
REMARK INTER + INTRA:          -9.092
REMARK INTER:                  -8.658
REMARK INTRA:                  -0.433
REMARK UNBOUND:                -0.397
REMARK  Name = 
REMARK  5 active torsions:
REMARK  status: ('A' for Active; 'I' for Inactive)
REMARK    1  A    between atoms: N_1  and  C_2
REMARK    2  A    between atoms: C_2  and  C_3
REMARK    3  A    between atoms: C_6  and  O_7
REMARK    4  A    between atoms: O_7  and  C_8
REMARK    5  A    between atoms: C_8  and  C_9
REMARK                            x       y       z     vdW  Elec       q    Type
REMARK                         _______ _______ _______ _____ _____    ______ ____
ROOT
ATOM      1  C   UNL     1      46.164   1.809   7.869  0.00  0.00    +0.000 A 
ATOM      2  N   UNL     1      45.427   1.375   8.932  0.00  0.00    +0.000 NA
ATOM      3  C   UNL     1      44.618   2.273   9.537  0.00  0.00    +0.000 A 
ATOM      4  C   UNL     1      44.520   3.608   9.165  0.00  0.00    +0.000 A 
ATOM      5  C   UNL     1      45.235   4.020   8.046  0.00  0.00    +0.000 A 
ATOM      6  C   UNL     1      46.077   3.119   7.390  0.00  0.00    +0.000 A 
ATOM      7 CL   UNL     1      46.982   3.685   6.035  0.00  0.00    +0.000 Cl
ENDROOT
BRANCH   1   8
ATOM      8  C   UNL     1      47.147   0.799   7.323  0.00  0.00    +0.000 C 
BRANCH   8   9
ATOM      9  N   UNL     1      46.790  -0.570   7.708  0.00  0.00    +0.000 NA
ATOM     10  H   UNL     1      46.446  -0.562   8.666  0.00  0.00    +0.000 HD
ATOM     11  H   UNL     1      47.649  -1.122   7.721  0.00  0.00    +0.000 HD
ENDBRANCH   8   9
ENDBRANCH   1   8
BRANCH   4  12
ATOM     12  O   UNL     1      43.788   4.565   9.811  0.00  0.00    +0.000 OA
BRANCH  12  13
ATOM     13  C   UNL     1      43.758   4.426  11.237  0.00  0.00    +0.000 C 
BRANCH  13  14
ATOM     14  C   UNL     1      45.000   4.988  11.867  0.00  0.00    +0.000 A 
ATOM     15  C   UNL     1      45.596   6.141  11.344  0.00  0.00    +0.000 A 
ATOM     16  C   UNL     1      46.764   6.638  11.914  0.00  0.00    +0.000 A 
ATOM     17  C   UNL     1      47.309   5.954  12.984  0.00  0.00    +0.000 A 
ATOM     18  N   UNL     1      46.777   4.826  13.504  0.00  0.00    +0.000 NA
ATOM     19  C   UNL     1      45.638   4.369  12.935  0.00  0.00    +0.000 A 
ENDBRANCH  13  14
ENDBRANCH  12  13
ENDBRANCH   4  12
TORSDOF 5
ENDMDL
MODEL 4
REMARK VINA RESULT:    -6.805      2.503      6.083
REMARK INTER + INTRA:          -8.992
REMARK INTER:                  -8.716
REMARK INTRA:                  -0.276
REMARK UNBOUND:                -0.397
REMARK  Name = 
REMARK  5 active torsions:
REMARK  status: ('A' for Active; 'I' for Inactive)
REMARK    1  A    between atoms: N_1  and  C_2
REMARK    2  A    between atoms: C_2  and  C_3
REMARK    3  A    between atoms: C_6  and  O_7
REMARK    4  A    between atoms: O_7  and  C_8
REMARK    5  A    between atoms: C_8  and  C_9
REMARK                            x       y       z     vdW  Elec       q    Type
REMARK                         _______ _______ _______ _____ _____    ______ ____
ROOT
ATOM      1  C   UNL     1      44.944   5.944  11.753  0.00  0.00    +0.000 A 
ATOM      2  N   UNL     1      45.718   6.011  10.633  0.00  0.00    +0.000 NA
ATOM      3  C   UNL     1      45.495   5.095   9.666  0.00  0.00    +0.000 A 
ATOM      4  C   UNL     1      44.554   4.077   9.760  0.00  0.00    +0.000 A 
ATOM      5  C   UNL     1      43.736   4.056  10.883  0.00  0.00    +0.000 A 
ATOM      6  C   UNL     1      43.932   4.991  11.901  0.00  0.00    +0.000 A 
ATOM      7 CL   UNL     1      42.926   4.901  13.299  0.00  0.00    +0.000 Cl
ENDROOT
BRANCH   1   8
ATOM      8  C   UNL     1      45.332   6.907  12.852  0.00  0.00    +0.000 C 
BRANCH   8   9
ATOM      9  N   UNL     1      46.444   6.393  13.658  0.00  0.00    +0.000 NA
ATOM     10  H   UNL     1      47.267   6.966  13.483  0.00  0.00    +0.000 HD
ATOM     11  H   UNL     1      46.671   5.459  13.312  0.00  0.00    +0.000 HD
ENDBRANCH   8   9
ENDBRANCH   1   8
BRANCH   4  12
ATOM     12  O   UNL     1      44.367   3.076   8.846  0.00  0.00    +0.000 OA
BRANCH  12  13
ATOM     13  C   UNL     1      45.375   2.060   8.864  0.00  0.00    +0.000 C 
BRANCH  13  14
ATOM     14  C   UNL     1      46.278   2.164   7.668  0.00  0.00    +0.000 A 
ATOM     15  C   UNL     1      46.042   3.135   6.689  0.00  0.00    +0.000 A 
ATOM     16  C   UNL     1      46.863   3.204   5.568  0.00  0.00    +0.000 A 
ATOM     17  C   UNL     1      47.890   2.286   5.454  0.00  0.00    +0.000 A 
ATOM     18  N   UNL     1      48.137   1.320   6.367  0.00  0.00    +0.000 NA
ATOM     19  C   UNL     1      47.328   1.280   7.449  0.00  0.00    +0.000 A 
ENDBRANCH  13  14
ENDBRANCH  12  13
ENDBRANCH   4  12
TORSDOF 5
ENDMDL
MODEL 5
REMARK VINA RESULT:    -6.614      2.490      5.855
REMARK INTER + INTRA:          -8.751
REMARK INTER:                  -8.323
REMARK INTRA:                  -0.428
REMARK UNBOUND:                -0.397
REMARK  Name = 
REMARK  5 active torsions:
REMARK  status: ('A' for Active; 'I' for Inactive)
REMARK    1  A    between atoms: N_1  and  C_2
REMARK    2  A    between atoms: C_2  and  C_3
REMARK    3  A    between atoms: C_6  and  O_7
REMARK    4  A    between atoms: O_7  and  C_8
REMARK    5  A    between atoms: C_8  and  C_9
REMARK                            x       y       z     vdW  Elec       q    Type
REMARK                         _______ _______ _______ _____ _____    ______ ____
ROOT
ATOM      1  C   UNL     1      46.606   5.792  13.020  0.00  0.00    +0.000 A 
ATOM      2  N   UNL     1      46.027   6.456  11.980  0.00  0.00    +0.000 NA
ATOM      3  C   UNL     1      45.223   5.746  11.158  0.00  0.00    +0.000 A 
ATOM      4  C   UNL     1      44.983   4.384  11.290  0.00  0.00    +0.000 A 
ATOM      5  C   UNL     1      45.536   3.734  12.387  0.00  0.00    +0.000 A 
ATOM      6  C   UNL     1      46.367   4.437  13.262  0.00  0.00    +0.000 A 
ATOM      7 CL   UNL     1      47.071   3.582  14.584  0.00  0.00    +0.000 Cl
ENDROOT
BRANCH   1   8
ATOM      8  C   UNL     1      47.597   6.607  13.820  0.00  0.00    +0.000 C 
BRANCH   8   9
ATOM      9  N   UNL     1      47.166   8.001  13.962  0.00  0.00    +0.000 NA
ATOM     10  H   UNL     1      47.984   8.604  13.903  0.00  0.00    +0.000 HD
ATOM     11  H   UNL     1      46.798   8.117  14.907  0.00  0.00    +0.000 HD
ENDBRANCH   8   9
ENDBRANCH   1   8
BRANCH   4  12
ATOM     12  O   UNL     1      44.255   3.614  10.424  0.00  0.00    +0.000 OA
BRANCH  12  13
ATOM     13  C   UNL     1      44.429   3.949   9.043  0.00  0.00    +0.000 C 
BRANCH  13  14
ATOM     14  C   UNL     1      45.431   3.045   8.383  0.00  0.00    +0.000 A 
ATOM     15  C   UNL     1      46.243   3.527   7.350  0.00  0.00    +0.000 A 
ATOM     16  C   UNL     1      47.146   2.675   6.723  0.00  0.00    +0.000 A 
ATOM     17  C   UNL     1      47.198   1.359   7.139  0.00  0.00    +0.000 A 
ATOM     18  N   UNL     1      46.416   0.849   8.118  0.00  0.00    +0.000 NA
ATOM     19  C   UNL     1      45.552   1.701   8.715  0.00  0.00    +0.000 A 
ENDBRANCH  13  14
ENDBRANCH  12  13
ENDBRANCH   4  12
TORSDOF 5
ENDMDL
MODEL 6
REMARK VINA RESULT:    -6.578      3.025      6.191
REMARK INTER + INTRA:          -8.706
REMARK INTER:                  -8.313
REMARK INTRA:                  -0.392
REMARK UNBOUND:                -0.397
REMARK  Name = 
REMARK  5 active torsions:
REMARK  status: ('A' for Active; 'I' for Inactive)
REMARK    1  A    between atoms: N_1  and  C_2
REMARK    2  A    between atoms: C_2  and  C_3
REMARK    3  A    between atoms: C_6  and  O_7
REMARK    4  A    between atoms: O_7  and  C_8
REMARK    5  A    between atoms: C_8  and  C_9
REMARK                            x       y       z     vdW  Elec       q    Type
REMARK                         _______ _______ _______ _____ _____    ______ ____
ROOT
ATOM      1  C   UNL     1      45.374   7.657  12.043  0.00  0.00    +0.000 A 
ATOM      2  N   UNL     1      44.060   7.384  11.801  0.00  0.00    +0.000 NA
ATOM      3  C   UNL     1      43.763   6.187  11.250  0.00  0.00    +0.000 A 
ATOM      4  C   UNL     1      44.713   5.240  10.886  0.00  0.00    +0.000 A 
ATOM      5  C   UNL     1      46.042   5.510  11.190  0.00  0.00    +0.000 A 
ATOM      6  C   UNL     1      46.387   6.734  11.766  0.00  0.00    +0.000 A 
ATOM      7 CL   UNL     1      48.053   7.048  12.083  0.00  0.00    +0.000 Cl
ENDROOT
BRANCH   1   8
ATOM      8  C   UNL     1      45.652   9.059  12.532  0.00  0.00    +0.000 C 
BRANCH   8   9
ATOM      9  N   UNL     1      44.425   9.858  12.621  0.00  0.00    +0.000 NA
ATOM     10  H   UNL     1      44.669  10.801  12.916  0.00  0.00    +0.000 HD
ATOM     11  H   UNL     1      43.854   9.466  13.371  0.00  0.00    +0.000 HD
ENDBRANCH   8   9
ENDBRANCH   1   8
BRANCH   4  12
ATOM     12  O   UNL     1      44.458   4.062  10.240  0.00  0.00    +0.000 OA
BRANCH  12  13
ATOM     13  C   UNL     1      44.528   4.142   8.812  0.00  0.00    +0.000 C 
BRANCH  13  14
ATOM     14  C   UNL     1      45.530   3.170   8.258  0.00  0.00    +0.000 A 
ATOM     15  C   UNL     1      46.444   3.579   7.280  0.00  0.00    +0.000 A 
ATOM     16  C   UNL     1      47.347   2.665   6.749  0.00  0.00    +0.000 A 
ATOM     17  C   UNL     1      47.299   1.361   7.204  0.00  0.00    +0.000 A 
ATOM     18  N   UNL     1      46.419   0.921   8.131  0.00  0.00    +0.000 NA
ATOM     19  C   UNL     1      45.556   1.832   8.635  0.00  0.00    +0.000 A 
ENDBRANCH  13  14
ENDBRANCH  12  13
ENDBRANCH   4  12
TORSDOF 5
ENDMDL
MODEL 7
REMARK VINA RESULT:    -5.820      3.020      6.211
REMARK INTER + INTRA:          -7.748
REMARK INTER:                  -7.240
REMARK INTRA:                  -0.509
REMARK UNBOUND:                -0.397
REMARK  Name = 
REMARK  5 active torsions:
REMARK  status: ('A' for Active; 'I' for Inactive)
REMARK    1  A    between atoms: N_1  and  C_2
REMARK    2  A    between atoms: C_2  and  C_3
REMARK    3  A    between atoms: C_6  and  O_7
REMARK    4  A    between atoms: O_7  and  C_8
REMARK    5  A    between atoms: C_8  and  C_9
REMARK                            x       y       z     vdW  Elec       q    Type
REMARK                         _______ _______ _______ _____ _____    ______ ____
ROOT
ATOM      1  C   UNL     1      47.251   6.413  13.539  0.00  0.00    +0.000 A 
ATOM      2  N   UNL     1      47.401   5.058  13.586  0.00  0.00    +0.000 NA
ATOM      3  C   UNL     1      46.377   4.303  13.130  0.00  0.00    +0.000 A 
ATOM      4  C   UNL     1      45.179   4.820  12.654  0.00  0.00    +0.000 A 
ATOM      5  C   UNL     1      45.064   6.203  12.561  0.00  0.00    +0.000 A 
ATOM      6  C   UNL     1      46.104   7.016  13.016  0.00  0.00    +0.000 A 
ATOM      7 CL   UNL     1      45.902   8.726  12.926  0.00  0.00    +0.000 Cl
ENDROOT
BRANCH   1   8
ATOM      8  C   UNL     1      48.369   7.198  14.186  0.00  0.00    +0.000 C 
BRANCH   8   9
ATOM      9  N   UNL     1      48.032   7.597  15.557  0.00  0.00    +0.000 NA
ATOM     10  H   UNL     1      47.830   6.760  16.100  0.00  0.00    +0.000 HD
ATOM     11  H   UNL     1      47.159   8.126  15.519  0.00  0.00    +0.000 HD
ENDBRANCH   8   9
ENDBRANCH   1   8
BRANCH   4  12
ATOM     12  O   UNL     1      44.087   4.088  12.276  0.00  0.00    +0.000 OA
BRANCH  12  13
ATOM     13  C   UNL     1      43.606   4.378  10.959  0.00  0.00    +0.000 C 
BRANCH  13  14
ATOM     14  C   UNL     1      44.478   3.751   9.908  0.00  0.00    +0.000 A 
ATOM     15  C   UNL     1      45.098   4.548   8.939  0.00  0.00    +0.000 A 
ATOM     16  C   UNL     1      45.878   3.957   7.951  0.00  0.00    +0.000 A 
ATOM     17  C   UNL     1      46.001   2.580   7.953  0.00  0.00    +0.000 A 
ATOM     18  N   UNL     1      45.401   1.774   8.858  0.00  0.00    +0.000 NA
ATOM     19  C   UNL     1      44.654   2.376   9.811  0.00  0.00    +0.000 A 
ENDBRANCH  13  14
ENDBRANCH  12  13
ENDBRANCH   4  12
TORSDOF 5
ENDMDL
MODEL 8
REMARK VINA RESULT:    -5.668      3.613      6.795
REMARK INTER + INTRA:          -7.557
REMARK INTER:                  -7.254
REMARK INTRA:                  -0.302
REMARK UNBOUND:                -0.397
REMARK  Name = 
REMARK  5 active torsions:
REMARK  status: ('A' for Active; 'I' for Inactive)
REMARK    1  A    between atoms: N_1  and  C_2
REMARK    2  A    between atoms: C_2  and  C_3
REMARK    3  A    between atoms: C_6  and  O_7
REMARK    4  A    between atoms: O_7  and  C_8
REMARK    5  A    between atoms: C_8  and  C_9
REMARK                            x       y       z     vdW  Elec       q    Type
REMARK                         _______ _______ _______ _____ _____    ______ ____
ROOT
ATOM      1  C   UNL     1      47.900   3.535  15.660  0.00  0.00    +0.000 A 
ATOM      2  N   UNL     1      47.457   2.907  14.533  0.00  0.00    +0.000 NA
ATOM      3  C   UNL     1      46.870   3.670  13.584  0.00  0.00    +0.000 A 
ATOM      4  C   UNL     1      46.663   5.039  13.704  0.00  0.00    +0.000 A 
ATOM      5  C   UNL     1      47.170   5.672  14.833  0.00  0.00    +0.000 A 
ATOM      6  C   UNL     1      47.788   4.917  15.832  0.00  0.00    +0.000 A 
ATOM      7 CL   UNL     1      48.361   5.736  17.238  0.00  0.00    +0.000 Cl
ENDROOT
BRANCH   1   8
ATOM      8  C   UNL     1      48.421   2.612  16.737  0.00  0.00    +0.000 C 
BRANCH   8   9
ATOM      9  N   UNL     1      49.492   1.743  16.238  0.00  0.00    +0.000 NA
ATOM     10  H   UNL     1      50.097   2.288  15.627  0.00  0.00    +0.000 HD
ATOM     11  H   UNL     1      49.062   1.030  15.647  0.00  0.00    +0.000 HD
ENDBRANCH   8   9
ENDBRANCH   1   8
BRANCH   4  12
ATOM     12  O   UNL     1      45.989   5.825  12.811  0.00  0.00    +0.000 OA
BRANCH  12  13
ATOM     13  C   UNL     1      44.768   5.257  12.324  0.00  0.00    +0.000 C 
BRANCH  13  14
ATOM     14  C   UNL     1      44.915   4.777  10.907  0.00  0.00    +0.000 A 
ATOM     15  C   UNL     1      44.341   3.564  10.511  0.00  0.00    +0.000 A 
ATOM     16  C   UNL     1      44.509   3.111   9.206  0.00  0.00    +0.000 A 
ATOM     17  C   UNL     1      45.261   3.882   8.340  0.00  0.00    +0.000 A 
ATOM     18  N   UNL     1      45.849   5.048   8.690  0.00  0.00    +0.000 NA
ATOM     19  C   UNL     1      45.664   5.467   9.962  0.00  0.00    +0.000 A 
ENDBRANCH  13  14
ENDBRANCH  12  13
ENDBRANCH   4  12
TORSDOF 5
ENDMDL
MODEL 9
REMARK VINA RESULT:    -5.440      4.546      7.222
REMARK INTER + INTRA:          -7.268
REMARK INTER:                  -6.897
REMARK INTRA:                  -0.371
REMARK UNBOUND:                -0.397
REMARK  Name = 
REMARK  5 active torsions:
REMARK  status: ('A' for Active; 'I' for Inactive)
REMARK    1  A    between atoms: N_1  and  C_2
REMARK    2  A    between atoms: C_2  and  C_3
REMARK    3  A    between atoms: C_6  and  O_7
REMARK    4  A    between atoms: O_7  and  C_8
REMARK    5  A    between atoms: C_8  and  C_9
REMARK                            x       y       z     vdW  Elec       q    Type
REMARK                         _______ _______ _______ _____ _____    ______ ____
ROOT
ATOM      1  C   UNL     1      47.814   4.398  16.237  0.00  0.00    +0.000 A 
ATOM      2  N   UNL     1      47.280   3.658  15.224  0.00  0.00    +0.000 NA
ATOM      3  C   UNL     1      47.171   4.248  14.012  0.00  0.00    +0.000 A 
ATOM      4  C   UNL     1      47.537   5.562  13.751  0.00  0.00    +0.000 A 
ATOM      5  C   UNL     1      48.130   6.284  14.780  0.00  0.00    +0.000 A 
ATOM      6  C   UNL     1      48.266   5.706  16.043  0.00  0.00    +0.000 A 
ATOM      7 CL   UNL     1      48.965   6.653  17.304  0.00  0.00    +0.000 Cl
ENDROOT
BRANCH   1   8
ATOM      8  C   UNL     1      47.784   3.732  17.594  0.00  0.00    +0.000 C 
BRANCH   8   9
ATOM      9  N   UNL     1      46.616   2.857  17.744  0.00  0.00    +0.000 NA
ATOM     10  H   UNL     1      45.971   3.283  18.407  0.00  0.00    +0.000 HD
ATOM     11  H   UNL     1      46.933   1.989  18.178  0.00  0.00    +0.000 HD
ENDBRANCH   8   9
ENDBRANCH   1   8
BRANCH   4  12
ATOM     12  O   UNL     1      47.353   6.221  12.566  0.00  0.00    +0.000 OA
BRANCH  12  13
ATOM     13  C   UNL     1      46.116   6.937  12.472  0.00  0.00    +0.000 C 
BRANCH  13  14
ATOM     14  C   UNL     1      44.995   6.037  12.037  0.00  0.00    +0.000 A 
ATOM     15  C   UNL     1      43.939   5.753  12.911  0.00  0.00    +0.000 A 
ATOM     16  C   UNL     1      42.921   4.894  12.512  0.00  0.00    +0.000 A 
ATOM     17  C   UNL     1      42.999   4.331  11.252  0.00  0.00    +0.000 A 
ATOM     18  N   UNL     1      44.011   4.563  10.387  0.00  0.00    +0.000 NA
ATOM     19  C   UNL     1      44.984   5.407  10.798  0.00  0.00    +0.000 A 
ENDBRANCH  13  14
ENDBRANCH  12  13
ENDBRANCH   4  12
TORSDOF 5
ENDMDL
