MODEL 1
REMARK VINA RESULT:    -8.593      0.000      0.000
REMARK INTER + INTRA:         -12.533
REMARK INTER:                 -11.607
REMARK INTRA:                  -0.926
REMARK UNBOUND:                -0.926
REMARK  Name = 
REMARK  6 active torsions:
REMARK  status: ('A' for Active; 'I' for Inactive)
REMARK    1  A    between atoms: C_2  and  C_4
REMARK    2  A    between atoms: C_7  and  N_8
REMARK    3  A    between atoms: N_8  and  C_9
REMARK    4  A    between atoms: C_9  and  C_10
REMARK    5  A    between atoms: C_10  and  C_13
REMARK    6  A    between atoms: N_18  and  C_19
REMARK                            x       y       z     vdW  Elec       q    Type
REMARK                         _______ _______ _______ _____ _____    ______ ____
ROOT
ATOM      1  C   UNL     1      43.619   5.385  12.362  0.00  0.00    +0.000 C 
ATOM      2  F   UNL     1      43.167   6.553  11.814  0.00  0.00    +0.000 F 
ATOM      3  F   UNL     1      42.872   5.208  13.497  0.00  0.00    +0.000 F 
ENDROOT
BRANCH   1   4
ATOM      4  C   UNL     1      45.098   5.444  12.667  0.00  0.00    +0.000 A 
ATOM      5  C   UNL     1      45.696   4.586  13.588  0.00  0.00    +0.000 A 
ATOM      6  C   UNL     1      47.042   4.757  13.866  0.00  0.00    +0.000 A 
ATOM      7  N   UNL     1      47.813   5.721  13.309  0.00  0.00    +0.000 NA
ATOM      8  C   UNL     1      47.245   6.524  12.394  0.00  0.00    +0.000 A 
ATOM      9  N   UNL     1      47.976   7.556  11.772  0.00  0.00    +0.000 N 
ATOM     10  C   UNL     1      45.901   6.406  12.047  0.00  0.00    +0.000 A 
ATOM     11  H   UNL     1      47.978   7.390  10.769  0.00  0.00    +0.000 HD
BRANCH   9  12
ATOM     12  C   UNL     1      49.233   8.049  12.249  0.00  0.00    +0.000 C 
ATOM     13  C   UNL     1      49.501   9.502  11.799  0.00  0.00    +0.000 C 
ATOM     14  C   UNL     1      50.882   9.055  11.293  0.00  0.00    +0.000 C 
ATOM     15  C   UNL     1      50.377   7.604  11.308  0.00  0.00    +0.000 C 
ENDBRANCH   9  12
ENDBRANCH   1   4
BRANCH   1  16
ATOM     16  C   UNL     1      43.290   4.214  11.391  0.00  0.00    +0.000 C 
BRANCH  16  17
ATOM     17  N   UNL     1      43.600   4.538   9.980  0.00  0.00    +0.000 N 
ATOM     18  H   UNL     1      42.753   4.666   9.426  0.00  0.00    +0.000 HD
BRANCH  17  22
ATOM     19  C   UNL     1      46.372   2.258   7.868  0.00  0.00    +0.000 A 
ATOM     20  C   UNL     1      46.378   3.630   7.668  0.00  0.00    +0.000 A 
ATOM     21  C   UNL     1      45.473   4.412   8.389  0.00  0.00    +0.000 A 
ATOM     22  C   UNL     1      44.597   3.827   9.306  0.00  0.00    +0.000 A 
ATOM     23  C   UNL     1      44.661   2.429   9.397  0.00  0.00    +0.000 A 
ATOM     24  N   UNL     1      45.526   1.627   8.724  0.00  0.00    +0.000 NA
BRANCH  19  26
ATOM     25  N   UNL     1      48.419   2.030   6.586  0.00  0.00    +0.000 N 
ATOM     26  C   UNL     1      47.317   1.395   7.090  0.00  0.00    +0.000 C 
ATOM     27  O   UNL     1      47.131   0.196   6.919  0.00  0.00    +0.000 OA
ATOM     28  H   UNL     1      49.110   1.501   6.075  0.00  0.00    +0.000 HD
ATOM     29  H   UNL     1      48.555   3.018   6.770  0.00  0.00    +0.000 HD
ENDBRANCH  19  26
ENDBRANCH  17  22
ENDBRANCH  16  17
ENDBRANCH   1  16
TORSDOF 6
ENDMDL
MODEL 2
REMARK VINA RESULT:    -8.473      1.818      3.534
REMARK INTER + INTRA:         -12.371
REMARK INTER:                 -11.597
REMARK INTRA:                  -0.774
REMARK UNBOUND:                -0.926
REMARK  Name = 
REMARK  6 active torsions:
REMARK  status: ('A' for Active; 'I' for Inactive)
REMARK    1  A    between atoms: C_2  and  C_4
REMARK    2  A    between atoms: C_7  and  N_8
REMARK    3  A    between atoms: N_8  and  C_9
REMARK    4  A    between atoms: C_9  and  C_10
REMARK    5  A    between atoms: C_10  and  C_13
REMARK    6  A    between atoms: N_18  and  C_19
REMARK                            x       y       z     vdW  Elec       q    Type
REMARK                         _______ _______ _______ _____ _____    ______ ____
ROOT
ATOM      1  C   UNL     1      43.609   5.551  12.068  0.00  0.00    +0.000 C 
ATOM      2  F   UNL     1      43.318   6.708  11.403  0.00  0.00    +0.000 F 
ATOM      3  F   UNL     1      42.659   5.452  13.051  0.00  0.00    +0.000 F 
ENDROOT
BRANCH   1   4
ATOM      4  C   UNL     1      45.008   5.569  12.640  0.00  0.00    +0.000 A 
ATOM      5  C   UNL     1      46.065   6.196  11.983  0.00  0.00    +0.000 A 
ATOM      6  C   UNL     1      47.331   6.100  12.538  0.00  0.00    +0.000 A 
ATOM      7  N   UNL     1      47.610   5.418  13.673  0.00  0.00    +0.000 NA
ATOM      8  C   UNL     1      46.584   4.845  14.325  0.00  0.00    +0.000 A 
ATOM      9  N   UNL     1      46.790   4.111  15.511  0.00  0.00    +0.000 N 
ATOM     10  C   UNL     1      45.279   4.909  13.843  0.00  0.00    +0.000 A 
ATOM     11  H   UNL     1      46.257   4.549  16.257  0.00  0.00    +0.000 HD
BRANCH   9  12
ATOM     12  C   UNL     1      48.070   3.642  15.953  0.00  0.00    +0.000 C 
ATOM     13  C   UNL     1      47.951   2.587  17.074  0.00  0.00    +0.000 C 
ATOM     14  C   UNL     1      48.959   3.401  17.901  0.00  0.00    +0.000 C 
ATOM     15  C   UNL     1      48.663   4.611  17.003  0.00  0.00    +0.000 C 
ENDBRANCH   9  12
ENDBRANCH   1   4
BRANCH   1  16
ATOM     16  C   UNL     1      43.413   4.350  11.097  0.00  0.00    +0.000 C 
BRANCH  16  17
ATOM     17  N   UNL     1      43.700   4.703   9.688  0.00  0.00    +0.000 N 
ATOM     18  H   UNL     1      42.846   4.905   9.166  0.00  0.00    +0.000 HD
BRANCH  17  22
ATOM     19  C   UNL     1      46.657   2.616   7.627  0.00  0.00    +0.000 A 
ATOM     20  C   UNL     1      45.762   1.883   8.392  0.00  0.00    +0.000 A 
ATOM     21  C   UNL     1      44.749   2.565   9.068  0.00  0.00    +0.000 A 
ATOM     22  C   UNL     1      44.626   3.952   8.958  0.00  0.00    +0.000 A 
ATOM     23  C   UNL     1      45.607   4.587   8.183  0.00  0.00    +0.000 A 
ATOM     24  N   UNL     1      46.607   3.968   7.503  0.00  0.00    +0.000 NA
BRANCH  19  26
ATOM     25  N   UNL     1      48.651   2.717   6.250  0.00  0.00    +0.000 N 
ATOM     26  C   UNL     1      47.767   1.910   6.911  0.00  0.00    +0.000 C 
ATOM     27  O   UNL     1      47.890   0.690   6.919  0.00  0.00    +0.000 OA
ATOM     28  H   UNL     1      49.439   2.307   5.770  0.00  0.00    +0.000 HD
ATOM     29  H   UNL     1      48.535   3.724   6.288  0.00  0.00    +0.000 HD
ENDBRANCH  19  26
ENDBRANCH  17  22
ENDBRANCH  16  17
ENDBRANCH   1  16
TORSDOF 6
ENDMDL
MODEL 3
REMARK VINA RESULT:    -7.857      1.500      2.030
REMARK INTER + INTRA:         -11.540
REMARK INTER:                 -10.555
REMARK INTRA:                  -0.985
REMARK UNBOUND:                -0.926
REMARK  Name = 
REMARK  6 active torsions:
REMARK  status: ('A' for Active; 'I' for Inactive)
REMARK    1  A    between atoms: C_2  and  C_4
REMARK    2  A    between atoms: C_7  and  N_8
REMARK    3  A    between atoms: N_8  and  C_9
REMARK    4  A    between atoms: C_9  and  C_10
REMARK    5  A    between atoms: C_10  and  C_13
REMARK    6  A    between atoms: N_18  and  C_19
REMARK                            x       y       z     vdW  Elec       q    Type
REMARK                         _______ _______ _______ _____ _____    ______ ____
ROOT
ATOM      1  C   UNL     1      44.096   4.111  12.538  0.00  0.00    +0.000 C 
ATOM      2  F   UNL     1      43.251   4.045  13.610  0.00  0.00    +0.000 F 
ATOM      3  F   UNL     1      45.051   3.157  12.774  0.00  0.00    +0.000 F 
ENDROOT
BRANCH   1   4
ATOM      4  C   UNL     1      44.704   5.487  12.386  0.00  0.00    +0.000 A 
ATOM      5  C   UNL     1      44.107   6.474  11.604  0.00  0.00    +0.000 A 
ATOM      6  C   UNL     1      44.768   7.682  11.455  0.00  0.00    +0.000 A 
ATOM      7  N   UNL     1      45.970   7.959  12.012  0.00  0.00    +0.000 NA
ATOM      8  C   UNL     1      46.527   7.022  12.796  0.00  0.00    +0.000 A 
ATOM      9  N   UNL     1      47.780   7.229  13.409  0.00  0.00    +0.000 N 
ATOM     10  C   UNL     1      45.919   5.787  13.010  0.00  0.00    +0.000 A 
ATOM     11  H   UNL     1      47.660   7.167  14.416  0.00  0.00    +0.000 HD
BRANCH   9  12
ATOM     12  C   UNL     1      48.698   8.261  13.028  0.00  0.00    +0.000 C 
ATOM     13  C   UNL     1      49.444   7.925  11.718  0.00  0.00    +0.000 C 
ATOM     14  C   UNL     1      50.769   8.245  12.432  0.00  0.00    +0.000 C 
ATOM     15  C   UNL     1      50.041   8.087  13.775  0.00  0.00    +0.000 C 
ENDBRANCH   9  12
ENDBRANCH   1   4
BRANCH   1  16
ATOM     16  C   UNL     1      43.317   3.695  11.257  0.00  0.00    +0.000 C 
BRANCH  16  17
ATOM     17  N   UNL     1      43.884   2.489  10.611  0.00  0.00    +0.000 N 
ATOM     18  H   UNL     1      44.165   1.788  11.297  0.00  0.00    +0.000 HD
BRANCH  17  22
ATOM     19  C   UNL     1      46.451   2.721   7.340  0.00  0.00    +0.000 A 
ATOM     20  C   UNL     1      45.914   3.904   7.824  0.00  0.00    +0.000 A 
ATOM     21  C   UNL     1      45.072   3.846   8.936  0.00  0.00    +0.000 A 
ATOM     22  C   UNL     1      44.796   2.627   9.560  0.00  0.00    +0.000 A 
ATOM     23  C   UNL     1      45.371   1.497   8.962  0.00  0.00    +0.000 A 
ATOM     24  N   UNL     1      46.199   1.502   7.886  0.00  0.00    +0.000 NA
BRANCH  19  26
ATOM     25  N   UNL     1      48.665   2.513   6.369  0.00  0.00    +0.000 N 
ATOM     26  C   UNL     1      47.339   2.753   6.134  0.00  0.00    +0.000 C 
ATOM     27  O   UNL     1      46.913   2.969   5.004  0.00  0.00    +0.000 OA
ATOM     28  H   UNL     1      49.313   2.493   5.595  0.00  0.00    +0.000 HD
ATOM     29  H   UNL     1      48.977   2.310   7.312  0.00  0.00    +0.000 HD
ENDBRANCH  19  26
ENDBRANCH  17  22
ENDBRANCH  16  17
ENDBRANCH   1  16
TORSDOF 6
ENDMDL
MODEL 4
REMARK VINA RESULT:    -7.570      3.289      7.226
REMARK INTER + INTRA:         -11.151
REMARK INTER:                 -10.393
REMARK INTRA:                  -0.758
REMARK UNBOUND:                -0.926
REMARK  Name = 
REMARK  6 active torsions:
REMARK  status: ('A' for Active; 'I' for Inactive)
REMARK    1  A    between atoms: C_2  and  C_4
REMARK    2  A    between atoms: C_7  and  N_8
REMARK    3  A    between atoms: N_8  and  C_9
REMARK    4  A    between atoms: C_9  and  C_10
REMARK    5  A    between atoms: C_10  and  C_13
REMARK    6  A    between atoms: N_18  and  C_19
REMARK                            x       y       z     vdW  Elec       q    Type
REMARK                         _______ _______ _______ _____ _____    ______ ____
ROOT
ATOM      1  C   UNL     1      45.286   6.188  12.090  0.00  0.00    +0.000 C 
ATOM      2  F   UNL     1      44.539   6.121  13.233  0.00  0.00    +0.000 F 
ATOM      3  F   UNL     1      44.995   7.410  11.542  0.00  0.00    +0.000 F 
ENDROOT
BRANCH   1   4
ATOM      4  C   UNL     1      44.963   5.056  11.141  0.00  0.00    +0.000 A 
ATOM      5  C   UNL     1      44.163   3.980  11.522  0.00  0.00    +0.000 A 
ATOM      6  C   UNL     1      43.980   2.947  10.618  0.00  0.00    +0.000 A 
ATOM      7  N   UNL     1      44.546   2.909   9.388  0.00  0.00    +0.000 NA
ATOM      8  C   UNL     1      45.286   3.964   9.009  0.00  0.00    +0.000 A 
ATOM      9  N   UNL     1      45.915   4.000   7.747  0.00  0.00    +0.000 N 
ATOM     10  C   UNL     1      45.505   5.050   9.853  0.00  0.00    +0.000 A 
ATOM     11  H   UNL     1      45.563   4.805   7.235  0.00  0.00    +0.000 HD
BRANCH   9  12
ATOM     12  C   UNL     1      46.098   2.853   6.909  0.00  0.00    +0.000 C 
ATOM     13  C   UNL     1      47.329   2.017   7.322  0.00  0.00    +0.000 C 
ATOM     14  C   UNL     1      47.800   2.051   5.858  0.00  0.00    +0.000 C 
ATOM     15  C   UNL     1      46.863   3.245   5.623  0.00  0.00    +0.000 C 
ENDBRANCH   9  12
ENDBRANCH   1   4
BRANCH   1  16
ATOM     16  C   UNL     1      46.794   6.188  12.475  0.00  0.00    +0.000 C 
BRANCH  16  17
ATOM     17  N   UNL     1      47.023   6.580  13.885  0.00  0.00    +0.000 N 
ATOM     18  H   UNL     1      47.459   7.500  13.956  0.00  0.00    +0.000 HD
BRANCH  17  22
ATOM     19  C   UNL     1      48.548   3.997  16.774  0.00  0.00    +0.000 A 
ATOM     20  C   UNL     1      47.503   3.540  15.986  0.00  0.00    +0.000 A 
ATOM     21  C   UNL     1      46.997   4.384  14.995  0.00  0.00    +0.000 A 
ATOM     22  C   UNL     1      47.548   5.651  14.788  0.00  0.00    +0.000 A 
ATOM     23  C   UNL     1      48.579   6.014  15.666  0.00  0.00    +0.000 A 
ATOM     24  N   UNL     1      49.107   5.228  16.640  0.00  0.00    +0.000 NA
BRANCH  19  26
ATOM     25  N   UNL     1      48.425   3.171  19.052  0.00  0.00    +0.000 N 
ATOM     26  C   UNL     1      49.093   3.120  17.859  0.00  0.00    +0.000 C 
ATOM     27  O   UNL     1      50.066   2.392  17.696  0.00  0.00    +0.000 OA
ATOM     28  H   UNL     1      48.723   2.584  19.817  0.00  0.00    +0.000 HD
ATOM     29  H   UNL     1      47.607   3.763  19.142  0.00  0.00    +0.000 HD
ENDBRANCH  19  26
ENDBRANCH  17  22
ENDBRANCH  16  17
ENDBRANCH   1  16
TORSDOF 6
ENDMDL
MODEL 5
REMARK VINA RESULT:    -6.785      2.504      3.094
REMARK INTER + INTRA:         -10.091
REMARK INTER:                  -9.624
REMARK INTRA:                  -0.467
REMARK UNBOUND:                -0.926
REMARK  Name = 
REMARK  6 active torsions:
REMARK  status: ('A' for Active; 'I' for Inactive)
REMARK    1  A    between atoms: C_2  and  C_4
REMARK    2  A    between atoms: C_7  and  N_8
REMARK    3  A    between atoms: N_8  and  C_9
REMARK    4  A    between atoms: C_9  and  C_10
REMARK    5  A    between atoms: C_10  and  C_13
REMARK    6  A    between atoms: N_18  and  C_19
REMARK                            x       y       z     vdW  Elec       q    Type
REMARK                         _______ _______ _______ _____ _____    ______ ____
ROOT
ATOM      1  C   UNL     1      44.926   6.874  11.645  0.00  0.00    +0.000 C 
ATOM      2  F   UNL     1      44.900   7.440  10.402  0.00  0.00    +0.000 F 
ATOM      3  F   UNL     1      43.888   7.454  12.327  0.00  0.00    +0.000 F 
ENDROOT
BRANCH   1   4
ATOM      4  C   UNL     1      46.251   7.103  12.338  0.00  0.00    +0.000 A 
ATOM      5  C   UNL     1      47.377   6.335  12.049  0.00  0.00    +0.000 A 
ATOM      6  C   UNL     1      48.529   6.559  12.784  0.00  0.00    +0.000 A 
ATOM      7  N   UNL     1      48.625   7.470  13.781  0.00  0.00    +0.000 NA
ATOM      8  C   UNL     1      47.551   8.235  14.033  0.00  0.00    +0.000 A 
ATOM      9  N   UNL     1      47.567   9.203  15.059  0.00  0.00    +0.000 N 
ATOM     10  C   UNL     1      46.360   8.084  13.329  0.00  0.00    +0.000 A 
ATOM     11  H   UNL     1      47.391  10.114  14.644  0.00  0.00    +0.000 HD
BRANCH   9  12
ATOM     12  C   UNL     1      48.551   9.254  16.099  0.00  0.00    +0.000 C 
ATOM     13  C   UNL     1      48.683   7.908  16.845  0.00  0.00    +0.000 C 
ATOM     14  C   UNL     1      48.536   8.669  18.173  0.00  0.00    +0.000 C 
ATOM     15  C   UNL     1      47.938   9.847  17.389  0.00  0.00    +0.000 C 
ENDBRANCH   9  12
ENDBRANCH   1   4
BRANCH   1  16
ATOM     16  C   UNL     1      44.616   5.354  11.513  0.00  0.00    +0.000 C 
BRANCH  16  17
ATOM     17  N   UNL     1      44.077   4.997  10.181  0.00  0.00    +0.000 N 
ATOM     18  H   UNL     1      43.087   4.751  10.226  0.00  0.00    +0.000 HD
BRANCH  17  22
ATOM     19  C   UNL     1      46.496   2.637   7.747  0.00  0.00    +0.000 A 
ATOM     20  C   UNL     1      45.633   1.992   8.619  0.00  0.00    +0.000 A 
ATOM     21  C   UNL     1      44.796   2.769   9.424  0.00  0.00    +0.000 A 
ATOM     22  C   UNL     1      44.813   4.162   9.334  0.00  0.00    +0.000 A 
ATOM     23  C   UNL     1      45.749   4.701   8.440  0.00  0.00    +0.000 A 
ATOM     24  N   UNL     1      46.578   3.989   7.634  0.00  0.00    +0.000 NA
BRANCH  19  26
ATOM     25  N   UNL     1      48.495   2.501   6.380  0.00  0.00    +0.000 N 
ATOM     26  C   UNL     1      47.420   1.828   6.890  0.00  0.00    +0.000 C 
ATOM     27  O   UNL     1      47.239   0.637   6.663  0.00  0.00    +0.000 OA
ATOM     28  H   UNL     1      49.173   2.008   5.817  0.00  0.00    +0.000 HD
ATOM     29  H   UNL     1      48.629   3.480   6.612  0.00  0.00    +0.000 HD
ENDBRANCH  19  26
ENDBRANCH  17  22
ENDBRANCH  16  17
ENDBRANCH   1  16
TORSDOF 6
ENDMDL
MODEL 6
REMARK VINA RESULT:    -6.749      1.734      2.373
REMARK INTER + INTRA:         -10.043
REMARK INTER:                  -9.353
REMARK INTRA:                  -0.690
REMARK UNBOUND:                -0.926
REMARK  Name = 
REMARK  6 active torsions:
REMARK  status: ('A' for Active; 'I' for Inactive)
REMARK    1  A    between atoms: C_2  and  C_4
REMARK    2  A    between atoms: C_7  and  N_8
REMARK    3  A    between atoms: N_8  and  C_9
REMARK    4  A    between atoms: C_9  and  C_10
REMARK    5  A    between atoms: C_10  and  C_13
REMARK    6  A    between atoms: N_18  and  C_19
REMARK                            x       y       z     vdW  Elec       q    Type
REMARK                         _______ _______ _______ _____ _____    ______ ____
ROOT
ATOM      1  C   UNL     1      45.352   6.787  12.075  0.00  0.00    +0.000 C 
ATOM      2  F   UNL     1      44.858   7.395  10.956  0.00  0.00    +0.000 F 
ATOM      3  F   UNL     1      44.361   6.902  13.014  0.00  0.00    +0.000 F 
ENDROOT
BRANCH   1   4
ATOM      4  C   UNL     1      46.641   7.427  12.539  0.00  0.00    +0.000 A 
ATOM      5  C   UNL     1      46.665   8.397  13.538  0.00  0.00    +0.000 A 
ATOM      6  C   UNL     1      47.879   8.988  13.850  0.00  0.00    +0.000 A 
ATOM      7  N   UNL     1      49.045   8.691  13.230  0.00  0.00    +0.000 NA
ATOM      8  C   UNL     1      49.028   7.729  12.293  0.00  0.00    +0.000 A 
ATOM      9  N   UNL     1      50.198   7.364  11.597  0.00  0.00    +0.000 N 
ATOM     10  C   UNL     1      47.852   7.075  11.933  0.00  0.00    +0.000 A 
ATOM     11  H   UNL     1      50.382   6.379  11.769  0.00  0.00    +0.000 HD
BRANCH   9  12
ATOM     12  C   UNL     1      51.395   8.150  11.573  0.00  0.00    +0.000 C 
ATOM     13  C   UNL     1      51.244   9.420  10.706  0.00  0.00    +0.000 C 
ATOM     14  C   UNL     1      52.545   9.038   9.981  0.00  0.00    +0.000 C 
ATOM     15  C   UNL     1      52.374   7.605  10.506  0.00  0.00    +0.000 C 
ENDBRANCH   9  12
ENDBRANCH   1   4
BRANCH   1  16
ATOM     16  C   UNL     1      45.550   5.272  11.778  0.00  0.00    +0.000 C 
BRANCH  16  17
ATOM     17  N   UNL     1      44.675   4.785  10.687  0.00  0.00    +0.000 N 
ATOM     18  H   UNL     1      43.846   4.313  11.048  0.00  0.00    +0.000 HD
BRANCH  17  22
ATOM     19  C   UNL     1      46.586   2.987   7.453  0.00  0.00    +0.000 A 
ATOM     20  C   UNL     1      45.922   2.164   8.350  0.00  0.00    +0.000 A 
ATOM     21  C   UNL     1      45.254   2.754   9.425  0.00  0.00    +0.000 A 
ATOM     22  C   UNL     1      45.237   4.142   9.580  0.00  0.00    +0.000 A 
ATOM     23  C   UNL     1      45.970   4.866   8.629  0.00  0.00    +0.000 A 
ATOM     24  N   UNL     1      46.630   4.340   7.565  0.00  0.00    +0.000 NA
BRANCH  19  26
ATOM     25  N   UNL     1      47.203   3.026   5.107  0.00  0.00    +0.000 N 
ATOM     26  C   UNL     1      47.330   2.378   6.304  0.00  0.00    +0.000 C 
ATOM     27  O   UNL     1      48.018   1.370   6.421  0.00  0.00    +0.000 OA
ATOM     28  H   UNL     1      47.701   2.684   4.298  0.00  0.00    +0.000 HD
ATOM     29  H   UNL     1      46.648   3.873   5.054  0.00  0.00    +0.000 HD
ENDBRANCH  19  26
ENDBRANCH  17  22
ENDBRANCH  16  17
ENDBRANCH   1  16
TORSDOF 6
ENDMDL
MODEL 7
REMARK VINA RESULT:    -6.604      3.064      6.796
REMARK INTER + INTRA:          -9.847
REMARK INTER:                  -9.135
REMARK INTRA:                  -0.712
REMARK UNBOUND:                -0.926
REMARK  Name = 
REMARK  6 active torsions:
REMARK  status: ('A' for Active; 'I' for Inactive)
REMARK    1  A    between atoms: C_2  and  C_4
REMARK    2  A    between atoms: C_7  and  N_8
REMARK    3  A    between atoms: N_8  and  C_9
REMARK    4  A    between atoms: C_9  and  C_10
REMARK    5  A    between atoms: C_10  and  C_13
REMARK    6  A    between atoms: N_18  and  C_19
REMARK                            x       y       z     vdW  Elec       q    Type
REMARK                         _______ _______ _______ _____ _____    ______ ____
ROOT
ATOM      1  C   UNL     1      44.882   5.583  12.818  0.00  0.00    +0.000 C 
ATOM      2  F   UNL     1      45.794   5.107  13.717  0.00  0.00    +0.000 F 
ATOM      3  F   UNL     1      43.762   5.864  13.556  0.00  0.00    +0.000 F 
ENDROOT
BRANCH   1   4
ATOM      4  C   UNL     1      44.596   4.579  11.723  0.00  0.00    +0.000 A 
ATOM      5  C   UNL     1      43.847   3.427  11.957  0.00  0.00    +0.000 A 
ATOM      6  C   UNL     1      43.696   2.522  10.920  0.00  0.00    +0.000 A 
ATOM      7  N   UNL     1      44.247   2.679   9.693  0.00  0.00    +0.000 NA
ATOM      8  C   UNL     1      44.937   3.807   9.458  0.00  0.00    +0.000 A 
ATOM      9  N   UNL     1      45.547   4.045   8.209  0.00  0.00    +0.000 N 
ATOM     10  C   UNL     1      45.120   4.775  10.442  0.00  0.00    +0.000 A 
ATOM     11  H   UNL     1      45.154   4.896   7.816  0.00  0.00    +0.000 HD
BRANCH   9  12
ATOM     12  C   UNL     1      45.767   3.034   7.218  0.00  0.00    +0.000 C 
ATOM     13  C   UNL     1      46.798   1.980   7.678  0.00  0.00    +0.000 C 
ATOM     14  C   UNL     1      47.547   2.184   6.351  0.00  0.00    +0.000 C 
ATOM     15  C   UNL     1      46.806   3.518   6.180  0.00  0.00    +0.000 C 
ENDBRANCH   9  12
ENDBRANCH   1   4
BRANCH   1  16
ATOM     16  C   UNL     1      45.409   6.924  12.228  0.00  0.00    +0.000 C 
BRANCH  16  17
ATOM     17  N   UNL     1      46.183   7.715  13.212  0.00  0.00    +0.000 N 
ATOM     18  H   UNL     1      45.666   8.536  13.528  0.00  0.00    +0.000 HD
BRANCH  17  22
ATOM     19  C   UNL     1      50.274   8.365  12.784  0.00  0.00    +0.000 A 
ATOM     20  C   UNL     1      49.623   7.664  11.780  0.00  0.00    +0.000 A 
ATOM     21  C   UNL     1      48.247   7.460  11.896  0.00  0.00    +0.000 A 
ATOM     22  C   UNL     1      47.539   7.971  12.986  0.00  0.00    +0.000 A 
ATOM     23  C   UNL     1      48.310   8.634  13.951  0.00  0.00    +0.000 A 
ATOM     24  N   UNL     1      49.646   8.862  13.882  0.00  0.00    +0.000 NA
BRANCH  19  26
ATOM     25  N   UNL     1      52.407   7.810  11.769  0.00  0.00    +0.000 N 
ATOM     26  C   UNL     1      51.755   8.577  12.695  0.00  0.00    +0.000 C 
ATOM     27  O   UNL     1      52.350   9.389  13.394  0.00  0.00    +0.000 OA
ATOM     28  H   UNL     1      53.402   7.924  11.638  0.00  0.00    +0.000 HD
ATOM     29  H   UNL     1      51.878   7.169  11.188  0.00  0.00    +0.000 HD
ENDBRANCH  19  26
ENDBRANCH  17  22
ENDBRANCH  16  17
ENDBRANCH   1  16
TORSDOF 6
ENDMDL
MODEL 8
REMARK VINA RESULT:    -6.352      5.203      6.838
REMARK INTER + INTRA:          -9.507
REMARK INTER:                  -8.985
REMARK INTRA:                  -0.522
REMARK UNBOUND:                -0.926
REMARK  Name = 
REMARK  6 active torsions:
REMARK  status: ('A' for Active; 'I' for Inactive)
REMARK    1  A    between atoms: C_2  and  C_4
REMARK    2  A    between atoms: C_7  and  N_8
REMARK    3  A    between atoms: N_8  and  C_9
REMARK    4  A    between atoms: C_9  and  C_10
REMARK    5  A    between atoms: C_10  and  C_13
REMARK    6  A    between atoms: N_18  and  C_19
REMARK                            x       y       z     vdW  Elec       q    Type
REMARK                         _______ _______ _______ _____ _____    ______ ____
ROOT
ATOM      1  C   UNL     1      47.512   3.647  16.896  0.00  0.00    +0.000 C 
ATOM      2  F   UNL     1      46.762   4.708  17.320  0.00  0.00    +0.000 F 
ATOM      3  F   UNL     1      46.983   2.555  17.533  0.00  0.00    +0.000 F 
ENDROOT
BRANCH   1   4
ATOM      4  C   UNL     1      48.977   3.831  17.220  0.00  0.00    +0.000 A 
ATOM      5  C   UNL     1      49.559   5.094  17.313  0.00  0.00    +0.000 A 
ATOM      6  C   UNL     1      50.924   5.172  17.538  0.00  0.00    +0.000 A 
ATOM      7  N   UNL     1      51.733   4.093  17.655  0.00  0.00    +0.000 NA
ATOM      8  C   UNL     1      51.166   2.877  17.602  0.00  0.00    +0.000 A 
ATOM      9  N   UNL     1      51.939   1.703  17.710  0.00  0.00    +0.000 N 
ATOM     10  C   UNL     1      49.798   2.713  17.396  0.00  0.00    +0.000 A 
ATOM     11  H   UNL     1      51.614   1.176  18.517  0.00  0.00    +0.000 HD
BRANCH   9  12
ATOM     12  C   UNL     1      53.364   1.665  17.568  0.00  0.00    +0.000 C 
ATOM     13  C   UNL     1      53.895   0.227  17.380  0.00  0.00    +0.000 C 
ATOM     14  C   UNL     1      54.909   0.491  18.505  0.00  0.00    +0.000 C 
ATOM     15  C   UNL     1      54.043   1.676  18.958  0.00  0.00    +0.000 C 
ENDBRANCH   9  12
ENDBRANCH   1   4
BRANCH   1  16
ATOM     16  C   UNL     1      47.292   3.456  15.367  0.00  0.00    +0.000 C 
BRANCH  16  17
ATOM     17  N   UNL     1      46.250   4.356  14.823  0.00  0.00    +0.000 N 
ATOM     18  H   UNL     1      45.359   4.241  15.308  0.00  0.00    +0.000 HD
BRANCH  17  22
ATOM     19  C   UNL     1      45.571   4.701  10.729  0.00  0.00    +0.000 A 
ATOM     20  C   UNL     1      46.041   5.818  11.402  0.00  0.00    +0.000 A 
ATOM     21  C   UNL     1      46.299   5.712  12.770  0.00  0.00    +0.000 A 
ATOM     22  C   UNL     1      46.109   4.501  13.440  0.00  0.00    +0.000 A 
ATOM     23  C   UNL     1      45.600   3.452  12.661  0.00  0.00    +0.000 A 
ATOM     24  N   UNL     1      45.339   3.504  11.330  0.00  0.00    +0.000 NA
BRANCH  19  26
ATOM     25  N   UNL     1      44.021   4.365   8.893  0.00  0.00    +0.000 N 
ATOM     26  C   UNL     1      45.264   4.796   9.266  0.00  0.00    +0.000 C 
ATOM     27  O   UNL     1      46.065   5.238   8.449  0.00  0.00    +0.000 OA
ATOM     28  H   UNL     1      43.740   4.428   7.925  0.00  0.00    +0.000 HD
ATOM     29  H   UNL     1      43.374   4.032   9.600  0.00  0.00    +0.000 HD
ENDBRANCH  19  26
ENDBRANCH  17  22
ENDBRANCH  16  17
ENDBRANCH   1  16
TORSDOF 6
ENDMDL
MODEL 9
REMARK VINA RESULT:    -6.135      3.979      7.865
REMARK INTER + INTRA:          -9.214
REMARK INTER:                  -8.524
REMARK INTRA:                  -0.689
REMARK UNBOUND:                -0.926
REMARK  Name = 
REMARK  6 active torsions:
REMARK  status: ('A' for Active; 'I' for Inactive)
REMARK    1  A    between atoms: C_2  and  C_4
REMARK    2  A    between atoms: C_7  and  N_8
REMARK    3  A    between atoms: N_8  and  C_9
REMARK    4  A    between atoms: C_9  and  C_10
REMARK    5  A    between atoms: C_10  and  C_13
REMARK    6  A    between atoms: N_18  and  C_19
REMARK                            x       y       z     vdW  Elec       q    Type
REMARK                         _______ _______ _______ _____ _____    ______ ____
ROOT
ATOM      1  C   UNL     1      45.444   5.768  12.871  0.00  0.00    +0.000 C 
ATOM      2  F   UNL     1      45.635   5.146  14.072  0.00  0.00    +0.000 F 
ATOM      3  F   UNL     1      44.534   6.761  13.119  0.00  0.00    +0.000 F 
ENDROOT
BRANCH   1   4
ATOM      4  C   UNL     1      44.950   4.806  11.814  0.00  0.00    +0.000 A 
ATOM      5  C   UNL     1      44.019   3.810  12.101  0.00  0.00    +0.000 A 
ATOM      6  C   UNL     1      43.677   2.922  11.094  0.00  0.00    +0.000 A 
ATOM      7  N   UNL     1      44.207   2.951   9.848  0.00  0.00    +0.000 NA
ATOM      8  C   UNL     1      45.076   3.934   9.562  0.00  0.00    +0.000 A 
ATOM      9  N   UNL     1      45.676   4.032   8.290  0.00  0.00    +0.000 N 
ATOM     10  C   UNL     1      45.459   4.876  10.513  0.00  0.00    +0.000 A 
ATOM     11  H   UNL     1      45.427   4.930   7.884  0.00  0.00    +0.000 HD
BRANCH   9  12
ATOM     12  C   UNL     1      45.683   2.976   7.322  0.00  0.00    +0.000 C 
ATOM     13  C   UNL     1      46.594   1.803   7.744  0.00  0.00    +0.000 C 
ATOM     14  C   UNL     1      47.261   1.868   6.360  0.00  0.00    +0.000 C 
ATOM     15  C   UNL     1      46.696   3.286   6.195  0.00  0.00    +0.000 C 
ENDBRANCH   9  12
ENDBRANCH   1   4
BRANCH   1  16
ATOM     16  C   UNL     1      46.778   6.444  12.437  0.00  0.00    +0.000 C 
BRANCH  16  17
ATOM     17  N   UNL     1      47.018   7.730  13.132  0.00  0.00    +0.000 N 
ATOM     18  H   UNL     1      47.116   8.504  12.474  0.00  0.00    +0.000 HD
BRANCH  17  22
ATOM     19  C   UNL     1      49.533   8.017  16.438  0.00  0.00    +0.000 A 
ATOM     20  C   UNL     1      49.384   6.772  15.847  0.00  0.00    +0.000 A 
ATOM     21  C   UNL     1      48.564   6.664  14.721  0.00  0.00    +0.000 A 
ATOM     22  C   UNL     1      47.929   7.788  14.191  0.00  0.00    +0.000 A 
ATOM     23  C   UNL     1      48.130   8.985  14.893  0.00  0.00    +0.000 A 
ATOM     24  N   UNL     1      48.920   9.142  15.986  0.00  0.00    +0.000 NA
BRANCH  19  26
ATOM     25  N   UNL     1      51.299   7.155  17.861  0.00  0.00    +0.000 N 
ATOM     26  C   UNL     1      50.388   8.156  17.660  0.00  0.00    +0.000 C 
ATOM     27  O   UNL     1      50.293   9.105  18.430  0.00  0.00    +0.000 OA
ATOM     28  H   UNL     1      51.926   7.201  18.651  0.00  0.00    +0.000 HD
ATOM     29  H   UNL     1      51.369   6.400  17.188  0.00  0.00    +0.000 HD
ENDBRANCH  19  26
ENDBRANCH  17  22
ENDBRANCH  16  17
ENDBRANCH   1  16
TORSDOF 6
ENDMDL
