MODEL 1
REMARK VINA RESULT:    -8.180      0.000      0.000
REMARK INTER + INTRA:         -10.385
REMARK INTER:                 -10.092
REMARK INTRA:                  -0.292
REMARK UNBOUND:                -0.292
REMARK  Name = 
REMARK  5 active torsions:
REMARK  status: ('A' for Active; 'I' for Inactive)
REMARK    1  A    between atoms: C_1  and  C_2
REMARK    2  A    between atoms: C_2  and  O_3
REMARK    3  A    between atoms: C_2  and  C_13
REMARK    4  A    between atoms: O_3  and  C_4
REMARK    5  A    between atoms: C_7  and  C_8
REMARK                            x       y       z     vdW  Elec       q    Type
REMARK                         _______ _______ _______ _____ _____    ______ ____
ROOT
ATOM      1  C   UNL     1      44.775   4.084   9.158  0.00  0.00    +0.000 A 
ATOM      2  C   UNL     1      44.756   2.711   9.319  0.00  0.00    +0.000 A 
ATOM      3  C   UNL     1      45.655   1.941   8.594  0.00  0.00    +0.000 A 
ATOM      4  C   UNL     1      46.511   2.589   7.721  0.00  0.00    +0.000 A 
ATOM      5  N   UNL     1      46.508   3.941   7.574  0.00  0.00    +0.000 NA
ATOM      6  N   UNL     1      45.626   4.700   8.309  0.00  0.00    +0.000 NA
ENDROOT
BRANCH   4   7
ATOM      7  C   UNL     1      47.453   1.798   6.878  0.00  0.00    +0.000 C 
ATOM      8  N   UNL     1      48.555   2.456   6.398  0.00  0.00    +0.000 N 
ATOM      9  O   UNL     1      47.253   0.621   6.608  0.00  0.00    +0.000 OA
ATOM     10  H   UNL     1      48.710   3.437   6.592  0.00  0.00    +0.000 HD
ATOM     11  H   UNL     1      49.188   1.955   5.788  0.00  0.00    +0.000 HD
ENDBRANCH   4   7
BRANCH   1  12
ATOM     12  O   UNL     1      43.823   4.787   9.854  0.00  0.00    +0.000 OA
BRANCH  12  14
ATOM     13  C   UNL     1      42.465   5.189  11.846  0.00  0.00    +0.000 C 
ATOM     14  C   UNL     1      43.625   4.408  11.224  0.00  0.00    +0.000 C 
BRANCH  14  15
ATOM     15  C   UNL     1      44.918   4.771  11.952  0.00  0.00    +0.000 A 
ATOM     16  C   UNL     1      45.515   6.018  11.761  0.00  0.00    +0.000 A 
ATOM     17  C   UNL     1      46.663   6.335  12.486  0.00  0.00    +0.000 A 
ATOM     18  C   UNL     1      47.192   5.407  13.373  0.00  0.00    +0.000 A 
ATOM     19  C   UNL     1      46.558   4.183  13.486  0.00  0.00    +0.000 A 
ATOM     20  N   UNL     1      45.447   3.845  12.797  0.00  0.00    +0.000 NA
ENDBRANCH  14  15
ENDBRANCH  12  14
ENDBRANCH   1  12
TORSDOF 4
ENDMDL
MODEL 2
REMARK VINA RESULT:    -6.724      2.943      6.281
REMARK INTER + INTRA:          -8.588
REMARK INTER:                  -8.087
REMARK INTRA:                  -0.501
REMARK UNBOUND:                -0.292
REMARK  Name = 
REMARK  5 active torsions:
REMARK  status: ('A' for Active; 'I' for Inactive)
REMARK    1  A    between atoms: C_1  and  C_2
REMARK    2  A    between atoms: C_2  and  O_3
REMARK    3  A    between atoms: C_2  and  C_13
REMARK    4  A    between atoms: O_3  and  C_4
REMARK    5  A    between atoms: C_7  and  C_8
REMARK                            x       y       z     vdW  Elec       q    Type
REMARK                         _______ _______ _______ _____ _____    ______ ____
ROOT
ATOM      1  C   UNL     1      46.094   4.421  13.115  0.00  0.00    +0.000 A 
ATOM      2  C   UNL     1      46.378   5.707  12.695  0.00  0.00    +0.000 A 
ATOM      3  C   UNL     1      47.285   6.463  13.424  0.00  0.00    +0.000 A 
ATOM      4  C   UNL     1      47.841   5.897  14.559  0.00  0.00    +0.000 A 
ATOM      5  N   UNL     1      47.543   4.631  14.957  0.00  0.00    +0.000 NA
ATOM      6  N   UNL     1      46.655   3.881  14.219  0.00  0.00    +0.000 NA
ENDROOT
BRANCH   4   7
ATOM      7  C   UNL     1      48.775   6.693  15.406  0.00  0.00    +0.000 C 
ATOM      8  N   UNL     1      48.346   7.931  15.805  0.00  0.00    +0.000 N 
ATOM      9  O   UNL     1      49.882   6.276  15.723  0.00  0.00    +0.000 OA
ATOM     10  H   UNL     1      47.444   8.294  15.521  0.00  0.00    +0.000 HD
ATOM     11  H   UNL     1      48.975   8.510  16.344  0.00  0.00    +0.000 HD
ENDBRANCH   4   7
BRANCH   1  12
ATOM     12  O   UNL     1      45.145   3.744  12.390  0.00  0.00    +0.000 OA
BRANCH  12  14
ATOM     13  C   UNL     1      42.988   4.341  11.409  0.00  0.00    +0.000 C 
ATOM     14  C   UNL     1      44.511   4.475  11.331  0.00  0.00    +0.000 C 
BRANCH  14  15
ATOM     15  C   UNL     1      45.002   3.844  10.030  0.00  0.00    +0.000 A 
ATOM     16  C   UNL     1      45.498   4.640   8.997  0.00  0.00    +0.000 A 
ATOM     17  C   UNL     1      45.990   4.026   7.847  0.00  0.00    +0.000 A 
ATOM     18  C   UNL     1      45.970   2.640   7.748  0.00  0.00    +0.000 A 
ATOM     19  C   UNL     1      45.437   1.922   8.803  0.00  0.00    +0.000 A 
ATOM     20  N   UNL     1      44.951   2.488   9.928  0.00  0.00    +0.000 NA
ENDBRANCH  14  15
ENDBRANCH  12  14
ENDBRANCH   1  12
TORSDOF 4
ENDMDL
MODEL 3
REMARK VINA RESULT:    -6.505      4.569      7.374
REMARK INTER + INTRA:          -8.319
REMARK INTER:                  -7.864
REMARK INTRA:                  -0.455
REMARK UNBOUND:                -0.292
REMARK  Name = 
REMARK  5 active torsions:
REMARK  status: ('A' for Active; 'I' for Inactive)
REMARK    1  A    between atoms: C_1  and  C_2
REMARK    2  A    between atoms: C_2  and  O_3
REMARK    3  A    between atoms: C_2  and  C_13
REMARK    4  A    between atoms: O_3  and  C_4
REMARK    5  A    between atoms: C_7  and  C_8
REMARK                            x       y       z     vdW  Elec       q    Type
REMARK                         _______ _______ _______ _____ _____    ______ ____
ROOT
ATOM      1  C   UNL     1      47.514   3.839  15.575  0.00  0.00    +0.000 A 
ATOM      2  C   UNL     1      48.070   4.563  16.613  0.00  0.00    +0.000 A 
ATOM      3  C   UNL     1      49.158   4.031  17.291  0.00  0.00    +0.000 A 
ATOM      4  C   UNL     1      49.616   2.782  16.907  0.00  0.00    +0.000 A 
ATOM      5  N   UNL     1      49.050   2.085  15.886  0.00  0.00    +0.000 NA
ATOM      6  N   UNL     1      47.981   2.626  15.207  0.00  0.00    +0.000 NA
ENDROOT
BRANCH   4   7
ATOM      7  C   UNL     1      50.744   2.145  17.645  0.00  0.00    +0.000 C 
ATOM      8  N   UNL     1      51.464   2.949  18.489  0.00  0.00    +0.000 N 
ATOM      9  O   UNL     1      51.033   0.964  17.499  0.00  0.00    +0.000 OA
ATOM     10  H   UNL     1      51.250   3.933  18.590  0.00  0.00    +0.000 HD
ATOM     11  H   UNL     1      52.262   2.554  18.969  0.00  0.00    +0.000 HD
ENDBRANCH   4   7
BRANCH   1  12
ATOM     12  O   UNL     1      46.403   4.388  14.983  0.00  0.00    +0.000 OA
BRANCH  12  14
ATOM     13  C   UNL     1      46.911   6.306  13.557  0.00  0.00    +0.000 C 
ATOM     14  C   UNL     1      46.552   4.820  13.623  0.00  0.00    +0.000 C 
BRANCH  14  15
ATOM     15  C   UNL     1      45.194   4.604  12.960  0.00  0.00    +0.000 A 
ATOM     16  C   UNL     1      44.316   5.673  12.774  0.00  0.00    +0.000 A 
ATOM     17  C   UNL     1      43.108   5.450  12.115  0.00  0.00    +0.000 A 
ATOM     18  C   UNL     1      42.800   4.172  11.665  0.00  0.00    +0.000 A 
ATOM     19  C   UNL     1      43.709   3.160  11.912  0.00  0.00    +0.000 A 
ATOM     20  N   UNL     1      44.885   3.345  12.549  0.00  0.00    +0.000 NA
ENDBRANCH  14  15
ENDBRANCH  12  14
ENDBRANCH   1  12
TORSDOF 4
ENDMDL
MODEL 4
REMARK VINA RESULT:    -6.497      4.074      6.299
REMARK INTER + INTRA:          -8.308
REMARK INTER:                  -7.831
REMARK INTRA:                  -0.477
REMARK UNBOUND:                -0.292
REMARK  Name = 
REMARK  5 active torsions:
REMARK  status: ('A' for Active; 'I' for Inactive)
REMARK    1  A    between atoms: C_1  and  C_2
REMARK    2  A    between atoms: C_2  and  O_3
REMARK    3  A    between atoms: C_2  and  C_13
REMARK    4  A    between atoms: O_3  and  C_4
REMARK    5  A    between atoms: C_7  and  C_8
REMARK                            x       y       z     vdW  Elec       q    Type
REMARK                         _______ _______ _______ _____ _____    ______ ____
ROOT
ATOM      1  C   UNL     1      46.998   4.400  14.384  0.00  0.00    +0.000 A 
ATOM      2  C   UNL     1      46.419   5.506  13.789  0.00  0.00    +0.000 A 
ATOM      3  C   UNL     1      45.569   5.315  12.709  0.00  0.00    +0.000 A 
ATOM      4  C   UNL     1      45.365   4.021  12.262  0.00  0.00    +0.000 A 
ATOM      5  N   UNL     1      45.949   2.948  12.860  0.00  0.00    +0.000 NA
ATOM      6  N   UNL     1      46.778   3.143  13.941  0.00  0.00    +0.000 NA
ENDROOT
BRANCH   4   7
ATOM      7  C   UNL     1      44.506   3.773  11.069  0.00  0.00    +0.000 C 
ATOM      8  N   UNL     1      44.678   2.579  10.420  0.00  0.00    +0.000 N 
ATOM      9  O   UNL     1      43.693   4.597  10.670  0.00  0.00    +0.000 OA
ATOM     10  H   UNL     1      45.369   1.906  10.727  0.00  0.00    +0.000 HD
ATOM     11  H   UNL     1      44.139   2.402   9.583  0.00  0.00    +0.000 HD
ENDBRANCH   4   7
BRANCH   1  12
ATOM     12  O   UNL     1      47.877   4.656  15.407  0.00  0.00    +0.000 OA
BRANCH  12  14
ATOM     13  C   UNL     1      47.173   4.691  17.748  0.00  0.00    +0.000 C 
ATOM     14  C   UNL     1      47.728   3.857  16.590  0.00  0.00    +0.000 C 
BRANCH  14  15
ATOM     15  C   UNL     1      49.130   3.372  16.951  0.00  0.00    +0.000 A 
ATOM     16  C   UNL     1      50.008   4.198  17.655  0.00  0.00    +0.000 A 
ATOM     17  C   UNL     1      51.260   3.702  18.016  0.00  0.00    +0.000 A 
ATOM     18  C   UNL     1      51.610   2.405  17.664  0.00  0.00    +0.000 A 
ATOM     19  C   UNL     1      50.696   1.658  16.943  0.00  0.00    +0.000 A 
ATOM     20  N   UNL     1      49.478   2.112  16.577  0.00  0.00    +0.000 NA
ENDBRANCH  14  15
ENDBRANCH  12  14
ENDBRANCH   1  12
TORSDOF 4
ENDMDL
MODEL 5
REMARK VINA RESULT:    -6.324      3.967      6.127
REMARK INTER + INTRA:          -8.095
REMARK INTER:                  -7.655
REMARK INTRA:                  -0.440
REMARK UNBOUND:                -0.292
REMARK  Name = 
REMARK  5 active torsions:
REMARK  status: ('A' for Active; 'I' for Inactive)
REMARK    1  A    between atoms: C_1  and  C_2
REMARK    2  A    between atoms: C_2  and  O_3
REMARK    3  A    between atoms: C_2  and  C_13
REMARK    4  A    between atoms: O_3  and  C_4
REMARK    5  A    between atoms: C_7  and  C_8
REMARK                            x       y       z     vdW  Elec       q    Type
REMARK                         _______ _______ _______ _____ _____    ______ ____
ROOT
ATOM      1  C   UNL     1      46.872   5.019  13.573  0.00  0.00    +0.000 A 
ATOM      2  C   UNL     1      46.106   6.050  13.064  0.00  0.00    +0.000 A 
ATOM      3  C   UNL     1      44.874   5.751  12.496  0.00  0.00    +0.000 A 
ATOM      4  C   UNL     1      44.487   4.423  12.444  0.00  0.00    +0.000 A 
ATOM      5  N   UNL     1      45.260   3.424  12.947  0.00  0.00    +0.000 NA
ATOM      6  N   UNL     1      46.472   3.729  13.523  0.00  0.00    +0.000 NA
ENDROOT
BRANCH   4   7
ATOM      7  C   UNL     1      43.200   4.049  11.792  0.00  0.00    +0.000 C 
ATOM      8  N   UNL     1      42.222   5.007  11.757  0.00  0.00    +0.000 N 
ATOM      9  O   UNL     1      43.010   2.935  11.319  0.00  0.00    +0.000 OA
ATOM     10  H   UNL     1      42.362   5.920  12.173  0.00  0.00    +0.000 HD
ATOM     11  H   UNL     1      41.324   4.767  11.359  0.00  0.00    +0.000 HD
ENDBRANCH   4   7
BRANCH   1  12
ATOM     12  O   UNL     1      48.105   5.368  14.065  0.00  0.00    +0.000 OA
BRANCH  12  14
ATOM     13  C   UNL     1      49.266   7.096  15.345  0.00  0.00    +0.000 C 
ATOM     14  C   UNL     1      48.116   6.087  15.306  0.00  0.00    +0.000 C 
BRANCH  14  15
ATOM     15  C   UNL     1      48.333   5.041  16.398  0.00  0.00    +0.000 A 
ATOM     16  C   UNL     1      47.250   4.356  16.950  0.00  0.00    +0.000 A 
ATOM     17  C   UNL     1      47.490   3.368  17.904  0.00  0.00    +0.000 A 
ATOM     18  C   UNL     1      48.796   3.092  18.290  0.00  0.00    +0.000 A 
ATOM     19  C   UNL     1      49.813   3.833  17.716  0.00  0.00    +0.000 A 
ATOM     20  N   UNL     1      49.611   4.797  16.793  0.00  0.00    +0.000 NA
ENDBRANCH  14  15
ENDBRANCH  12  14
ENDBRANCH   1  12
TORSDOF 4
ENDMDL
MODEL 6
REMARK VINA RESULT:    -6.319      2.156      5.851
REMARK INTER + INTRA:          -8.089
REMARK INTER:                  -9.282
REMARK INTRA:                   1.193
REMARK UNBOUND:                -0.292
REMARK  Name = 
REMARK  5 active torsions:
REMARK  status: ('A' for Active; 'I' for Inactive)
REMARK    1  A    between atoms: C_1  and  C_2
REMARK    2  A    between atoms: C_2  and  O_3
REMARK    3  A    between atoms: C_2  and  C_13
REMARK    4  A    between atoms: O_3  and  C_4
REMARK    5  A    between atoms: C_7  and  C_8
REMARK                            x       y       z     vdW  Elec       q    Type
REMARK                         _______ _______ _______ _____ _____    ______ ____
ROOT
ATOM      1  C   UNL     1      45.584   5.040  11.717  0.00  0.00    +0.000 A 
ATOM      2  C   UNL     1      46.507   5.916  12.257  0.00  0.00    +0.000 A 
ATOM      3  C   UNL     1      47.165   5.558  13.426  0.00  0.00    +0.000 A 
ATOM      4  C   UNL     1      46.840   4.345  14.009  0.00  0.00    +0.000 A 
ATOM      5  N   UNL     1      45.925   3.501  13.463  0.00  0.00    +0.000 NA
ATOM      6  N   UNL     1      45.288   3.855  12.295  0.00  0.00    +0.000 NA
ENDROOT
BRANCH   4   7
ATOM      7  C   UNL     1      47.478   3.944  15.296  0.00  0.00    +0.000 C 
ATOM      8  N   UNL     1      47.251   4.755  16.377  0.00  0.00    +0.000 N 
ATOM      9  O   UNL     1      48.185   2.950  15.389  0.00  0.00    +0.000 OA
ATOM     10  H   UNL     1      46.692   5.595  16.299  0.00  0.00    +0.000 HD
ATOM     11  H   UNL     1      47.706   4.531  17.252  0.00  0.00    +0.000 HD
ENDBRANCH   4   7
BRANCH   1  12
ATOM     12  O   UNL     1      44.921   5.475  10.596  0.00  0.00    +0.000 OA
BRANCH  12  14
ATOM     13  C   UNL     1      43.469   3.533  10.899  0.00  0.00    +0.000 C 
ATOM     14  C   UNL     1      44.122   4.502   9.909  0.00  0.00    +0.000 C 
BRANCH  14  15
ATOM     15  C   UNL     1      45.083   3.725   9.011  0.00  0.00    +0.000 A 
ATOM     16  C   UNL     1      45.213   2.342   9.139  0.00  0.00    +0.000 A 
ATOM     17  C   UNL     1      46.057   1.659   8.264  0.00  0.00    +0.000 A 
ATOM     18  C   UNL     1      46.754   2.366   7.293  0.00  0.00    +0.000 A 
ATOM     19  C   UNL     1      46.593   3.739   7.249  0.00  0.00    +0.000 A 
ATOM     20  N   UNL     1      45.786   4.428   8.083  0.00  0.00    +0.000 NA
ENDBRANCH  14  15
ENDBRANCH  12  14
ENDBRANCH   1  12
TORSDOF 4
ENDMDL
MODEL 7
REMARK VINA RESULT:    -6.019      3.046      6.045
REMARK INTER + INTRA:          -7.719
REMARK INTER:                  -7.167
REMARK INTRA:                  -0.552
REMARK UNBOUND:                -0.292
REMARK  Name = 
REMARK  5 active torsions:
REMARK  status: ('A' for Active; 'I' for Inactive)
REMARK    1  A    between atoms: C_1  and  C_2
REMARK    2  A    between atoms: C_2  and  O_3
REMARK    3  A    between atoms: C_2  and  C_13
REMARK    4  A    between atoms: O_3  and  C_4
REMARK    5  A    between atoms: C_7  and  C_8
REMARK                            x       y       z     vdW  Elec       q    Type
REMARK                         _______ _______ _______ _____ _____    ______ ____
ROOT
ATOM      1  C   UNL     1      46.085   5.727  12.792  0.00  0.00    +0.000 A 
ATOM      2  C   UNL     1      46.065   7.069  12.462  0.00  0.00    +0.000 A 
ATOM      3  C   UNL     1      47.203   7.831  12.690  0.00  0.00    +0.000 A 
ATOM      4  C   UNL     1      48.297   7.209  13.267  0.00  0.00    +0.000 A 
ATOM      5  N   UNL     1      48.293   5.887  13.588  0.00  0.00    +0.000 NA
ATOM      6  N   UNL     1      47.167   5.134  13.344  0.00  0.00    +0.000 NA
ENDROOT
BRANCH   4   7
ATOM      7  C   UNL     1      49.520   8.000  13.584  0.00  0.00    +0.000 C 
ATOM      8  N   UNL     1      50.676   7.636  12.945  0.00  0.00    +0.000 N 
ATOM      9  O   UNL     1      49.507   8.923  14.388  0.00  0.00    +0.000 OA
ATOM     10  H   UNL     1      50.700   6.854  12.303  0.00  0.00    +0.000 HD
ATOM     11  H   UNL     1      51.530   8.128  13.174  0.00  0.00    +0.000 HD
ENDBRANCH   4   7
BRANCH   1  12
ATOM     12  O   UNL     1      44.912   5.040  12.600  0.00  0.00    +0.000 OA
BRANCH  12  14
ATOM     13  C   UNL     1      42.652   5.199  11.683  0.00  0.00    +0.000 C 
ATOM     14  C   UNL     1      44.151   5.390  11.436  0.00  0.00    +0.000 C 
BRANCH  14  15
ATOM     15  C   UNL     1      44.601   4.434  10.334  0.00  0.00    +0.000 A 
ATOM     16  C   UNL     1      44.202   3.096  10.348  0.00  0.00    +0.000 A 
ATOM     17  C   UNL     1      44.586   2.266   9.296  0.00  0.00    +0.000 A 
ATOM     18  C   UNL     1      45.360   2.781   8.264  0.00  0.00    +0.000 A 
ATOM     19  C   UNL     1      45.738   4.109   8.336  0.00  0.00    +0.000 A 
ATOM     20  N   UNL     1      45.384   4.937   9.343  0.00  0.00    +0.000 NA
ENDBRANCH  14  15
ENDBRANCH  12  14
ENDBRANCH   1  12
TORSDOF 4
ENDMDL
MODEL 8
REMARK VINA RESULT:    -5.852      3.078      6.413
REMARK INTER + INTRA:          -7.513
REMARK INTER:                  -7.615
REMARK INTRA:                   0.102
REMARK UNBOUND:                -0.292
REMARK  Name = 
REMARK  5 active torsions:
REMARK  status: ('A' for Active; 'I' for Inactive)
REMARK    1  A    between atoms: C_1  and  C_2
REMARK    2  A    between atoms: C_2  and  O_3
REMARK    3  A    between atoms: C_2  and  C_13
REMARK    4  A    between atoms: O_3  and  C_4
REMARK    5  A    between atoms: C_7  and  C_8
REMARK                            x       y       z     vdW  Elec       q    Type
REMARK                         _______ _______ _______ _____ _____    ______ ____
ROOT
ATOM      1  C   UNL     1      46.926   5.013  13.272  0.00  0.00    +0.000 A 
ATOM      2  C   UNL     1      47.174   5.742  14.421  0.00  0.00    +0.000 A 
ATOM      3  C   UNL     1      47.573   5.067  15.567  0.00  0.00    +0.000 A 
ATOM      4  C   UNL     1      47.676   3.688  15.507  0.00  0.00    +0.000 A 
ATOM      5  N   UNL     1      47.422   2.991  14.368  0.00  0.00    +0.000 NA
ATOM      6  N   UNL     1      47.043   3.668  13.231  0.00  0.00    +0.000 NA
ENDROOT
BRANCH   4   7
ATOM      7  C   UNL     1      48.044   2.917  16.729  0.00  0.00    +0.000 C 
ATOM      8  N   UNL     1      47.084   2.800  17.700  0.00  0.00    +0.000 N 
ATOM      9  O   UNL     1      49.154   2.421  16.876  0.00  0.00    +0.000 OA
ATOM     10  H   UNL     1      46.175   3.233  17.598  0.00  0.00    +0.000 HD
ATOM     11  H   UNL     1      47.320   2.319  18.557  0.00  0.00    +0.000 HD
ENDBRANCH   4   7
BRANCH   1  12
ATOM     12  O   UNL     1      46.476   5.727  12.190  0.00  0.00    +0.000 OA
BRANCH  12  14
ATOM     13  C   UNL     1      44.317   4.905  12.988  0.00  0.00    +0.000 C 
ATOM     14  C   UNL     1      45.096   5.552  11.840  0.00  0.00    +0.000 C 
BRANCH  14  15
ATOM     15  C   UNL     1      45.082   4.614  10.635  0.00  0.00    +0.000 A 
ATOM     16  C   UNL     1      44.499   3.348  10.727  0.00  0.00    +0.000 A 
ATOM     17  C   UNL     1      44.455   2.541   9.592  0.00  0.00    +0.000 A 
ATOM     18  C   UNL     1      44.994   3.005   8.399  0.00  0.00    +0.000 A 
ATOM     19  C   UNL     1      45.579   4.259   8.395  0.00  0.00    +0.000 A 
ATOM     20  N   UNL     1      45.639   5.063   9.479  0.00  0.00    +0.000 NA
ENDBRANCH  14  15
ENDBRANCH  12  14
ENDBRANCH   1  12
TORSDOF 4
ENDMDL
MODEL 9
REMARK VINA RESULT:    -5.736      3.790      6.040
REMARK INTER + INTRA:          -7.370
REMARK INTER:                  -6.876
REMARK INTRA:                  -0.494
REMARK UNBOUND:                -0.292
REMARK  Name = 
REMARK  5 active torsions:
REMARK  status: ('A' for Active; 'I' for Inactive)
REMARK    1  A    between atoms: C_1  and  C_2
REMARK    2  A    between atoms: C_2  and  O_3
REMARK    3  A    between atoms: C_2  and  C_13
REMARK    4  A    between atoms: O_3  and  C_4
REMARK    5  A    between atoms: C_7  and  C_8
REMARK                            x       y       z     vdW  Elec       q    Type
REMARK                         _______ _______ _______ _____ _____    ______ ____
ROOT
ATOM      1  C   UNL     1      47.353   5.426  13.306  0.00  0.00    +0.000 A 
ATOM      2  C   UNL     1      46.518   6.088  12.425  0.00  0.00    +0.000 A 
ATOM      3  C   UNL     1      45.400   5.426  11.938  0.00  0.00    +0.000 A 
ATOM      4  C   UNL     1      45.192   4.118  12.341  0.00  0.00    +0.000 A 
ATOM      5  N   UNL     1      46.030   3.484  13.205  0.00  0.00    +0.000 NA
ATOM      6  N   UNL     1      47.128   4.152  13.696  0.00  0.00    +0.000 NA
ENDROOT
BRANCH   4   7
ATOM      7  C   UNL     1      44.036   3.347  11.798  0.00  0.00    +0.000 C 
ATOM      8  N   UNL     1      43.692   2.199  12.462  0.00  0.00    +0.000 N 
ATOM      9  O   UNL     1      43.427   3.706  10.799  0.00  0.00    +0.000 OA
ATOM     10  H   UNL     1      44.211   1.881  13.271  0.00  0.00    +0.000 HD
ATOM     11  H   UNL     1      42.940   1.634  12.091  0.00  0.00    +0.000 HD
ENDBRANCH   4   7
BRANCH   1  12
ATOM     12  O   UNL     1      48.475   6.110  13.705  0.00  0.00    +0.000 OA
BRANCH  12  14
ATOM     13  C   UNL     1      48.736   8.321  14.712  0.00  0.00    +0.000 C 
ATOM     14  C   UNL     1      48.368   6.851  14.928  0.00  0.00    +0.000 C 
BRANCH  14  15
ATOM     15  C   UNL     1      49.373   6.222  15.891  0.00  0.00    +0.000 A 
ATOM     16  C   UNL     1      50.638   6.786  16.066  0.00  0.00    +0.000 A 
ATOM     17  C   UNL     1      51.508   6.218  16.996  0.00  0.00    +0.000 A 
ATOM     18  C   UNL     1      51.104   5.103  17.720  0.00  0.00    +0.000 A 
ATOM     19  C   UNL     1      49.846   4.587  17.470  0.00  0.00    +0.000 A 
ATOM     20  N   UNL     1      48.982   5.113  16.575  0.00  0.00    +0.000 NA
ENDBRANCH  14  15
ENDBRANCH  12  14
ENDBRANCH   1  12
TORSDOF 4
ENDMDL
