MODEL 1
REMARK VINA RESULT:    -6.950      0.000      0.000
REMARK INTER + INTRA:          -9.397
REMARK INTER:                  -8.981
REMARK INTRA:                  -0.416
REMARK UNBOUND:                -0.416
REMARK  Name = 
REMARK  7 active torsions:
REMARK  status: ('A' for Active; 'I' for Inactive)
REMARK    1  A    between atoms: C_1  and  O_2
REMARK    2  A    between atoms: O_2  and  C_3
REMARK    3  A    between atoms: C_3  and  C_4
REMARK    4  A    between atoms: C_9  and  N_10
REMARK    5  A    between atoms: N_10  and  C_11
REMARK    6  A    between atoms: C_11  and  C_12
REMARK    7  A    between atoms: C_16  and  C_17
REMARK                            x       y       z     vdW  Elec       q    Type
REMARK                         _______ _______ _______ _____ _____    ______ ____
ROOT
ATOM      1  N   UNL     1      44.903   3.360  11.461  0.00  0.00    +0.000 N 
ATOM      2  H   UNL     1      45.820   2.941  11.364  0.00  0.00    +0.000 HD
ENDROOT
BRANCH   1   8
ATOM      3  C   UNL     1      46.017   5.026  12.849  0.00  0.00    +0.000 A 
ATOM      4  C   UNL     1      46.173   6.382  13.188  0.00  0.00    +0.000 A 
ATOM      5  C   UNL     1      45.425   7.353  12.545  0.00  0.00    +0.000 A 
ATOM      6  C   UNL     1      44.539   6.941  11.574  0.00  0.00    +0.000 A 
ATOM      7  N   UNL     1      44.362   5.651  11.221  0.00  0.00    +0.000 NA
ATOM      8  C   UNL     1      45.081   4.699  11.857  0.00  0.00    +0.000 A 
BRANCH   3   9
ATOM      9  C   UNL     1      46.818   4.004  13.613  0.00  0.00    +0.000 C 
BRANCH   9  11
ATOM     10  C   UNL     1      47.520   4.328  15.853  0.00  0.00    +0.000 C 
ATOM     11  O   UNL     1      46.427   4.047  14.990  0.00  0.00    +0.000 OA
ENDBRANCH   9  11
ENDBRANCH   3   9
ENDBRANCH   1   8
BRANCH   1  12
ATOM     12  C   UNL     1      44.156   3.222  10.201  0.00  0.00    +0.000 C 
BRANCH  12  13
ATOM     13  C   UNL     1      45.093   2.964   9.035  0.00  0.00    +0.000 A 
ATOM     14  C   UNL     1      45.593   4.034   8.294  0.00  0.00    +0.000 A 
ATOM     15  C   UNL     1      46.516   3.784   7.286  0.00  0.00    +0.000 A 
ATOM     16  C   UNL     1      46.928   2.478   7.048  0.00  0.00    +0.000 A 
ATOM     17  C   UNL     1      46.390   1.455   7.822  0.00  0.00    +0.000 A 
ATOM     18  C   UNL     1      46.841   0.037   7.637  0.00  0.00    +0.000 C 
ATOM     19  N   UNL     1      45.482   1.681   8.804  0.00  0.00    +0.000 NA
ENDBRANCH  12  13
ENDBRANCH   1  12
TORSDOF 5
ENDMDL
MODEL 2
REMARK VINA RESULT:    -6.689      1.990      2.555
REMARK INTER + INTRA:          -9.060
REMARK INTER:                  -8.625
REMARK INTRA:                  -0.435
REMARK UNBOUND:                -0.416
REMARK  Name = 
REMARK  7 active torsions:
REMARK  status: ('A' for Active; 'I' for Inactive)
REMARK    1  A    between atoms: C_1  and  O_2
REMARK    2  A    between atoms: O_2  and  C_3
REMARK    3  A    between atoms: C_3  and  C_4
REMARK    4  A    between atoms: C_9  and  N_10
REMARK    5  A    between atoms: N_10  and  C_11
REMARK    6  A    between atoms: C_11  and  C_12
REMARK    7  A    between atoms: C_16  and  C_17
REMARK                            x       y       z     vdW  Elec       q    Type
REMARK                         _______ _______ _______ _____ _____    ______ ____
ROOT
ATOM      1  N   UNL     1      45.255   5.016   9.319  0.00  0.00    +0.000 N 
ATOM      2  H   UNL     1      45.286   5.937   8.898  0.00  0.00    +0.000 HD
ENDROOT
BRANCH   1   8
ATOM      3  C   UNL     1      45.218   5.809  11.623  0.00  0.00    +0.000 A 
ATOM      4  C   UNL     1      44.512   5.918  12.834  0.00  0.00    +0.000 A 
ATOM      5  C   UNL     1      43.244   5.374  12.954  0.00  0.00    +0.000 A 
ATOM      6  C   UNL     1      42.714   4.736  11.855  0.00  0.00    +0.000 A 
ATOM      7  N   UNL     1      43.360   4.613  10.676  0.00  0.00    +0.000 NA
ATOM      8  C   UNL     1      44.604   5.131  10.560  0.00  0.00    +0.000 A 
BRANCH   3   9
ATOM      9  C   UNL     1      46.614   6.374  11.559  0.00  0.00    +0.000 C 
BRANCH   9  11
ATOM     10  C   UNL     1      48.566   6.709  12.860  0.00  0.00    +0.000 C 
ATOM     11  O   UNL     1      47.230   6.226  12.844  0.00  0.00    +0.000 OA
ENDBRANCH   9  11
ENDBRANCH   3   9
ENDBRANCH   1   8
BRANCH   1  12
ATOM     12  C   UNL     1      44.596   4.071   8.403  0.00  0.00    +0.000 C 
BRANCH  12  13
ATOM     13  C   UNL     1      45.563   2.996   7.937  0.00  0.00    +0.000 A 
ATOM     14  C   UNL     1      45.596   1.763   8.586  0.00  0.00    +0.000 A 
ATOM     15  C   UNL     1      46.425   0.763   8.092  0.00  0.00    +0.000 A 
ATOM     16  C   UNL     1      47.191   1.011   6.959  0.00  0.00    +0.000 A 
ATOM     17  C   UNL     1      47.114   2.264   6.360  0.00  0.00    +0.000 A 
ATOM     18  C   UNL     1      47.881   2.563   5.107  0.00  0.00    +0.000 C 
ATOM     19  N   UNL     1      46.316   3.253   6.834  0.00  0.00    +0.000 NA
ENDBRANCH  12  13
ENDBRANCH   1  12
TORSDOF 5
ENDMDL
MODEL 3
REMARK VINA RESULT:    -5.991      1.546      2.532
REMARK INTER + INTRA:          -8.157
REMARK INTER:                  -7.384
REMARK INTRA:                  -0.773
REMARK UNBOUND:                -0.416
REMARK  Name = 
REMARK  7 active torsions:
REMARK  status: ('A' for Active; 'I' for Inactive)
REMARK    1  A    between atoms: C_1  and  O_2
REMARK    2  A    between atoms: O_2  and  C_3
REMARK    3  A    between atoms: C_3  and  C_4
REMARK    4  A    between atoms: C_9  and  N_10
REMARK    5  A    between atoms: N_10  and  C_11
REMARK    6  A    between atoms: C_11  and  C_12
REMARK    7  A    between atoms: C_16  and  C_17
REMARK                            x       y       z     vdW  Elec       q    Type
REMARK                         _______ _______ _______ _____ _____    ______ ____
ROOT
ATOM      1  N   UNL     1      44.642   5.721  12.571  0.00  0.00    +0.000 N 
ATOM      2  H   UNL     1      44.773   4.763  12.873  0.00  0.00    +0.000 HD
ENDROOT
BRANCH   1   8
ATOM      3  C   UNL     1      47.025   5.674  13.081  0.00  0.00    +0.000 A 
ATOM      4  C   UNL     1      48.256   6.354  13.086  0.00  0.00    +0.000 A 
ATOM      5  C   UNL     1      48.332   7.662  12.639  0.00  0.00    +0.000 A 
ATOM      6  C   UNL     1      47.172   8.255  12.194  0.00  0.00    +0.000 A 
ATOM      7  N   UNL     1      45.974   7.636  12.173  0.00  0.00    +0.000 NA
ATOM      8  C   UNL     1      45.893   6.362  12.622  0.00  0.00    +0.000 A 
BRANCH   3   9
ATOM      9  C   UNL     1      46.986   4.268  13.624  0.00  0.00    +0.000 C 
BRANCH   9  11
ATOM     10  C   UNL     1      47.328   4.087  15.962  0.00  0.00    +0.000 C 
ATOM     11  O   UNL     1      46.382   4.294  14.922  0.00  0.00    +0.000 OA
ENDBRANCH   9  11
ENDBRANCH   3   9
ENDBRANCH   1   8
BRANCH   1  12
ATOM     12  C   UNL     1      44.032   5.742  11.232  0.00  0.00    +0.000 C 
BRANCH  12  13
ATOM     13  C   UNL     1      44.489   4.555  10.404  0.00  0.00    +0.000 A 
ATOM     14  C   UNL     1      43.980   3.285  10.669  0.00  0.00    +0.000 A 
ATOM     15  C   UNL     1      44.343   2.226   9.847  0.00  0.00    +0.000 A 
ATOM     16  C   UNL     1      45.195   2.458   8.773  0.00  0.00    +0.000 A 
ATOM     17  C   UNL     1      45.671   3.749   8.564  0.00  0.00    +0.000 A 
ATOM     18  C   UNL     1      46.551   4.060   7.391  0.00  0.00    +0.000 C 
ATOM     19  N   UNL     1      45.332   4.792   9.362  0.00  0.00    +0.000 NA
ENDBRANCH  12  13
ENDBRANCH   1  12
TORSDOF 5
ENDMDL
MODEL 4
REMARK VINA RESULT:    -5.990      2.424      6.244
REMARK INTER + INTRA:          -8.156
REMARK INTER:                  -7.690
REMARK INTRA:                  -0.466
REMARK UNBOUND:                -0.416
REMARK  Name = 
REMARK  7 active torsions:
REMARK  status: ('A' for Active; 'I' for Inactive)
REMARK    1  A    between atoms: C_1  and  O_2
REMARK    2  A    between atoms: O_2  and  C_3
REMARK    3  A    between atoms: C_3  and  C_4
REMARK    4  A    between atoms: C_9  and  N_10
REMARK    5  A    between atoms: N_10  and  C_11
REMARK    6  A    between atoms: C_11  and  C_12
REMARK    7  A    between atoms: C_16  and  C_17
REMARK                            x       y       z     vdW  Elec       q    Type
REMARK                         _______ _______ _______ _____ _____    ______ ____
ROOT
ATOM      1  N   UNL     1      45.130   5.838  10.299  0.00  0.00    +0.000 N 
ATOM      2  H   UNL     1      45.218   6.639   9.686  0.00  0.00    +0.000 HD
ENDROOT
BRANCH   1   8
ATOM      3  C   UNL     1      44.741   3.461   9.924  0.00  0.00    +0.000 A 
ATOM      4  C   UNL     1      44.929   2.339   9.097  0.00  0.00    +0.000 A 
ATOM      5  C   UNL     1      45.649   2.453   7.920  0.00  0.00    +0.000 A 
ATOM      6  C   UNL     1      46.160   3.691   7.599  0.00  0.00    +0.000 A 
ATOM      7  N   UNL     1      46.000   4.790   8.365  0.00  0.00    +0.000 NA
ATOM      8  C   UNL     1      45.309   4.679   9.522  0.00  0.00    +0.000 A 
BRANCH   3   9
ATOM      9  C   UNL     1      43.993   3.274  11.218  0.00  0.00    +0.000 C 
BRANCH   9  11
ATOM     10  C   UNL     1      42.810   4.808  12.584  0.00  0.00    +0.000 C 
ATOM     11  O   UNL     1      42.941   4.244  11.286  0.00  0.00    +0.000 OA
ENDBRANCH   9  11
ENDBRANCH   3   9
ENDBRANCH   1   8
BRANCH   1  12
ATOM     12  C   UNL     1      46.093   5.949  11.407  0.00  0.00    +0.000 C 
BRANCH  12  13
ATOM     13  C   UNL     1      46.369   7.402  11.747  0.00  0.00    +0.000 A 
ATOM     14  C   UNL     1      47.675   7.823  11.992  0.00  0.00    +0.000 A 
ATOM     15  C   UNL     1      47.919   9.172  12.217  0.00  0.00    +0.000 A 
ATOM     16  C   UNL     1      46.859  10.071  12.181  0.00  0.00    +0.000 A 
ATOM     17  C   UNL     1      45.579   9.587  11.934  0.00  0.00    +0.000 A 
ATOM     18  C   UNL     1      44.412  10.523  11.834  0.00  0.00    +0.000 C 
ATOM     19  N   UNL     1      45.323   8.272  11.720  0.00  0.00    +0.000 NA
ENDBRANCH  12  13
ENDBRANCH   1  12
TORSDOF 5
ENDMDL
MODEL 5
REMARK VINA RESULT:    -5.964      2.093      5.503
REMARK INTER + INTRA:          -8.123
REMARK INTER:                  -7.485
REMARK INTRA:                  -0.638
REMARK UNBOUND:                -0.416
REMARK  Name = 
REMARK  7 active torsions:
REMARK  status: ('A' for Active; 'I' for Inactive)
REMARK    1  A    between atoms: C_1  and  O_2
REMARK    2  A    between atoms: O_2  and  C_3
REMARK    3  A    between atoms: C_3  and  C_4
REMARK    4  A    between atoms: C_9  and  N_10
REMARK    5  A    between atoms: N_10  and  C_11
REMARK    6  A    between atoms: C_11  and  C_12
REMARK    7  A    between atoms: C_16  and  C_17
REMARK                            x       y       z     vdW  Elec       q    Type
REMARK                         _______ _______ _______ _____ _____    ______ ____
ROOT
ATOM      1  N   UNL     1      44.894   5.675  10.483  0.00  0.00    +0.000 N 
ATOM      2  H   UNL     1      44.046   6.114  10.144  0.00  0.00    +0.000 HD
ENDROOT
BRANCH   1   8
ATOM      3  C   UNL     1      44.740   3.266  10.144  0.00  0.00    +0.000 A 
ATOM      4  C   UNL     1      44.981   2.164   9.305  0.00  0.00    +0.000 A 
ATOM      5  C   UNL     1      45.582   2.344   8.071  0.00  0.00    +0.000 A 
ATOM      6  C   UNL     1      45.924   3.627   7.707  0.00  0.00    +0.000 A 
ATOM      7  N   UNL     1      45.708   4.710   8.483  0.00  0.00    +0.000 NA
ATOM      8  C   UNL     1      45.134   4.535   9.695  0.00  0.00    +0.000 A 
BRANCH   3   9
ATOM      9  C   UNL     1      44.128   3.011  11.497  0.00  0.00    +0.000 C 
BRANCH   9  11
ATOM     10  C   UNL     1      43.064   4.492  13.010  0.00  0.00    +0.000 C 
ATOM     11  O   UNL     1      43.057   3.940  11.701  0.00  0.00    +0.000 OA
ENDBRANCH   9  11
ENDBRANCH   3   9
ENDBRANCH   1   8
BRANCH   1  12
ATOM     12  C   UNL     1      46.001   6.644  10.456  0.00  0.00    +0.000 C 
BRANCH  12  13
ATOM     13  C   UNL     1      46.844   6.546  11.715  0.00  0.00    +0.000 A 
ATOM     14  C   UNL     1      47.834   7.495  11.965  0.00  0.00    +0.000 A 
ATOM     15  C   UNL     1      48.536   7.439  13.163  0.00  0.00    +0.000 A 
ATOM     16  C   UNL     1      48.228   6.448  14.087  0.00  0.00    +0.000 A 
ATOM     17  C   UNL     1      47.230   5.530  13.776  0.00  0.00    +0.000 A 
ATOM     18  C   UNL     1      46.827   4.475  14.762  0.00  0.00    +0.000 C 
ATOM     19  N   UNL     1      46.541   5.566  12.609  0.00  0.00    +0.000 NA
ENDBRANCH  12  13
ENDBRANCH   1  12
TORSDOF 5
ENDMDL
MODEL 6
REMARK VINA RESULT:    -5.897      3.720      7.042
REMARK INTER + INTRA:          -8.037
REMARK INTER:                  -7.348
REMARK INTRA:                  -0.689
REMARK UNBOUND:                -0.416
REMARK  Name = 
REMARK  7 active torsions:
REMARK  status: ('A' for Active; 'I' for Inactive)
REMARK    1  A    between atoms: C_1  and  O_2
REMARK    2  A    between atoms: O_2  and  C_3
REMARK    3  A    between atoms: C_3  and  C_4
REMARK    4  A    between atoms: C_9  and  N_10
REMARK    5  A    between atoms: N_10  and  C_11
REMARK    6  A    between atoms: C_11  and  C_12
REMARK    7  A    between atoms: C_16  and  C_17
REMARK                            x       y       z     vdW  Elec       q    Type
REMARK                         _______ _______ _______ _____ _____    ______ ____
ROOT
ATOM      1  N   UNL     1      46.937   3.800  14.496  0.00  0.00    +0.000 N 
ATOM      2  H   UNL     1      46.108   3.244  14.322  0.00  0.00    +0.000 HD
ENDROOT
BRANCH   1   8
ATOM      3  C   UNL     1      45.720   5.298  13.008  0.00  0.00    +0.000 A 
ATOM      4  C   UNL     1      45.755   6.408  12.146  0.00  0.00    +0.000 A 
ATOM      5  C   UNL     1      46.948   7.071  11.909  0.00  0.00    +0.000 A 
ATOM      6  C   UNL     1      48.076   6.606  12.547  0.00  0.00    +0.000 A 
ATOM      7  N   UNL     1      48.082   5.546  13.383  0.00  0.00    +0.000 NA
ATOM      8  C   UNL     1      46.921   4.888  13.605  0.00  0.00    +0.000 A 
BRANCH   3   9
ATOM      9  C   UNL     1      44.407   4.582  13.194  0.00  0.00    +0.000 C 
BRANCH   9  11
ATOM     10  C   UNL     1      43.507   2.852  11.846  0.00  0.00    +0.000 C 
ATOM     11  O   UNL     1      44.550   3.233  12.733  0.00  0.00    +0.000 OA
ENDBRANCH   9  11
ENDBRANCH   3   9
ENDBRANCH   1   8
BRANCH   1  12
ATOM     12  C   UNL     1      46.977   4.208  15.910  0.00  0.00    +0.000 C 
BRANCH  12  13
ATOM     13  C   UNL     1      48.305   3.843  16.548  0.00  0.00    +0.000 A 
ATOM     14  C   UNL     1      48.653   2.503  16.712  0.00  0.00    +0.000 A 
ATOM     15  C   UNL     1      49.908   2.188  17.218  0.00  0.00    +0.000 A 
ATOM     16  C   UNL     1      50.790   3.213  17.537  0.00  0.00    +0.000 A 
ATOM     17  C   UNL     1      50.381   4.530  17.352  0.00  0.00    +0.000 A 
ATOM     18  C   UNL     1      51.315   5.669  17.634  0.00  0.00    +0.000 C 
ATOM     19  N   UNL     1      49.157   4.854  16.866  0.00  0.00    +0.000 NA
ENDBRANCH  12  13
ENDBRANCH   1  12
TORSDOF 5
ENDMDL
MODEL 7
REMARK VINA RESULT:    -5.880      2.501      5.142
REMARK INTER + INTRA:          -8.014
REMARK INTER:                  -7.317
REMARK INTRA:                  -0.698
REMARK UNBOUND:                -0.416
REMARK  Name = 
REMARK  7 active torsions:
REMARK  status: ('A' for Active; 'I' for Inactive)
REMARK    1  A    between atoms: C_1  and  O_2
REMARK    2  A    between atoms: O_2  and  C_3
REMARK    3  A    between atoms: C_3  and  C_4
REMARK    4  A    between atoms: C_9  and  N_10
REMARK    5  A    between atoms: N_10  and  C_11
REMARK    6  A    between atoms: C_11  and  C_12
REMARK    7  A    between atoms: C_16  and  C_17
REMARK                            x       y       z     vdW  Elec       q    Type
REMARK                         _______ _______ _______ _____ _____    ______ ____
ROOT
ATOM      1  N   UNL     1      46.824   5.042  14.766  0.00  0.00    +0.000 N 
ATOM      2  H   UNL     1      45.869   5.297  14.991  0.00  0.00    +0.000 HD
ENDROOT
BRANCH   1   8
ATOM      3  C   UNL     1      48.396   5.353  16.602  0.00  0.00    +0.000 A 
ATOM      4  C   UNL     1      48.955   4.849  17.790  0.00  0.00    +0.000 A 
ATOM      5  C   UNL     1      48.549   3.622  18.287  0.00  0.00    +0.000 A 
ATOM      6  C   UNL     1      47.590   2.931  17.581  0.00  0.00    +0.000 A 
ATOM      7  N   UNL     1      47.029   3.382  16.439  0.00  0.00    +0.000 NA
ATOM      8  C   UNL     1      47.433   4.574  15.944  0.00  0.00    +0.000 A 
BRANCH   3   9
ATOM      9  C   UNL     1      48.907   6.670  16.077  0.00  0.00    +0.000 C 
BRANCH   9  11
ATOM     10  C   UNL     1      49.323   7.658  13.964  0.00  0.00    +0.000 C 
ATOM     11  O   UNL     1      49.399   6.475  14.747  0.00  0.00    +0.000 OA
ENDBRANCH   9  11
ENDBRANCH   3   9
ENDBRANCH   1   8
BRANCH   1  12
ATOM     12  C   UNL     1      46.832   4.053  13.676  0.00  0.00    +0.000 C 
BRANCH  12  13
ATOM     13  C   UNL     1      45.578   4.165  12.827  0.00  0.00    +0.000 A 
ATOM     14  C   UNL     1      44.634   5.151  13.108  0.00  0.00    +0.000 A 
ATOM     15  C   UNL     1      43.536   5.293  12.268  0.00  0.00    +0.000 A 
ATOM     16  C   UNL     1      43.410   4.458  11.164  0.00  0.00    +0.000 A 
ATOM     17  C   UNL     1      44.386   3.492  10.942  0.00  0.00    +0.000 A 
ATOM     18  C   UNL     1      44.321   2.602   9.737  0.00  0.00    +0.000 C 
ATOM     19  N   UNL     1      45.460   3.335  11.756  0.00  0.00    +0.000 NA
ENDBRANCH  12  13
ENDBRANCH   1  12
TORSDOF 5
ENDMDL
MODEL 8
REMARK VINA RESULT:    -5.832      3.288      6.579
REMARK INTER + INTRA:          -7.953
REMARK INTER:                  -7.294
REMARK INTRA:                  -0.659
REMARK UNBOUND:                -0.416
REMARK  Name = 
REMARK  7 active torsions:
REMARK  status: ('A' for Active; 'I' for Inactive)
REMARK    1  A    between atoms: C_1  and  O_2
REMARK    2  A    between atoms: O_2  and  C_3
REMARK    3  A    between atoms: C_3  and  C_4
REMARK    4  A    between atoms: C_9  and  N_10
REMARK    5  A    between atoms: N_10  and  C_11
REMARK    6  A    between atoms: C_11  and  C_12
REMARK    7  A    between atoms: C_16  and  C_17
REMARK                            x       y       z     vdW  Elec       q    Type
REMARK                         _______ _______ _______ _____ _____    ______ ____
ROOT
ATOM      1  N   UNL     1      46.094   4.675  14.297  0.00  0.00    +0.000 N 
ATOM      2  H   UNL     1      46.638   5.527  14.233  0.00  0.00    +0.000 HD
ENDROOT
BRANCH   1   8
ATOM      3  C   UNL     1      45.499   5.433  12.058  0.00  0.00    +0.000 A 
ATOM      4  C   UNL     1      44.641   5.316  10.950  0.00  0.00    +0.000 A 
ATOM      5  C   UNL     1      43.593   4.411  10.970  0.00  0.00    +0.000 A 
ATOM      6  C   UNL     1      43.433   3.643  12.102  0.00  0.00    +0.000 A 
ATOM      7  N   UNL     1      44.235   3.725  13.184  0.00  0.00    +0.000 NA
ATOM      8  C   UNL     1      45.251   4.617  13.172  0.00  0.00    +0.000 A 
BRANCH   3   9
ATOM      9  C   UNL     1      46.594   6.467  12.006  0.00  0.00    +0.000 C 
BRANCH   9  11
ATOM     10  C   UNL     1      45.642   8.455  12.876  0.00  0.00    +0.000 C 
ATOM     11  O   UNL     1      46.467   7.329  13.142  0.00  0.00    +0.000 OA
ENDBRANCH   9  11
ENDBRANCH   3   9
ENDBRANCH   1   8
BRANCH   1  12
ATOM     12  C   UNL     1      46.994   3.516  14.409  0.00  0.00    +0.000 C 
BRANCH  12  13
ATOM     13  C   UNL     1      47.669   3.477  15.768  0.00  0.00    +0.000 A 
ATOM     14  C   UNL     1      47.083   4.125  16.854  0.00  0.00    +0.000 A 
ATOM     15  C   UNL     1      47.670   4.006  18.108  0.00  0.00    +0.000 A 
ATOM     16  C   UNL     1      48.817   3.236  18.253  0.00  0.00    +0.000 A 
ATOM     17  C   UNL     1      49.354   2.616  17.128  0.00  0.00    +0.000 A 
ATOM     18  C   UNL     1      50.560   1.734  17.243  0.00  0.00    +0.000 C 
ATOM     19  N   UNL     1      48.797   2.729  15.896  0.00  0.00    +0.000 NA
ENDBRANCH  12  13
ENDBRANCH   1  12
TORSDOF 5
ENDMDL
MODEL 9
REMARK VINA RESULT:    -5.559      3.576      6.857
REMARK INTER + INTRA:          -7.599
REMARK INTER:                  -6.939
REMARK INTRA:                  -0.660
REMARK UNBOUND:                -0.416
REMARK  Name = 
REMARK  7 active torsions:
REMARK  status: ('A' for Active; 'I' for Inactive)
REMARK    1  A    between atoms: C_1  and  O_2
REMARK    2  A    between atoms: O_2  and  C_3
REMARK    3  A    between atoms: C_3  and  C_4
REMARK    4  A    between atoms: C_9  and  N_10
REMARK    5  A    between atoms: N_10  and  C_11
REMARK    6  A    between atoms: C_11  and  C_12
REMARK    7  A    between atoms: C_16  and  C_17
REMARK                            x       y       z     vdW  Elec       q    Type
REMARK                         _______ _______ _______ _____ _____    ______ ____
ROOT
ATOM      1  N   UNL     1      45.788   4.278  14.178  0.00  0.00    +0.000 N 
ATOM      2  H   UNL     1      45.364   4.631  15.027  0.00  0.00    +0.000 HD
ENDROOT
BRANCH   1   8
ATOM      3  C   UNL     1      44.342   5.507  12.647  0.00  0.00    +0.000 A 
ATOM      4  C   UNL     1      44.223   6.507  11.666  0.00  0.00    +0.000 A 
ATOM      5  C   UNL     1      45.339   7.213  11.249  0.00  0.00    +0.000 A 
ATOM      6  C   UNL     1      46.548   6.901  11.831  0.00  0.00    +0.000 A 
ATOM      7  N   UNL     1      46.702   5.950  12.776  0.00  0.00    +0.000 NA
ATOM      8  C   UNL     1      45.616   5.250  13.175  0.00  0.00    +0.000 A 
BRANCH   3   9
ATOM      9  C   UNL     1      43.107   4.734  13.030  0.00  0.00    +0.000 C 
BRANCH   9  11
ATOM     10  C   UNL     1      43.351   2.779  11.713  0.00  0.00    +0.000 C 
ATOM     11  O   UNL     1      43.417   3.336  13.019  0.00  0.00    +0.000 OA
ENDBRANCH   9  11
ENDBRANCH   3   9
ENDBRANCH   1   8
BRANCH   1  12
ATOM     12  C   UNL     1      47.200   3.944  14.427  0.00  0.00    +0.000 C 
BRANCH  12  13
ATOM     13  C   UNL     1      47.645   4.436  15.793  0.00  0.00    +0.000 A 
ATOM     14  C   UNL     1      47.241   3.757  16.942  0.00  0.00    +0.000 A 
ATOM     15  C   UNL     1      47.728   4.170  18.176  0.00  0.00    +0.000 A 
ATOM     16  C   UNL     1      48.613   5.240  18.235  0.00  0.00    +0.000 A 
ATOM     17  C   UNL     1      48.975   5.876  17.052  0.00  0.00    +0.000 A 
ATOM     18  C   UNL     1      49.966   7.001  17.060  0.00  0.00    +0.000 C 
ATOM     19  N   UNL     1      48.503   5.490  15.840  0.00  0.00    +0.000 NA
ENDBRANCH  12  13
ENDBRANCH   1  12
TORSDOF 5
ENDMDL
