MODEL 1
REMARK VINA RESULT:    -8.066      0.000      0.000
REMARK INTER + INTRA:         -10.801
REMARK INTER:                 -10.188
REMARK INTRA:                  -0.614
REMARK UNBOUND:                -0.614
REMARK  Name = 
REMARK  7 active torsions:
REMARK  status: ('A' for Active; 'I' for Inactive)
REMARK    1  A    between atoms: C_1  and  C_2
REMARK    2  A    between atoms: C_2  and  C_3
REMARK    3  A    between atoms: C_2  and  N_4
REMARK    4  A    between atoms: C_2  and  C_5
REMARK    5  A    between atoms: C_8  and  C_9
REMARK    6  A    between atoms: C_9  and  N_10
REMARK    7  A    between atoms: C_15  and  C_16
REMARK                            x       y       z     vdW  Elec       q    Type
REMARK                         _______ _______ _______ _____ _____    ______ ____
ROOT
ATOM      1  N   UNL     1      44.475   5.478  11.439  0.00  0.00    +0.000 N 
ATOM      2  C   UNL     1      44.536   6.823  11.684  0.00  0.00    +0.000 A 
ATOM      3  N   UNL     1      45.282   7.098  12.730  0.00  0.00    +0.000 NA
ATOM      4  C   UNL     1      45.731   5.882  13.175  0.00  0.00    +0.000 A 
ATOM      5  N   UNL     1      46.525   5.694  14.246  0.00  0.00    +0.000 NA
ATOM      6  C   UNL     1      46.804   4.388  14.449  0.00  0.00    +0.000 A 
ATOM      7  N   UNL     1      46.398   3.326  13.708  0.00  0.00    +0.000 NA
ATOM      8  C   UNL     1      45.607   3.552  12.644  0.00  0.00    +0.000 A 
ATOM      9  C   UNL     1      45.256   4.854  12.374  0.00  0.00    +0.000 A 
ENDROOT
BRANCH   6  10
ATOM     10  C   UNL     1      47.658   4.070  15.659  0.00  0.00    +0.000 C 
ATOM     11  N   UNL     1      47.783   5.066  16.600  0.00  0.00    +0.000 N 
ATOM     12  O   UNL     1      48.222   2.993  15.829  0.00  0.00    +0.000 OA
ATOM     13  H   UNL     1      47.319   5.959  16.477  0.00  0.00    +0.000 HD
ATOM     14  H   UNL     1      48.343   4.888  17.421  0.00  0.00    +0.000 HD
ENDBRANCH   6  10
BRANCH   1  15
ATOM     15  C   UNL     1      43.739   4.847  10.353  0.00  0.00    +0.000 C 
BRANCH  15  19
ATOM     16  C   UNL     1      46.363   2.821   7.521  0.00  0.00    +0.000 A 
ATOM     17  C   UNL     1      45.410   2.109   8.265  0.00  0.00    +0.000 A 
ATOM     18  C   UNL     1      44.563   2.756   9.175  0.00  0.00    +0.000 A 
ATOM     19  C   UNL     1      44.654   4.138   9.386  0.00  0.00    +0.000 A 
ATOM     20  C   UNL     1      45.590   4.860   8.637  0.00  0.00    +0.000 A 
ATOM     21  C   UNL     1      46.419   4.213   7.715  0.00  0.00    +0.000 A 
BRANCH  16  23
ATOM     22  C   UNL     1      46.815   2.540   5.075  0.00  0.00    +0.000 C 
ATOM     23  C   UNL     1      47.266   2.134   6.488  0.00  0.00    +0.000 C 
ATOM     24  C   UNL     1      47.257   0.594   6.591  0.00  0.00    +0.000 C 
BRANCH  23  25
ATOM     25  N   UNL     1      48.668   2.558   6.659  0.00  0.00    +0.000 NA
ATOM     26  H   UNL     1      49.229   2.231   5.875  0.00  0.00    +0.000 HD
ATOM     27  H   UNL     1      49.047   2.101   7.488  0.00  0.00    +0.000 HD
ENDBRANCH  23  25
ENDBRANCH  16  23
ENDBRANCH  15  19
ENDBRANCH   1  15
TORSDOF 5
ENDMDL
MODEL 2
REMARK VINA RESULT:    -8.033      0.625      1.179
REMARK INTER + INTRA:         -10.760
REMARK INTER:                 -10.105
REMARK INTRA:                  -0.656
REMARK UNBOUND:                -0.614
REMARK  Name = 
REMARK  7 active torsions:
REMARK  status: ('A' for Active; 'I' for Inactive)
REMARK    1  A    between atoms: C_1  and  C_2
REMARK    2  A    between atoms: C_2  and  C_3
REMARK    3  A    between atoms: C_2  and  N_4
REMARK    4  A    between atoms: C_2  and  C_5
REMARK    5  A    between atoms: C_8  and  C_9
REMARK    6  A    between atoms: C_9  and  N_10
REMARK    7  A    between atoms: C_15  and  C_16
REMARK                            x       y       z     vdW  Elec       q    Type
REMARK                         _______ _______ _______ _____ _____    ______ ____
ROOT
ATOM      1  N   UNL     1      44.726   5.615  11.505  0.00  0.00    +0.000 N 
ATOM      2  C   UNL     1      44.921   6.963  11.639  0.00  0.00    +0.000 A 
ATOM      3  N   UNL     1      45.706   7.247  12.654  0.00  0.00    +0.000 NA
ATOM      4  C   UNL     1      46.040   6.032  13.195  0.00  0.00    +0.000 A 
ATOM      5  N   UNL     1      46.827   5.854  14.272  0.00  0.00    +0.000 NA
ATOM      6  C   UNL     1      46.980   4.548  14.580  0.00  0.00    +0.000 A 
ATOM      7  N   UNL     1      46.463   3.475  13.930  0.00  0.00    +0.000 NA
ATOM      8  C   UNL     1      45.681   3.691  12.857  0.00  0.00    +0.000 A 
ATOM      9  C   UNL     1      45.456   4.995  12.483  0.00  0.00    +0.000 A 
ENDROOT
BRANCH   6  10
ATOM     10  C   UNL     1      47.817   4.246  15.806  0.00  0.00    +0.000 C 
ATOM     11  N   UNL     1      47.403   3.192  16.587  0.00  0.00    +0.000 N 
ATOM     12  O   UNL     1      48.820   4.881  16.117  0.00  0.00    +0.000 OA
ATOM     13  H   UNL     1      46.580   2.654  16.340  0.00  0.00    +0.000 HD
ATOM     14  H   UNL     1      47.939   2.960  17.410  0.00  0.00    +0.000 HD
ENDBRANCH   6  10
BRANCH   1  15
ATOM     15  C   UNL     1      43.916   4.975  10.479  0.00  0.00    +0.000 C 
BRANCH  15  19
ATOM     16  C   UNL     1      46.383   2.905   7.539  0.00  0.00    +0.000 A 
ATOM     17  C   UNL     1      46.449   4.299   7.691  0.00  0.00    +0.000 A 
ATOM     18  C   UNL     1      45.660   4.968   8.635  0.00  0.00    +0.000 A 
ATOM     19  C   UNL     1      44.762   4.267   9.450  0.00  0.00    +0.000 A 
ATOM     20  C   UNL     1      44.700   2.875   9.320  0.00  0.00    +0.000 A 
ATOM     21  C   UNL     1      45.504   2.209   8.389  0.00  0.00    +0.000 A 
BRANCH  16  23
ATOM     22  C   UNL     1      46.838   2.508   5.110  0.00  0.00    +0.000 C 
ATOM     23  C   UNL     1      47.274   2.153   6.541  0.00  0.00    +0.000 C 
ATOM     24  C   UNL     1      47.227   0.620   6.711  0.00  0.00    +0.000 C 
BRANCH  23  25
ATOM     25  N   UNL     1      48.685   2.551   6.701  0.00  0.00    +0.000 NA
ATOM     26  H   UNL     1      49.225   1.773   7.075  0.00  0.00    +0.000 HD
ATOM     27  H   UNL     1      48.736   3.292   7.400  0.00  0.00    +0.000 HD
ENDBRANCH  23  25
ENDBRANCH  16  23
ENDBRANCH  15  19
ENDBRANCH   1  15
TORSDOF 5
ENDMDL
MODEL 3
REMARK VINA RESULT:    -7.744      2.954      7.111
REMARK INTER + INTRA:         -10.395
REMARK INTER:                  -9.864
REMARK INTRA:                  -0.530
REMARK UNBOUND:                -0.614
REMARK  Name = 
REMARK  7 active torsions:
REMARK  status: ('A' for Active; 'I' for Inactive)
REMARK    1  A    between atoms: C_1  and  C_2
REMARK    2  A    between atoms: C_2  and  C_3
REMARK    3  A    between atoms: C_2  and  N_4
REMARK    4  A    between atoms: C_2  and  C_5
REMARK    5  A    between atoms: C_8  and  C_9
REMARK    6  A    between atoms: C_9  and  N_10
REMARK    7  A    between atoms: C_15  and  C_16
REMARK                            x       y       z     vdW  Elec       q    Type
REMARK                         _______ _______ _______ _____ _____    ______ ____
ROOT
ATOM      1  N   UNL     1      43.946   4.305  10.470  0.00  0.00    +0.000 N 
ATOM      2  C   UNL     1      43.512   3.078  10.892  0.00  0.00    +0.000 A 
ATOM      3  N   UNL     1      44.075   2.100  10.221  0.00  0.00    +0.000 NA
ATOM      4  C   UNL     1      44.918   2.718   9.333  0.00  0.00    +0.000 A 
ATOM      5  N   UNL     1      45.692   2.087   8.432  0.00  0.00    +0.000 NA
ATOM      6  C   UNL     1      46.416   2.952   7.688  0.00  0.00    +0.000 A 
ATOM      7  N   UNL     1      46.443   4.305   7.779  0.00  0.00    +0.000 NA
ATOM      8  C   UNL     1      45.657   4.902   8.693  0.00  0.00    +0.000 A 
ATOM      9  C   UNL     1      44.870   4.096   9.482  0.00  0.00    +0.000 A 
ENDROOT
BRANCH   6  10
ATOM     10  C   UNL     1      47.290   2.337   6.614  0.00  0.00    +0.000 C 
ATOM     11  N   UNL     1      47.298   2.971   5.394  0.00  0.00    +0.000 N 
ATOM     12  O   UNL     1      47.972   1.331   6.786  0.00  0.00    +0.000 OA
ATOM     13  H   UNL     1      46.746   3.807   5.238  0.00  0.00    +0.000 HD
ATOM     14  H   UNL     1      47.872   2.591   4.655  0.00  0.00    +0.000 HD
ENDBRANCH   6  10
BRANCH   1  15
ATOM     15  C   UNL     1      43.521   5.587  11.012  0.00  0.00    +0.000 C 
BRANCH  15  19
ATOM     16  C   UNL     1      46.765   7.683  13.036  0.00  0.00    +0.000 A 
ATOM     17  C   UNL     1      45.882   8.362  12.182  0.00  0.00    +0.000 A 
ATOM     18  C   UNL     1      44.837   7.694  11.531  0.00  0.00    +0.000 A 
ATOM     19  C   UNL     1      44.650   6.316  11.698  0.00  0.00    +0.000 A 
ATOM     20  C   UNL     1      45.514   5.631  12.559  0.00  0.00    +0.000 A 
ATOM     21  C   UNL     1      46.543   6.306  13.222  0.00  0.00    +0.000 A 
BRANCH  16  23
ATOM     22  C   UNL     1      48.453   9.526  12.899  0.00  0.00    +0.000 C 
ATOM     23  C   UNL     1      47.886   8.409  13.791  0.00  0.00    +0.000 C 
ATOM     24  C   UNL     1      49.040   7.479  14.219  0.00  0.00    +0.000 C 
BRANCH  23  25
ATOM     25  N   UNL     1      47.365   9.029  15.024  0.00  0.00    +0.000 NA
ATOM     26  H   UNL     1      46.350   9.087  14.981  0.00  0.00    +0.000 HD
ATOM     27  H   UNL     1      47.702   9.990  15.070  0.00  0.00    +0.000 HD
ENDBRANCH  23  25
ENDBRANCH  16  23
ENDBRANCH  15  19
ENDBRANCH   1  15
TORSDOF 5
ENDMDL
MODEL 4
REMARK VINA RESULT:    -6.172      4.710      6.794
REMARK INTER + INTRA:          -8.409
REMARK INTER:                  -7.768
REMARK INTRA:                  -0.640
REMARK UNBOUND:                -0.614
REMARK  Name = 
REMARK  7 active torsions:
REMARK  status: ('A' for Active; 'I' for Inactive)
REMARK    1  A    between atoms: C_1  and  C_2
REMARK    2  A    between atoms: C_2  and  C_3
REMARK    3  A    between atoms: C_2  and  N_4
REMARK    4  A    between atoms: C_2  and  C_5
REMARK    5  A    between atoms: C_8  and  C_9
REMARK    6  A    between atoms: C_9  and  N_10
REMARK    7  A    between atoms: C_15  and  C_16
REMARK                            x       y       z     vdW  Elec       q    Type
REMARK                         _______ _______ _______ _____ _____    ______ ____
ROOT
ATOM      1  N   UNL     1      47.128   6.307  13.705  0.00  0.00    +0.000 N 
ATOM      2  C   UNL     1      47.564   5.417  14.648  0.00  0.00    +0.000 A 
ATOM      3  N   UNL     1      47.067   4.216  14.459  0.00  0.00    +0.000 NA
ATOM      4  C   UNL     1      46.284   4.330  13.339  0.00  0.00    +0.000 A 
ATOM      5  N   UNL     1      45.568   3.331  12.790  0.00  0.00    +0.000 NA
ATOM      6  C   UNL     1      44.888   3.735  11.695  0.00  0.00    +0.000 A 
ATOM      7  N   UNL     1      44.882   4.968  11.128  0.00  0.00    +0.000 NA
ATOM      8  C   UNL     1      45.610   5.941  11.704  0.00  0.00    +0.000 A 
ATOM      9  C   UNL     1      46.320   5.622  12.838  0.00  0.00    +0.000 A 
ENDROOT
BRANCH   6  10
ATOM     10  C   UNL     1      44.018   2.690  11.029  0.00  0.00    +0.000 C 
ATOM     11  N   UNL     1      44.475   2.180   9.836  0.00  0.00    +0.000 N 
ATOM     12  O   UNL     1      42.957   2.289  11.498  0.00  0.00    +0.000 OA
ATOM     13  H   UNL     1      45.353   2.496   9.438  0.00  0.00    +0.000 HD
ATOM     14  H   UNL     1      43.922   1.479   9.365  0.00  0.00    +0.000 HD
ENDBRANCH   6  10
BRANCH   1  15
ATOM     15  C   UNL     1      47.499   7.713  13.630  0.00  0.00    +0.000 C 
BRANCH  15  19
ATOM     16  C   UNL     1      51.491   8.224  11.953  0.00  0.00    +0.000 A 
ATOM     17  C   UNL     1      51.243   8.439  13.318  0.00  0.00    +0.000 A 
ATOM     18  C   UNL     1      49.963   8.275  13.862  0.00  0.00    +0.000 A 
ATOM     19  C   UNL     1      48.879   7.906  13.054  0.00  0.00    +0.000 A 
ATOM     20  C   UNL     1      49.117   7.672  11.695  0.00  0.00    +0.000 A 
ATOM     21  C   UNL     1      50.401   7.819  11.160  0.00  0.00    +0.000 A 
BRANCH  16  23
ATOM     22  C   UNL     1      53.778   9.176  12.308  0.00  0.00    +0.000 C 
ATOM     23  C   UNL     1      52.896   8.357  11.351  0.00  0.00    +0.000 C 
ATOM     24  C   UNL     1      52.908   9.029   9.963  0.00  0.00    +0.000 C 
BRANCH  23  25
ATOM     25  N   UNL     1      53.516   7.029  11.181  0.00  0.00    +0.000 NA
ATOM     26  H   UNL     1      53.291   6.437  11.978  0.00  0.00    +0.000 HD
ATOM     27  H   UNL     1      54.529   7.141  11.188  0.00  0.00    +0.000 HD
ENDBRANCH  23  25
ENDBRANCH  16  23
ENDBRANCH  15  19
ENDBRANCH   1  15
TORSDOF 5
ENDMDL
MODEL 5
REMARK VINA RESULT:    -6.050      4.123      8.807
REMARK INTER + INTRA:          -8.255
REMARK INTER:                  -7.644
REMARK INTRA:                  -0.611
REMARK UNBOUND:                -0.614
REMARK  Name = 
REMARK  7 active torsions:
REMARK  status: ('A' for Active; 'I' for Inactive)
REMARK    1  A    between atoms: C_1  and  C_2
REMARK    2  A    between atoms: C_2  and  C_3
REMARK    3  A    between atoms: C_2  and  N_4
REMARK    4  A    between atoms: C_2  and  C_5
REMARK    5  A    between atoms: C_8  and  C_9
REMARK    6  A    between atoms: C_9  and  N_10
REMARK    7  A    between atoms: C_15  and  C_16
REMARK                            x       y       z     vdW  Elec       q    Type
REMARK                         _______ _______ _______ _____ _____    ______ ____
ROOT
ATOM      1  N   UNL     1      47.583   6.943  13.765  0.00  0.00    +0.000 N 
ATOM      2  C   UNL     1      46.963   8.070  13.298  0.00  0.00    +0.000 A 
ATOM      3  N   UNL     1      45.826   7.794  12.700  0.00  0.00    +0.000 NA
ATOM      4  C   UNL     1      45.699   6.431  12.792  0.00  0.00    +0.000 A 
ATOM      5  N   UNL     1      44.675   5.714  12.295  0.00  0.00    +0.000 NA
ATOM      6  C   UNL     1      44.818   4.392  12.533  0.00  0.00    +0.000 A 
ATOM      7  N   UNL     1      45.823   3.771  13.200  0.00  0.00    +0.000 NA
ATOM      8  C   UNL     1      46.829   4.521  13.685  0.00  0.00    +0.000 A 
ATOM      9  C   UNL     1      46.775   5.878  13.471  0.00  0.00    +0.000 A 
ENDROOT
BRANCH   6  10
ATOM     10  C   UNL     1      43.734   3.494  11.973  0.00  0.00    +0.000 C 
ATOM     11  N   UNL     1      43.699   2.204  12.450  0.00  0.00    +0.000 N 
ATOM     12  O   UNL     1      42.909   3.861  11.142  0.00  0.00    +0.000 OA
ATOM     13  H   UNL     1      44.369   1.887  13.142  0.00  0.00    +0.000 HD
ATOM     14  H   UNL     1      42.988   1.579  12.102  0.00  0.00    +0.000 HD
ENDBRANCH   6  10
BRANCH   1  15
ATOM     15  C   UNL     1      48.851   6.907  14.478  0.00  0.00    +0.000 C 
BRANCH  15  19
ATOM     16  C   UNL     1      48.340   6.630  18.800  0.00  0.00    +0.000 A 
ATOM     17  C   UNL     1      48.431   5.478  18.004  0.00  0.00    +0.000 A 
ATOM     18  C   UNL     1      48.596   5.561  16.615  0.00  0.00    +0.000 A 
ATOM     19  C   UNL     1      48.660   6.804  15.971  0.00  0.00    +0.000 A 
ATOM     20  C   UNL     1      48.587   7.960  16.756  0.00  0.00    +0.000 A 
ATOM     21  C   UNL     1      48.442   7.871  18.145  0.00  0.00    +0.000 A 
BRANCH  16  23
ATOM     22  C   UNL     1      47.758   7.926  20.860  0.00  0.00    +0.000 C 
ATOM     23  C   UNL     1      48.204   6.554  20.326  0.00  0.00    +0.000 C 
ATOM     24  C   UNL     1      49.508   6.142  21.040  0.00  0.00    +0.000 C 
BRANCH  23  25
ATOM     25  N   UNL     1      47.183   5.561  20.709  0.00  0.00    +0.000 NA
ATOM     26  H   UNL     1      46.688   5.875  21.541  0.00  0.00    +0.000 HD
ATOM     27  H   UNL     1      47.654   4.695  20.968  0.00  0.00    +0.000 HD
ENDBRANCH  23  25
ENDBRANCH  16  23
ENDBRANCH  15  19
ENDBRANCH   1  15
TORSDOF 5
ENDMDL
MODEL 6
REMARK VINA RESULT:    -5.976      3.144      4.180
REMARK INTER + INTRA:          -8.161
REMARK INTER:                  -7.517
REMARK INTRA:                  -0.644
REMARK UNBOUND:                -0.614
REMARK  Name = 
REMARK  7 active torsions:
REMARK  status: ('A' for Active; 'I' for Inactive)
REMARK    1  A    between atoms: C_1  and  C_2
REMARK    2  A    between atoms: C_2  and  C_3
REMARK    3  A    between atoms: C_2  and  N_4
REMARK    4  A    between atoms: C_2  and  C_5
REMARK    5  A    between atoms: C_8  and  C_9
REMARK    6  A    between atoms: C_9  and  N_10
REMARK    7  A    between atoms: C_15  and  C_16
REMARK                            x       y       z     vdW  Elec       q    Type
REMARK                         _______ _______ _______ _____ _____    ______ ____
ROOT
ATOM      1  N   UNL     1      46.499   5.899  13.819  0.00  0.00    +0.000 N 
ATOM      2  C   UNL     1      46.810   4.933  14.737  0.00  0.00    +0.000 A 
ATOM      3  N   UNL     1      48.008   5.107  15.247  0.00  0.00    +0.000 NA
ATOM      4  C   UNL     1      48.490   6.239  14.642  0.00  0.00    +0.000 A 
ATOM      5  N   UNL     1      49.702   6.780  14.863  0.00  0.00    +0.000 NA
ATOM      6  C   UNL     1      49.906   7.892  14.124  0.00  0.00    +0.000 A 
ATOM      7  N   UNL     1      49.047   8.481  13.255  0.00  0.00    +0.000 NA
ATOM      8  C   UNL     1      47.843   7.914  13.060  0.00  0.00    +0.000 A 
ATOM      9  C   UNL     1      47.558   6.764  13.759  0.00  0.00    +0.000 A 
ENDROOT
BRANCH   6  10
ATOM     10  C   UNL     1      51.262   8.550  14.272  0.00  0.00    +0.000 C 
ATOM     11  N   UNL     1      52.297   7.990  13.559  0.00  0.00    +0.000 N 
ATOM     12  O   UNL     1      51.467   9.534  14.976  0.00  0.00    +0.000 OA
ATOM     13  H   UNL     1      52.143   7.181  12.967  0.00  0.00    +0.000 HD
ATOM     14  H   UNL     1      53.214   8.405  13.631  0.00  0.00    +0.000 HD
ENDBRANCH   6  10
BRANCH   1  15
ATOM     15  C   UNL     1      45.248   5.995  13.080  0.00  0.00    +0.000 C 
BRANCH  15  19
ATOM     16  C   UNL     1      45.451   3.824   9.305  0.00  0.00    +0.000 A 
ATOM     17  C   UNL     1      45.788   5.184   9.379  0.00  0.00    +0.000 A 
ATOM     18  C   UNL     1      45.726   5.886  10.590  0.00  0.00    +0.000 A 
ATOM     19  C   UNL     1      45.306   5.253  11.768  0.00  0.00    +0.000 A 
ATOM     20  C   UNL     1      44.984   3.893  11.709  0.00  0.00    +0.000 A 
ATOM     21  C   UNL     1      45.066   3.192  10.502  0.00  0.00    +0.000 A 
BRANCH  16  23
ATOM     22  C   UNL     1      45.899   1.567   8.320  0.00  0.00    +0.000 C 
ATOM     23  C   UNL     1      45.557   3.031   7.995  0.00  0.00    +0.000 C 
ATOM     24  C   UNL     1      46.619   3.587   7.024  0.00  0.00    +0.000 C 
BRANCH  23  25
ATOM     25  N   UNL     1      44.273   3.050   7.270  0.00  0.00    +0.000 NA
ATOM     26  H   UNL     1      44.411   3.412   6.329  0.00  0.00    +0.000 HD
ATOM     27  H   UNL     1      43.647   3.707   7.737  0.00  0.00    +0.000 HD
ENDBRANCH  23  25
ENDBRANCH  16  23
ENDBRANCH  15  19
ENDBRANCH   1  15
TORSDOF 5
ENDMDL
MODEL 7
REMARK VINA RESULT:    -5.875      4.591      9.132
REMARK INTER + INTRA:          -8.034
REMARK INTER:                  -7.536
REMARK INTRA:                  -0.498
REMARK UNBOUND:                -0.614
REMARK  Name = 
REMARK  7 active torsions:
REMARK  status: ('A' for Active; 'I' for Inactive)
REMARK    1  A    between atoms: C_1  and  C_2
REMARK    2  A    between atoms: C_2  and  C_3
REMARK    3  A    between atoms: C_2  and  N_4
REMARK    4  A    between atoms: C_2  and  C_5
REMARK    5  A    between atoms: C_8  and  C_9
REMARK    6  A    between atoms: C_9  and  N_10
REMARK    7  A    between atoms: C_15  and  C_16
REMARK                            x       y       z     vdW  Elec       q    Type
REMARK                         _______ _______ _______ _____ _____    ______ ____
ROOT
ATOM      1  N   UNL     1      49.442   5.578  16.957  0.00  0.00    +0.000 N 
ATOM      2  C   UNL     1      50.035   6.590  16.253  0.00  0.00    +0.000 A 
ATOM      3  N   UNL     1      49.465   6.776  15.084  0.00  0.00    +0.000 NA
ATOM      4  C   UNL     1      48.454   5.852  15.032  0.00  0.00    +0.000 A 
ATOM      5  N   UNL     1      47.614   5.680  13.995  0.00  0.00    +0.000 NA
ATOM      6  C   UNL     1      46.720   4.693  14.222  0.00  0.00    +0.000 A 
ATOM      7  N   UNL     1      46.592   3.928  15.336  0.00  0.00    +0.000 NA
ATOM      8  C   UNL     1      47.448   4.128  16.353  0.00  0.00    +0.000 A 
ATOM      9  C   UNL     1      48.406   5.103  16.199  0.00  0.00    +0.000 A 
ENDROOT
BRANCH   6  10
ATOM     10  C   UNL     1      45.756   4.395  13.093  0.00  0.00    +0.000 C 
ATOM     11  N   UNL     1      45.597   3.071  12.755  0.00  0.00    +0.000 N 
ATOM     12  O   UNL     1      45.127   5.260  12.490  0.00  0.00    +0.000 OA
ATOM     13  H   UNL     1      46.104   2.344  13.248  0.00  0.00    +0.000 HD
ATOM     14  H   UNL     1      44.959   2.836  12.009  0.00  0.00    +0.000 HD
ENDBRANCH   6  10
BRANCH   1  15
ATOM     15  C   UNL     1      49.831   5.129  18.286  0.00  0.00    +0.000 C 
BRANCH  15  19
ATOM     16  C   UNL     1      52.748   1.893  18.108  0.00  0.00    +0.000 A 
ATOM     17  C   UNL     1      51.499   1.780  17.478  0.00  0.00    +0.000 A 
ATOM     18  C   UNL     1      50.559   2.818  17.531  0.00  0.00    +0.000 A 
ATOM     19  C   UNL     1      50.830   4.000  18.233  0.00  0.00    +0.000 A 
ATOM     20  C   UNL     1      52.078   4.130  18.851  0.00  0.00    +0.000 A 
ATOM     21  C   UNL     1      53.021   3.099  18.779  0.00  0.00    +0.000 A 
BRANCH  16  23
ATOM     22  C   UNL     1      54.950   1.102  18.998  0.00  0.00    +0.000 C 
ATOM     23  C   UNL     1      53.805   0.784  18.022  0.00  0.00    +0.000 C 
ATOM     24  C   UNL     1      54.393   0.605  16.606  0.00  0.00    +0.000 C 
BRANCH  23  25
ATOM     25  N   UNL     1      53.226  -0.517  18.405  0.00  0.00    +0.000 NA
ATOM     26  H   UNL     1      52.844  -0.982  17.584  0.00  0.00    +0.000 HD
ATOM     27  H   UNL     1      52.438  -0.350  19.029  0.00  0.00    +0.000 HD
ENDBRANCH  23  25
ENDBRANCH  16  23
ENDBRANCH  15  19
ENDBRANCH   1  15
TORSDOF 5
ENDMDL
MODEL 8
REMARK VINA RESULT:    -5.874      3.944      5.485
REMARK INTER + INTRA:          -8.033
REMARK INTER:                  -7.400
REMARK INTRA:                  -0.634
REMARK UNBOUND:                -0.614
REMARK  Name = 
REMARK  7 active torsions:
REMARK  status: ('A' for Active; 'I' for Inactive)
REMARK    1  A    between atoms: C_1  and  C_2
REMARK    2  A    between atoms: C_2  and  C_3
REMARK    3  A    between atoms: C_2  and  N_4
REMARK    4  A    between atoms: C_2  and  C_5
REMARK    5  A    between atoms: C_8  and  C_9
REMARK    6  A    between atoms: C_9  and  N_10
REMARK    7  A    between atoms: C_15  and  C_16
REMARK                            x       y       z     vdW  Elec       q    Type
REMARK                         _______ _______ _______ _____ _____    ______ ____
ROOT
ATOM      1  N   UNL     1      48.629   7.400  14.567  0.00  0.00    +0.000 N 
ATOM      2  C   UNL     1      48.382   8.740  14.685  0.00  0.00    +0.000 A 
ATOM      3  N   UNL     1      48.267   9.110  15.940  0.00  0.00    +0.000 NA
ATOM      4  C   UNL     1      48.457   7.963  16.667  0.00  0.00    +0.000 A 
ATOM      5  N   UNL     1      48.410   7.880  18.009  0.00  0.00    +0.000 NA
ATOM      6  C   UNL     1      48.632   6.622  18.449  0.00  0.00    +0.000 A 
ATOM      7  N   UNL     1      48.898   5.517  17.708  0.00  0.00    +0.000 NA
ATOM      8  C   UNL     1      48.937   5.638  16.368  0.00  0.00    +0.000 A 
ATOM      9  C   UNL     1      48.704   6.883  15.833  0.00  0.00    +0.000 A 
ENDROOT
BRANCH   6  10
ATOM     10  C   UNL     1      48.558   6.418  19.948  0.00  0.00    +0.000 C 
ATOM     11  N   UNL     1      47.616   5.524  20.400  0.00  0.00    +0.000 N 
ATOM     12  O   UNL     1      49.285   6.998  20.749  0.00  0.00    +0.000 OA
ATOM     13  H   UNL     1      47.012   5.032  19.750  0.00  0.00    +0.000 HD
ATOM     14  H   UNL     1      47.541   5.361  21.393  0.00  0.00    +0.000 HD
ENDBRANCH   6  10
BRANCH   1  15
ATOM     15  C   UNL     1      48.814   6.679  13.316  0.00  0.00    +0.000 C 
BRANCH  15  19
ATOM     16  C   UNL     1      45.029   5.184  11.748  0.00  0.00    +0.000 A 
ATOM     17  C   UNL     1      45.665   4.558  12.831  0.00  0.00    +0.000 A 
ATOM     18  C   UNL     1      46.880   5.035  13.340  0.00  0.00    +0.000 A 
ATOM     19  C   UNL     1      47.512   6.148  12.769  0.00  0.00    +0.000 A 
ATOM     20  C   UNL     1      46.879   6.791  11.700  0.00  0.00    +0.000 A 
ATOM     21  C   UNL     1      45.657   6.323  11.208  0.00  0.00    +0.000 A 
BRANCH  16  23
ATOM     22  C   UNL     1      42.549   5.475  11.913  0.00  0.00    +0.000 C 
ATOM     23  C   UNL     1      43.677   4.701  11.209  0.00  0.00    +0.000 C 
ATOM     24  C   UNL     1      43.442   3.189  11.406  0.00  0.00    +0.000 C 
BRANCH  23  25
ATOM     25  N   UNL     1      43.573   4.958   9.761  0.00  0.00    +0.000 NA
ATOM     26  H   UNL     1      42.631   5.269   9.530  0.00  0.00    +0.000 HD
ATOM     27  H   UNL     1      43.709   4.077   9.265  0.00  0.00    +0.000 HD
ENDBRANCH  23  25
ENDBRANCH  16  23
ENDBRANCH  15  19
ENDBRANCH   1  15
TORSDOF 5
ENDMDL
MODEL 9
REMARK VINA RESULT:    -5.747      4.332      6.685
REMARK INTER + INTRA:          -7.873
REMARK INTER:                  -7.361
REMARK INTRA:                  -0.512
REMARK UNBOUND:                -0.614
REMARK  Name = 
REMARK  7 active torsions:
REMARK  status: ('A' for Active; 'I' for Inactive)
REMARK    1  A    between atoms: C_1  and  C_2
REMARK    2  A    between atoms: C_2  and  C_3
REMARK    3  A    between atoms: C_2  and  N_4
REMARK    4  A    between atoms: C_2  and  C_5
REMARK    5  A    between atoms: C_8  and  C_9
REMARK    6  A    between atoms: C_9  and  N_10
REMARK    7  A    between atoms: C_15  and  C_16
REMARK                            x       y       z     vdW  Elec       q    Type
REMARK                         _______ _______ _______ _____ _____    ______ ____
ROOT
ATOM      1  N   UNL     1      45.618   6.097  12.763  0.00  0.00    +0.000 N 
ATOM      2  C   UNL     1      45.328   5.163  13.720  0.00  0.00    +0.000 A 
ATOM      3  N   UNL     1      45.044   3.993  13.194  0.00  0.00    +0.000 NA
ATOM      4  C   UNL     1      45.166   4.174  11.840  0.00  0.00    +0.000 A 
ATOM      5  N   UNL     1      44.951   3.226  10.910  0.00  0.00    +0.000 NA
ATOM      6  C   UNL     1      45.143   3.691   9.656  0.00  0.00    +0.000 A 
ATOM      7  N   UNL     1      45.527   4.937   9.281  0.00  0.00    +0.000 NA
ATOM      8  C   UNL     1      45.735   5.858  10.239  0.00  0.00    +0.000 A 
ATOM      9  C   UNL     1      45.543   5.476  11.546  0.00  0.00    +0.000 A 
ENDROOT
BRANCH   6  10
ATOM     10  C   UNL     1      44.883   2.707   8.534  0.00  0.00    +0.000 C 
ATOM     11  N   UNL     1      44.825   1.378   8.885  0.00  0.00    +0.000 N 
ATOM     12  O   UNL     1      44.723   3.038   7.363  0.00  0.00    +0.000 OA
ATOM     13  H   UNL     1      44.948   1.089   9.849  0.00  0.00    +0.000 HD
ATOM     14  H   UNL     1      44.650   0.694   8.164  0.00  0.00    +0.000 HD
ENDBRANCH   6  10
BRANCH   1  15
ATOM     15  C   UNL     1      45.979   7.485  13.016  0.00  0.00    +0.000 C 
BRANCH  15  19
ATOM     16  C   UNL     1      50.070   8.375  11.801  0.00  0.00    +0.000 A 
ATOM     17  C   UNL     1      49.026   9.279  11.552  0.00  0.00    +0.000 A 
ATOM     18  C   UNL     1      47.710   8.998  11.942  0.00  0.00    +0.000 A 
ATOM     19  C   UNL     1      47.389   7.792  12.580  0.00  0.00    +0.000 A 
ATOM     20  C   UNL     1      48.425   6.891  12.848  0.00  0.00    +0.000 A 
ATOM     21  C   UNL     1      49.741   7.184  12.474  0.00  0.00    +0.000 A 
BRANCH  16  23
ATOM     22  C   UNL     1      52.005   7.660  10.382  0.00  0.00    +0.000 C 
ATOM     23  C   UNL     1      51.524   8.688  11.420  0.00  0.00    +0.000 C 
ATOM     24  C   UNL     1      52.490   8.671  12.623  0.00  0.00    +0.000 C 
BRANCH  23  25
ATOM     25  N   UNL     1      51.626  10.029  10.817  0.00  0.00    +0.000 NA
ATOM     26  H   UNL     1      50.720  10.493  10.845  0.00  0.00    +0.000 HD
ATOM     27  H   UNL     1      51.861   9.924   9.830  0.00  0.00    +0.000 HD
ENDBRANCH  23  25
ENDBRANCH  16  23
ENDBRANCH  15  19
ENDBRANCH   1  15
TORSDOF 5
ENDMDL
