MODEL 1
REMARK VINA RESULT:    -7.766      0.000      0.000
REMARK INTER + INTRA:         -11.026
REMARK INTER:                 -10.036
REMARK INTRA:                  -0.989
REMARK UNBOUND:                -0.989
REMARK  Name = 
REMARK  5 active torsions:
REMARK  status: ('A' for Active; 'I' for Inactive)
REMARK    1  A    between atoms: C_2  and  C_3
REMARK    2  A    between atoms: C_6  and  C_7
REMARK    3  A    between atoms: C_7  and  N_8
REMARK    4  A    between atoms: N_8  and  C_9
REMARK    5  A    between atoms: C_13  and  C_14
REMARK                            x       y       z     vdW  Elec       q    Type
REMARK                         _______ _______ _______ _____ _____    ______ ____
ROOT
ATOM      1  N   UNL     1      44.904   5.639  11.352  0.00  0.00    +0.000 N 
ATOM      2  H   UNL     1      44.459   6.362  10.795  0.00  0.00    +0.000 HD
ENDROOT
BRANCH   1   3
ATOM      3  C   UNL     1      46.097   6.074  11.954  0.00  0.00    +0.000 A 
ATOM      4  C   UNL     1      47.024   6.932  11.373  0.00  0.00    +0.000 A 
ATOM      5  C   UNL     1      48.219   7.235  12.038  0.00  0.00    +0.000 A 
ATOM      6  C   UNL     1      48.501   6.678  13.291  0.00  0.00    +0.000 A 
ATOM      7  C   UNL     1      47.591   5.815  13.916  0.00  0.00    +0.000 A 
ATOM      8  C   UNL     1      46.412   5.519  13.208  0.00  0.00    +0.000 A 
BRANCH   7   9
ATOM      9  C   UNL     1      47.789   5.284  15.288  0.00  0.00    +0.000 A 
ATOM     10  C   UNL     1      48.564   5.980  16.233  0.00  0.00    +0.000 A 
ATOM     11  C   UNL     1      48.640   5.559  17.565  0.00  0.00    +0.000 A 
ATOM     12  C   UNL     1      47.940   4.434  17.986  0.00  0.00    +0.000 A 
ATOM     13  C   UNL     1      47.190   3.707  17.068  0.00  0.00    +0.000 A 
ATOM     14  C   UNL     1      47.131   4.120  15.733  0.00  0.00    +0.000 A 
ENDBRANCH   7   9
ENDBRANCH   1   3
BRANCH   1  15
ATOM     15  C   UNL     1      44.529   4.267  11.003  0.00  0.00    +0.000 C 
ATOM     16  C   UNL     1      44.019   3.277  12.029  0.00  0.00    +0.000 C 
ATOM     17  C   UNL     1      43.034   3.995  11.169  0.00  0.00    +0.000 C 
BRANCH  15  21
ATOM     18  C   UNL     1      46.596   2.693   7.492  0.00  0.00    +0.000 A 
ATOM     19  C   UNL     1      46.448   4.070   7.663  0.00  0.00    +0.000 A 
ATOM     20  C   UNL     1      45.757   4.571   8.774  0.00  0.00    +0.000 A 
ATOM     21  C   UNL     1      45.200   3.719   9.743  0.00  0.00    +0.000 A 
ATOM     22  C   UNL     1      45.318   2.334   9.520  0.00  0.00    +0.000 A 
ATOM     23  C   UNL     1      46.016   1.823   8.419  0.00  0.00    +0.000 A 
BRANCH  18  25
ATOM     24  N   UNL     1      47.979   1.745   5.514  0.00  0.00    +0.000 NA
ATOM     25  C   UNL     1      47.354   2.171   6.398  0.00  0.00    +0.000 C 
ENDBRANCH  18  25
ENDBRANCH  15  21
ENDBRANCH   1  15
TORSDOF 5
ENDMDL
MODEL 2
REMARK VINA RESULT:    -7.656      1.680      3.975
REMARK INTER + INTRA:         -10.884
REMARK INTER:                  -9.823
REMARK INTRA:                  -1.061
REMARK UNBOUND:                -0.989
REMARK  Name = 
REMARK  5 active torsions:
REMARK  status: ('A' for Active; 'I' for Inactive)
REMARK    1  A    between atoms: C_2  and  C_3
REMARK    2  A    between atoms: C_6  and  C_7
REMARK    3  A    between atoms: C_7  and  N_8
REMARK    4  A    between atoms: N_8  and  C_9
REMARK    5  A    between atoms: C_13  and  C_14
REMARK                            x       y       z     vdW  Elec       q    Type
REMARK                         _______ _______ _______ _____ _____    ______ ____
ROOT
ATOM      1  N   UNL     1      44.951   5.981  11.417  0.00  0.00    +0.000 N 
ATOM      2  H   UNL     1      44.759   6.774  10.813  0.00  0.00    +0.000 HD
ENDROOT
BRANCH   1   3
ATOM      3  C   UNL     1      46.136   6.134  12.155  0.00  0.00    +0.000 A 
ATOM      4  C   UNL     1      46.426   5.491  13.354  0.00  0.00    +0.000 A 
ATOM      5  C   UNL     1      47.610   5.781  14.043  0.00  0.00    +0.000 A 
ATOM      6  C   UNL     1      48.517   6.722  13.542  0.00  0.00    +0.000 A 
ATOM      7  C   UNL     1      48.269   7.388  12.333  0.00  0.00    +0.000 A 
ATOM      8  C   UNL     1      47.060   7.084  11.681  0.00  0.00    +0.000 A 
BRANCH   7   9
ATOM      9  C   UNL     1      49.245   8.311  11.702  0.00  0.00    +0.000 A 
ATOM     10  C   UNL     1      48.953   9.677  11.536  0.00  0.00    +0.000 A 
ATOM     11  C   UNL     1      49.918  10.576  11.071  0.00  0.00    +0.000 A 
ATOM     12  C   UNL     1      51.200  10.133  10.764  0.00  0.00    +0.000 A 
ATOM     13  C   UNL     1      51.509   8.783  10.887  0.00  0.00    +0.000 A 
ATOM     14  C   UNL     1      50.537   7.884  11.335  0.00  0.00    +0.000 A 
ENDBRANCH   7   9
ENDBRANCH   1   3
BRANCH   1  15
ATOM     15  C   UNL     1      44.299   4.730  11.026  0.00  0.00    +0.000 C 
ATOM     16  C   UNL     1      43.448   3.921  11.982  0.00  0.00    +0.000 C 
ATOM     17  C   UNL     1      42.773   4.829  11.011  0.00  0.00    +0.000 C 
BRANCH  15  21
ATOM     18  C   UNL     1      46.333   2.634   7.777  0.00  0.00    +0.000 A 
ATOM     19  C   UNL     1      46.302   4.029   7.805  0.00  0.00    +0.000 A 
ATOM     20  C   UNL     1      45.622   4.698   8.831  0.00  0.00    +0.000 A 
ATOM     21  C   UNL     1      44.960   4.000   9.855  0.00  0.00    +0.000 A 
ATOM     22  C   UNL     1      44.961   2.595   9.775  0.00  0.00    +0.000 A 
ATOM     23  C   UNL     1      45.647   1.916   8.760  0.00  0.00    +0.000 A 
BRANCH  18  25
ATOM     24  N   UNL     1      47.688   1.372   5.963  0.00  0.00    +0.000 NA
ATOM     25  C   UNL     1      47.077   1.941   6.773  0.00  0.00    +0.000 C 
ENDBRANCH  18  25
ENDBRANCH  15  21
ENDBRANCH   1  15
TORSDOF 5
ENDMDL
MODEL 3
REMARK VINA RESULT:    -7.457      2.064      7.370
REMARK INTER + INTRA:         -10.626
REMARK INTER:                 -10.281
REMARK INTRA:                  -0.344
REMARK UNBOUND:                -0.989
REMARK  Name = 
REMARK  5 active torsions:
REMARK  status: ('A' for Active; 'I' for Inactive)
REMARK    1  A    between atoms: C_2  and  C_3
REMARK    2  A    between atoms: C_6  and  C_7
REMARK    3  A    between atoms: C_7  and  N_8
REMARK    4  A    between atoms: N_8  and  C_9
REMARK    5  A    between atoms: C_13  and  C_14
REMARK                            x       y       z     vdW  Elec       q    Type
REMARK                         _______ _______ _______ _____ _____    ______ ____
ROOT
ATOM      1  N   UNL     1      46.006   7.391  11.700  0.00  0.00    +0.000 N 
ATOM      2  H   UNL     1      45.507   8.204  12.048  0.00  0.00    +0.000 HD
ENDROOT
BRANCH   1   3
ATOM      3  C   UNL     1      45.146   6.392  11.215  0.00  0.00    +0.000 A 
ATOM      4  C   UNL     1      43.835   6.189  11.630  0.00  0.00    +0.000 A 
ATOM      5  C   UNL     1      43.096   5.109  11.132  0.00  0.00    +0.000 A 
ATOM      6  C   UNL     1      43.663   4.216  10.215  0.00  0.00    +0.000 A 
ATOM      7  C   UNL     1      44.978   4.387   9.764  0.00  0.00    +0.000 A 
ATOM      8  C   UNL     1      45.695   5.472  10.302  0.00  0.00    +0.000 A 
BRANCH   7   9
ATOM      9  C   UNL     1      45.592   3.538   8.712  0.00  0.00    +0.000 A 
ATOM     10  C   UNL     1      46.243   4.108   7.603  0.00  0.00    +0.000 A 
ATOM     11  C   UNL     1      46.941   3.319   6.684  0.00  0.00    +0.000 A 
ATOM     12  C   UNL     1      47.010   1.940   6.852  0.00  0.00    +0.000 A 
ATOM     13  C   UNL     1      46.350   1.344   7.921  0.00  0.00    +0.000 A 
ATOM     14  C   UNL     1      45.637   2.134   8.828  0.00  0.00    +0.000 A 
ENDBRANCH   7   9
ENDBRANCH   1   3
BRANCH   1  15
ATOM     15  C   UNL     1      47.363   7.223  12.226  0.00  0.00    +0.000 C 
ATOM     16  C   UNL     1      48.598   7.477  11.388  0.00  0.00    +0.000 C 
ATOM     17  C   UNL     1      48.133   8.540  12.326  0.00  0.00    +0.000 C 
BRANCH  15  21
ATOM     18  C   UNL     1      47.545   4.532  15.663  0.00  0.00    +0.000 A 
ATOM     19  C   UNL     1      48.225   5.750  15.684  0.00  0.00    +0.000 A 
ATOM     20  C   UNL     1      48.192   6.597  14.569  0.00  0.00    +0.000 A 
ATOM     21  C   UNL     1      47.478   6.258  13.407  0.00  0.00    +0.000 A 
ATOM     22  C   UNL     1      46.844   5.001  13.390  0.00  0.00    +0.000 A 
ATOM     23  C   UNL     1      46.862   4.153  14.504  0.00  0.00    +0.000 A 
BRANCH  18  25
ATOM     24  N   UNL     1      47.487   3.003  17.755  0.00  0.00    +0.000 NA
ATOM     25  C   UNL     1      47.518   3.690  16.817  0.00  0.00    +0.000 C 
ENDBRANCH  18  25
ENDBRANCH  15  21
ENDBRANCH   1  15
TORSDOF 5
ENDMDL
MODEL 4
REMARK VINA RESULT:    -7.054      3.318      7.078
REMARK INTER + INTRA:         -10.106
REMARK INTER:                  -9.268
REMARK INTRA:                  -0.838
REMARK UNBOUND:                -0.989
REMARK  Name = 
REMARK  5 active torsions:
REMARK  status: ('A' for Active; 'I' for Inactive)
REMARK    1  A    between atoms: C_2  and  C_3
REMARK    2  A    between atoms: C_6  and  C_7
REMARK    3  A    between atoms: C_7  and  N_8
REMARK    4  A    between atoms: N_8  and  C_9
REMARK    5  A    between atoms: C_13  and  C_14
REMARK                            x       y       z     vdW  Elec       q    Type
REMARK                         _______ _______ _______ _____ _____    ______ ____
ROOT
ATOM      1  N   UNL     1      45.610   6.829  12.961  0.00  0.00    +0.000 N 
ATOM      2  H   UNL     1      46.248   6.493  13.676  0.00  0.00    +0.000 HD
ENDROOT
BRANCH   1   3
ATOM      3  C   UNL     1      44.832   5.803  12.400  0.00  0.00    +0.000 A 
ATOM      4  C   UNL     1      43.631   5.331  12.918  0.00  0.00    +0.000 A 
ATOM      5  C   UNL     1      42.980   4.246  12.315  0.00  0.00    +0.000 A 
ATOM      6  C   UNL     1      43.528   3.620  11.189  0.00  0.00    +0.000 A 
ATOM      7  C   UNL     1      44.732   4.068  10.630  0.00  0.00    +0.000 A 
ATOM      8  C   UNL     1      45.365   5.146  11.275  0.00  0.00    +0.000 A 
BRANCH   7   9
ATOM      9  C   UNL     1      45.299   3.513   9.376  0.00  0.00    +0.000 A 
ATOM     10  C   UNL     1      45.810   4.356   8.372  0.00  0.00    +0.000 A 
ATOM     11  C   UNL     1      46.471   3.838   7.254  0.00  0.00    +0.000 A 
ATOM     12  C   UNL     1      46.641   2.465   7.112  0.00  0.00    +0.000 A 
ATOM     13  C   UNL     1      46.119   1.605   8.072  0.00  0.00    +0.000 A 
ATOM     14  C   UNL     1      45.443   2.125   9.180  0.00  0.00    +0.000 A 
ENDBRANCH   7   9
ENDBRANCH   1   3
BRANCH   1  15
ATOM     15  C   UNL     1      45.985   8.103  12.344  0.00  0.00    +0.000 C 
ATOM     16  C   UNL     1      45.034   8.898  11.475  0.00  0.00    +0.000 C 
ATOM     17  C   UNL     1      45.203   9.292  12.903  0.00  0.00    +0.000 C 
BRANCH  15  21
ATOM     18  C   UNL     1      50.253   8.626  11.569  0.00  0.00    +0.000 A 
ATOM     19  C   UNL     1      49.755   7.382  11.960  0.00  0.00    +0.000 A 
ATOM     20  C   UNL     1      48.391   7.225  12.239  0.00  0.00    +0.000 A 
ATOM     21  C   UNL     1      47.488   8.296  12.132  0.00  0.00    +0.000 A 
ATOM     22  C   UNL     1      48.023   9.551  11.788  0.00  0.00    +0.000 A 
ATOM     23  C   UNL     1      49.382   9.717  11.497  0.00  0.00    +0.000 A 
BRANCH  18  25
ATOM     24  N   UNL     1      52.747   8.912  10.926  0.00  0.00    +0.000 NA
ATOM     25  C   UNL     1      51.629   8.784  11.220  0.00  0.00    +0.000 C 
ENDBRANCH  18  25
ENDBRANCH  15  21
ENDBRANCH   1  15
TORSDOF 5
ENDMDL
MODEL 5
REMARK VINA RESULT:    -6.782      2.181      4.278
REMARK INTER + INTRA:          -9.754
REMARK INTER:                  -9.451
REMARK INTRA:                  -0.303
REMARK UNBOUND:                -0.989
REMARK  Name = 
REMARK  5 active torsions:
REMARK  status: ('A' for Active; 'I' for Inactive)
REMARK    1  A    between atoms: C_2  and  C_3
REMARK    2  A    between atoms: C_6  and  C_7
REMARK    3  A    between atoms: C_7  and  N_8
REMARK    4  A    between atoms: N_8  and  C_9
REMARK    5  A    between atoms: C_13  and  C_14
REMARK                            x       y       z     vdW  Elec       q    Type
REMARK                         _______ _______ _______ _____ _____    ______ ____
ROOT
ATOM      1  N   UNL     1      45.376   3.905  12.490  0.00  0.00    +0.000 N 
ATOM      2  H   UNL     1      45.279   3.354  13.337  0.00  0.00    +0.000 HD
ENDROOT
BRANCH   1   3
ATOM      3  C   UNL     1      46.084   5.101  12.698  0.00  0.00    +0.000 A 
ATOM      4  C   UNL     1      47.317   5.205  13.332  0.00  0.00    +0.000 A 
ATOM      5  C   UNL     1      47.893   6.462  13.554  0.00  0.00    +0.000 A 
ATOM      6  C   UNL     1      47.239   7.631  13.147  0.00  0.00    +0.000 A 
ATOM      7  C   UNL     1      45.999   7.572  12.497  0.00  0.00    +0.000 A 
ATOM      8  C   UNL     1      45.443   6.293  12.311  0.00  0.00    +0.000 A 
BRANCH   7   9
ATOM      9  C   UNL     1      45.314   8.768  11.947  0.00  0.00    +0.000 A 
ATOM     10  C   UNL     1      45.891  10.048  12.047  0.00  0.00    +0.000 A 
ATOM     11  C   UNL     1      45.320  11.155  11.412  0.00  0.00    +0.000 A 
ATOM     12  C   UNL     1      44.162  11.011  10.655  0.00  0.00    +0.000 A 
ATOM     13  C   UNL     1      43.552   9.765  10.564  0.00  0.00    +0.000 A 
ATOM     14  C   UNL     1      44.114   8.664  11.216  0.00  0.00    +0.000 A 
ENDBRANCH   7   9
ENDBRANCH   1   3
BRANCH   1  15
ATOM     15  C   UNL     1      44.385   3.626  11.449  0.00  0.00    +0.000 C 
ATOM     16  C   UNL     1      43.043   2.992  11.752  0.00  0.00    +0.000 C 
ATOM     17  C   UNL     1      43.118   4.472  11.586  0.00  0.00    +0.000 C 
BRANCH  15  21
ATOM     18  C   UNL     1      46.188   3.134   7.501  0.00  0.00    +0.000 A 
ATOM     19  C   UNL     1      45.960   4.410   8.017  0.00  0.00    +0.000 A 
ATOM     20  C   UNL     1      45.352   4.565   9.269  0.00  0.00    +0.000 A 
ATOM     21  C   UNL     1      44.961   3.458  10.042  0.00  0.00    +0.000 A 
ATOM     22  C   UNL     1      45.154   2.184   9.477  0.00  0.00    +0.000 A 
ATOM     23  C   UNL     1      45.770   2.017   8.231  0.00  0.00    +0.000 A 
BRANCH  18  25
ATOM     24  N   UNL     1      47.411   2.826   5.236  0.00  0.00    +0.000 NA
ATOM     25  C   UNL     1      46.866   2.961   6.255  0.00  0.00    +0.000 C 
ENDBRANCH  18  25
ENDBRANCH  15  21
ENDBRANCH   1  15
TORSDOF 5
ENDMDL
MODEL 6
REMARK VINA RESULT:    -6.691      2.601      7.775
REMARK INTER + INTRA:          -9.636
REMARK INTER:                  -9.043
REMARK INTRA:                  -0.593
REMARK UNBOUND:                -0.989
REMARK  Name = 
REMARK  5 active torsions:
REMARK  status: ('A' for Active; 'I' for Inactive)
REMARK    1  A    between atoms: C_2  and  C_3
REMARK    2  A    between atoms: C_6  and  C_7
REMARK    3  A    between atoms: C_7  and  N_8
REMARK    4  A    between atoms: N_8  and  C_9
REMARK    5  A    between atoms: C_13  and  C_14
REMARK                            x       y       z     vdW  Elec       q    Type
REMARK                         _______ _______ _______ _____ _____    ______ ____
ROOT
ATOM      1  N   UNL     1      46.144   6.115  13.583  0.00  0.00    +0.000 N 
ATOM      2  H   UNL     1      46.526   5.407  14.203  0.00  0.00    +0.000 HD
ENDROOT
BRANCH   1   3
ATOM      3  C   UNL     1      45.141   5.613  12.738  0.00  0.00    +0.000 A 
ATOM      4  C   UNL     1      43.773   5.710  12.967  0.00  0.00    +0.000 A 
ATOM      5  C   UNL     1      42.865   5.102  12.092  0.00  0.00    +0.000 A 
ATOM      6  C   UNL     1      43.316   4.384  10.978  0.00  0.00    +0.000 A 
ATOM      7  C   UNL     1      44.686   4.267  10.704  0.00  0.00    +0.000 A 
ATOM      8  C   UNL     1      45.567   4.874  11.617  0.00  0.00    +0.000 A 
BRANCH   7   9
ATOM      9  C   UNL     1      45.215   3.613   9.481  0.00  0.00    +0.000 A 
ATOM     10  C   UNL     1      45.762   4.370   8.429  0.00  0.00    +0.000 A 
ATOM     11  C   UNL     1      46.386   3.756   7.339  0.00  0.00    +0.000 A 
ATOM     12  C   UNL     1      46.485   2.371   7.275  0.00  0.00    +0.000 A 
ATOM     13  C   UNL     1      45.925   1.594   8.284  0.00  0.00    +0.000 A 
ATOM     14  C   UNL     1      45.285   2.211   9.364  0.00  0.00    +0.000 A 
ENDBRANCH   7   9
ENDBRANCH   1   3
BRANCH   1  15
ATOM     15  C   UNL     1      47.014   7.269  13.348  0.00  0.00    +0.000 C 
ATOM     16  C   UNL     1      46.965   8.077  12.068  0.00  0.00    +0.000 C 
ATOM     17  C   UNL     1      46.247   8.590  13.271  0.00  0.00    +0.000 C 
BRANCH  15  21
ATOM     18  C   UNL     1      50.786   7.122  15.545  0.00  0.00    +0.000 A 
ATOM     19  C   UNL     1      49.652   6.486  16.050  0.00  0.00    +0.000 A 
ATOM     20  C   UNL     1      48.435   6.561  15.360  0.00  0.00    +0.000 A 
ATOM     21  C   UNL     1      48.316   7.266  14.149  0.00  0.00    +0.000 A 
ATOM     22  C   UNL     1      49.461   7.942  13.689  0.00  0.00    +0.000 A 
ATOM     23  C   UNL     1      50.685   7.864  14.366  0.00  0.00    +0.000 A 
BRANCH  18  25
ATOM     24  N   UNL     1      53.071   6.889  16.747  0.00  0.00    +0.000 NA
ATOM     25  C   UNL     1      52.047   6.998  16.207  0.00  0.00    +0.000 C 
ENDBRANCH  18  25
ENDBRANCH  15  21
ENDBRANCH   1  15
TORSDOF 5
ENDMDL
MODEL 7
REMARK VINA RESULT:    -6.603      3.357      7.892
REMARK INTER + INTRA:          -9.523
REMARK INTER:                  -8.600
REMARK INTRA:                  -0.923
REMARK UNBOUND:                -0.989
REMARK  Name = 
REMARK  5 active torsions:
REMARK  status: ('A' for Active; 'I' for Inactive)
REMARK    1  A    between atoms: C_2  and  C_3
REMARK    2  A    between atoms: C_6  and  C_7
REMARK    3  A    between atoms: C_7  and  N_8
REMARK    4  A    between atoms: N_8  and  C_9
REMARK    5  A    between atoms: C_13  and  C_14
REMARK                            x       y       z     vdW  Elec       q    Type
REMARK                         _______ _______ _______ _____ _____    ______ ____
ROOT
ATOM      1  N   UNL     1      47.285   4.939  16.072  0.00  0.00    +0.000 N 
ATOM      2  H   UNL     1      46.757   4.072  16.074  0.00  0.00    +0.000 HD
ENDROOT
BRANCH   1   3
ATOM      3  C   UNL     1      47.390   5.509  14.792  0.00  0.00    +0.000 A 
ATOM      4  C   UNL     1      48.220   6.571  14.451  0.00  0.00    +0.000 A 
ATOM      5  C   UNL     1      48.184   7.109  13.158  0.00  0.00    +0.000 A 
ATOM      6  C   UNL     1      47.313   6.592  12.193  0.00  0.00    +0.000 A 
ATOM      7  C   UNL     1      46.465   5.516  12.491  0.00  0.00    +0.000 A 
ATOM      8  C   UNL     1      46.515   5.017  13.805  0.00  0.00    +0.000 A 
BRANCH   7   9
ATOM      9  C   UNL     1      45.603   4.859  11.477  0.00  0.00    +0.000 A 
ATOM     10  C   UNL     1      45.670   5.220  10.119  0.00  0.00    +0.000 A 
ATOM     11  C   UNL     1      44.964   4.511   9.142  0.00  0.00    +0.000 A 
ATOM     12  C   UNL     1      44.177   3.420   9.496  0.00  0.00    +0.000 A 
ATOM     13  C   UNL     1      44.065   3.059  10.835  0.00  0.00    +0.000 A 
ATOM     14  C   UNL     1      44.757   3.782  11.811  0.00  0.00    +0.000 A 
ENDBRANCH   7   9
ENDBRANCH   1   3
BRANCH   1  15
ATOM     15  C   UNL     1      48.198   5.113  17.204  0.00  0.00    +0.000 C 
ATOM     16  C   UNL     1      48.393   6.446  17.895  0.00  0.00    +0.000 C 
ATOM     17  C   UNL     1      47.475   5.445  18.510  0.00  0.00    +0.000 C 
BRANCH  15  21
ATOM     18  C   UNL     1      51.391   2.156  17.576  0.00  0.00    +0.000 A 
ATOM     19  C   UNL     1      51.649   3.506  17.821  0.00  0.00    +0.000 A 
ATOM     20  C   UNL     1      50.631   4.456  17.670  0.00  0.00    +0.000 A 
ATOM     21  C   UNL     1      49.332   4.090  17.277  0.00  0.00    +0.000 A 
ATOM     22  C   UNL     1      49.112   2.731  16.985  0.00  0.00    +0.000 A 
ATOM     23  C   UNL     1      50.119   1.771  17.143  0.00  0.00    +0.000 A 
BRANCH  18  25
ATOM     24  N   UNL     1      53.225   0.367  17.972  0.00  0.00    +0.000 NA
ATOM     25  C   UNL     1      52.403   1.170  17.789  0.00  0.00    +0.000 C 
ENDBRANCH  18  25
ENDBRANCH  15  21
ENDBRANCH   1  15
TORSDOF 5
ENDMDL
MODEL 8
REMARK VINA RESULT:    -6.054      2.928      7.143
REMARK INTER + INTRA:          -8.813
REMARK INTER:                  -7.715
REMARK INTRA:                  -1.098
REMARK UNBOUND:                -0.989
REMARK  Name = 
REMARK  5 active torsions:
REMARK  status: ('A' for Active; 'I' for Inactive)
REMARK    1  A    between atoms: C_2  and  C_3
REMARK    2  A    between atoms: C_6  and  C_7
REMARK    3  A    between atoms: C_7  and  N_8
REMARK    4  A    between atoms: N_8  and  C_9
REMARK    5  A    between atoms: C_13  and  C_14
REMARK                            x       y       z     vdW  Elec       q    Type
REMARK                         _______ _______ _______ _____ _____    ______ ____
ROOT
ATOM      1  N   UNL     1      47.557   6.668  14.057  0.00  0.00    +0.000 N 
ATOM      2  H   UNL     1      47.703   5.676  14.217  0.00  0.00    +0.000 HD
ENDROOT
BRANCH   1   3
ATOM      3  C   UNL     1      46.592   6.923  13.068  0.00  0.00    +0.000 A 
ATOM      4  C   UNL     1      45.860   8.098  12.943  0.00  0.00    +0.000 A 
ATOM      5  C   UNL     1      44.866   8.210  11.963  0.00  0.00    +0.000 A 
ATOM      6  C   UNL     1      44.591   7.144  11.098  0.00  0.00    +0.000 A 
ATOM      7  C   UNL     1      45.310   5.945  11.183  0.00  0.00    +0.000 A 
ATOM      8  C   UNL     1      46.286   5.863  12.193  0.00  0.00    +0.000 A 
BRANCH   7   9
ATOM      9  C   UNL     1      45.137   4.826  10.223  0.00  0.00    +0.000 A 
ATOM     10  C   UNL     1      45.671   4.891   8.924  0.00  0.00    +0.000 A 
ATOM     11  C   UNL     1      45.632   3.789   8.064  0.00  0.00    +0.000 A 
ATOM     12  C   UNL     1      45.062   2.592   8.483  0.00  0.00    +0.000 A 
ATOM     13  C   UNL     1      44.497   2.506   9.750  0.00  0.00    +0.000 A 
ATOM     14  C   UNL     1      44.521   3.616  10.601  0.00  0.00    +0.000 A 
ENDBRANCH   7   9
ENDBRANCH   1   3
BRANCH   1  15
ATOM     15  C   UNL     1      48.666   7.533  14.465  0.00  0.00    +0.000 C 
ATOM     16  C   UNL     1      48.709   8.217  15.815  0.00  0.00    +0.000 C 
ATOM     17  C   UNL     1      49.480   6.955  15.623  0.00  0.00    +0.000 C 
BRANCH  15  21
ATOM     18  C   UNL     1      51.046   9.291  11.252  0.00  0.00    +0.000 A 
ATOM     19  C   UNL     1      50.566  10.090  12.291  0.00  0.00    +0.000 A 
ATOM     20  C   UNL     1      49.776   9.529  13.303  0.00  0.00    +0.000 A 
ATOM     21  C   UNL     1      49.447   8.163  13.311  0.00  0.00    +0.000 A 
ATOM     22  C   UNL     1      49.899   7.391  12.225  0.00  0.00    +0.000 A 
ATOM     23  C   UNL     1      50.698   7.938  11.214  0.00  0.00    +0.000 A 
BRANCH  18  25
ATOM     24  N   UNL     1      52.598  10.283   9.428  0.00  0.00    +0.000 NA
ATOM     25  C   UNL     1      51.905   9.838  10.250  0.00  0.00    +0.000 C 
ENDBRANCH  18  25
ENDBRANCH  15  21
ENDBRANCH   1  15
TORSDOF 5
ENDMDL
MODEL 9
REMARK VINA RESULT:    -5.923      3.558      5.485
REMARK INTER + INTRA:          -8.644
REMARK INTER:                  -7.557
REMARK INTRA:                  -1.086
REMARK UNBOUND:                -0.989
REMARK  Name = 
REMARK  5 active torsions:
REMARK  status: ('A' for Active; 'I' for Inactive)
REMARK    1  A    between atoms: C_2  and  C_3
REMARK    2  A    between atoms: C_6  and  C_7
REMARK    3  A    between atoms: C_7  and  N_8
REMARK    4  A    between atoms: N_8  and  C_9
REMARK    5  A    between atoms: C_13  and  C_14
REMARK                            x       y       z     vdW  Elec       q    Type
REMARK                         _______ _______ _______ _____ _____    ______ ____
ROOT
ATOM      1  N   UNL     1      49.029   8.634  14.061  0.00  0.00    +0.000 N 
ATOM      2  H   UNL     1      49.980   8.492  13.736  0.00  0.00    +0.000 HD
ENDROOT
BRANCH   1   3
ATOM      3  C   UNL     1      48.838   8.209  15.386  0.00  0.00    +0.000 A 
ATOM      4  C   UNL     1      48.359   9.002  16.424  0.00  0.00    +0.000 A 
ATOM      5  C   UNL     1      48.284   8.492  17.726  0.00  0.00    +0.000 A 
ATOM      6  C   UNL     1      48.692   7.182  18.005  0.00  0.00    +0.000 A 
ATOM      7  C   UNL     1      49.173   6.346  16.989  0.00  0.00    +0.000 A 
ATOM      8  C   UNL     1      49.252   6.901  15.699  0.00  0.00    +0.000 A 
BRANCH   7   9
ATOM      9  C   UNL     1      49.515   4.918  17.208  0.00  0.00    +0.000 A 
ATOM     10  C   UNL     1      48.574   3.900  16.971  0.00  0.00    +0.000 A 
ATOM     11  C   UNL     1      48.930   2.549  17.041  0.00  0.00    +0.000 A 
ATOM     12  C   UNL     1      50.236   2.182  17.344  0.00  0.00    +0.000 A 
ATOM     13  C   UNL     1      51.182   3.166  17.614  0.00  0.00    +0.000 A 
ATOM     14  C   UNL     1      50.818   4.515  17.562  0.00  0.00    +0.000 A 
ENDBRANCH   7   9
ENDBRANCH   1   3
BRANCH   1  15
ATOM     15  C   UNL     1      48.020   8.740  13.004  0.00  0.00    +0.000 C 
ATOM     16  C   UNL     1      47.539  10.073  12.470  0.00  0.00    +0.000 C 
ATOM     17  C   UNL     1      48.575   9.322  11.704  0.00  0.00    +0.000 C 
BRANCH  15  21
ATOM     18  C   UNL     1      45.336   5.298  12.835  0.00  0.00    +0.000 A 
ATOM     19  C   UNL     1      46.718   5.112  12.870  0.00  0.00    +0.000 A 
ATOM     20  C   UNL     1      47.578   6.218  12.892  0.00  0.00    +0.000 A 
ATOM     21  C   UNL     1      47.086   7.535  12.885  0.00  0.00    +0.000 A 
ATOM     22  C   UNL     1      45.691   7.695  12.796  0.00  0.00    +0.000 A 
ATOM     23  C   UNL     1      44.823   6.597  12.785  0.00  0.00    +0.000 A 
BRANCH  18  25
ATOM     24  N   UNL     1      43.728   3.266  12.904  0.00  0.00    +0.000 NA
ATOM     25  C   UNL     1      44.448   4.179  12.878  0.00  0.00    +0.000 C 
ENDBRANCH  18  25
ENDBRANCH  15  21
ENDBRANCH   1  15
TORSDOF 5
ENDMDL
