MODEL 1
REMARK VINA RESULT:    -8.113      0.000      0.000
REMARK INTER + INTRA:         -11.853
REMARK INTER:                 -10.959
REMARK INTRA:                  -0.894
REMARK UNBOUND:                -0.894
REMARK  Name = 
REMARK  7 active torsions:
REMARK  status: ('A' for Active; 'I' for Inactive)
REMARK    1  A    between atoms: C_1  and  C_2
REMARK    2  A    between atoms: C_2  and  N_3
REMARK    3  A    between atoms: C_2  and  C_21
REMARK    4  A    between atoms: C_4  and  C_6
REMARK    5  A    between atoms: C_9  and  C_10
REMARK    6  A    between atoms: C_10  and  N_11
REMARK    7  A    between atoms: C_12  and  C_14
REMARK                            x       y       z     vdW  Elec       q    Type
REMARK                         _______ _______ _______ _____ _____    ______ ____
ROOT
ATOM      1  N   UNL     1      47.491   7.952  14.177  0.00  0.00    +0.000 N 
ATOM      2  C   UNL     1      46.465   8.179  13.286  0.00  0.00    +0.000 C 
ATOM      3  O   UNL     1      46.094   9.287  12.921  0.00  0.00    +0.000 OA
ATOM      4  H   UNL     1      47.942   7.043  14.149  0.00  0.00    +0.000 HD
ENDROOT
BRANCH   2   5
ATOM      5  C   UNL     1      45.807   6.960  12.738  0.00  0.00    +0.000 A 
ATOM      6  C   UNL     1      44.760   7.057  11.814  0.00  0.00    +0.000 A 
ATOM      7  C   UNL     1      44.171   5.900  11.294  0.00  0.00    +0.000 A 
ATOM      8  C   UNL     1      44.613   4.631  11.695  0.00  0.00    +0.000 A 
ATOM      9  C   UNL     1      45.685   4.541  12.596  0.00  0.00    +0.000 A 
ATOM     10  C   UNL     1      46.280   5.699  13.114  0.00  0.00    +0.000 A 
BRANCH   8  11
ATOM     11  C   UNL     1      43.958   3.387  11.149  0.00  0.00    +0.000 C 
BRANCH  11  12
ATOM     12  N   UNL     1      44.844   2.647  10.288  0.00  0.00    +0.000 N 
ATOM     13  C   UNL     1      45.001   2.987   8.958  0.00  0.00    +0.000 C 
ATOM     14  O   UNL     1      44.401   3.931   8.453  0.00  0.00    +0.000 OA
ATOM     15  H   UNL     1      45.401   1.892  10.669  0.00  0.00    +0.000 HD
BRANCH  13  16
ATOM     16  C   UNL     1      45.919   2.148   8.225  0.00  0.00    +0.000 A 
ATOM     17  C   UNL     1      46.852   2.433   7.252  0.00  0.00    +0.000 A 
ATOM     18  C   UNL     1      47.413   1.183   6.935  0.00  0.00    +0.000 A 
ATOM     19  N   UNL     1      46.878   0.196   7.656  0.00  0.00    +0.000 NA
ATOM     20  O   UNL     1      45.937   0.805   8.468  0.00  0.00    +0.000 OA
ENDBRANCH  13  16
ENDBRANCH  11  12
ENDBRANCH   8  11
ENDBRANCH   2   5
BRANCH   1  22
ATOM     21  C   UNL     1      49.638   9.176  14.160  0.00  0.00    +0.000 C 
ATOM     22  C   UNL     1      48.268   9.004  14.819  0.00  0.00    +0.000 C 
BRANCH  22  23
ATOM     23  C   UNL     1      48.297   8.786  16.316  0.00  0.00    +0.000 A 
ATOM     24  C   UNL     1      47.915   9.724  17.264  0.00  0.00    +0.000 A 
ATOM     25  S   UNL     1      48.125   9.194  18.872  0.00  0.00    +0.000 S 
ATOM     26  C   UNL     1      48.728   7.689  18.359  0.00  0.00    +0.000 A 
ATOM     27  N   UNL     1      49.143   6.755  19.256  0.00  0.00    +0.000 NA
ATOM     28  C   UNL     1      49.584   5.666  18.720  0.00  0.00    +0.000 A 
ATOM     29  N   UNL     1      49.628   5.415  17.371  0.00  0.00    +0.000 N 
ATOM     30  C   UNL     1      49.198   6.320  16.424  0.00  0.00    +0.000 A 
ATOM     31  O   UNL     1      49.211   6.053  15.225  0.00  0.00    +0.000 OA
ATOM     32  C   UNL     1      48.733   7.577  16.981  0.00  0.00    +0.000 A 
ATOM     33  H   UNL     1      49.969   4.532  17.024  0.00  0.00    +0.000 HD
ENDBRANCH  22  23
ENDBRANCH   1  22
TORSDOF 6
ENDMDL
MODEL 2
REMARK VINA RESULT:    -8.039      2.659      3.437
REMARK INTER + INTRA:         -11.752
REMARK INTER:                 -10.875
REMARK INTRA:                  -0.877
REMARK UNBOUND:                -0.894
REMARK  Name = 
REMARK  7 active torsions:
REMARK  status: ('A' for Active; 'I' for Inactive)
REMARK    1  A    between atoms: C_1  and  C_2
REMARK    2  A    between atoms: C_2  and  N_3
REMARK    3  A    between atoms: C_2  and  C_21
REMARK    4  A    between atoms: C_4  and  C_6
REMARK    5  A    between atoms: C_9  and  C_10
REMARK    6  A    between atoms: C_10  and  N_11
REMARK    7  A    between atoms: C_12  and  C_14
REMARK                            x       y       z     vdW  Elec       q    Type
REMARK                         _______ _______ _______ _____ _____    ______ ____
ROOT
ATOM      1  N   UNL     1      47.199   5.052  16.097  0.00  0.00    +0.000 N 
ATOM      2  C   UNL     1      47.289   4.022  15.186  0.00  0.00    +0.000 C 
ATOM      3  O   UNL     1      47.822   2.942  15.409  0.00  0.00    +0.000 OA
ATOM      4  H   UNL     1      46.465   5.739  15.954  0.00  0.00    +0.000 HD
ENDROOT
BRANCH   2   5
ATOM      5  C   UNL     1      46.661   4.278  13.861  0.00  0.00    +0.000 A 
ATOM      6  C   UNL     1      46.790   5.519  13.226  0.00  0.00    +0.000 A 
ATOM      7  C   UNL     1      46.212   5.732  11.971  0.00  0.00    +0.000 A 
ATOM      8  C   UNL     1      45.490   4.712  11.335  0.00  0.00    +0.000 A 
ATOM      9  C   UNL     1      45.392   3.460  11.961  0.00  0.00    +0.000 A 
ATOM     10  C   UNL     1      45.975   3.243  13.215  0.00  0.00    +0.000 A 
BRANCH   8  11
ATOM     11  C   UNL     1      44.848   4.954   9.992  0.00  0.00    +0.000 C 
BRANCH  11  12
ATOM     12  N   UNL     1      45.650   4.441   8.912  0.00  0.00    +0.000 N 
ATOM     13  C   UNL     1      45.458   3.164   8.420  0.00  0.00    +0.000 C 
ATOM     14  O   UNL     1      44.599   2.415   8.873  0.00  0.00    +0.000 OA
ATOM     15  H   UNL     1      46.337   5.038   8.469  0.00  0.00    +0.000 HD
BRANCH  13  16
ATOM     16  C   UNL     1      46.342   2.794   7.341  0.00  0.00    +0.000 A 
ATOM     17  C   UNL     1      46.528   3.317   6.080  0.00  0.00    +0.000 A 
ATOM     18  C   UNL     1      47.525   2.504   5.512  0.00  0.00    +0.000 A 
ATOM     19  N   UNL     1      47.935   1.553   6.352  0.00  0.00    +0.000 NA
ATOM     20  O   UNL     1      47.190   1.735   7.504  0.00  0.00    +0.000 OA
ENDBRANCH  13  16
ENDBRANCH  11  12
ENDBRANCH   8  11
ENDBRANCH   2   5
BRANCH   1  22
ATOM     21  C   UNL     1      46.821   5.706  18.451  0.00  0.00    +0.000 C 
ATOM     22  C   UNL     1      47.739   5.002  17.449  0.00  0.00    +0.000 C 
BRANCH  22  23
ATOM     23  C   UNL     1      49.176   5.476  17.450  0.00  0.00    +0.000 A 
ATOM     24  C   UNL     1      49.580   6.789  17.256  0.00  0.00    +0.000 A 
ATOM     25  S   UNL     1      51.274   6.989  17.250  0.00  0.00    +0.000 S 
ATOM     26  C   UNL     1      51.529   5.327  17.512  0.00  0.00    +0.000 A 
ATOM     27  N   UNL     1      52.784   4.810  17.571  0.00  0.00    +0.000 NA
ATOM     28  C   UNL     1      52.822   3.533  17.766  0.00  0.00    +0.000 A 
ATOM     29  N   UNL     1      51.720   2.730  17.929  0.00  0.00    +0.000 N 
ATOM     30  C   UNL     1      50.428   3.211  17.900  0.00  0.00    +0.000 A 
ATOM     31  O   UNL     1      49.463   2.476  18.090  0.00  0.00    +0.000 OA
ATOM     32  C   UNL     1      50.339   4.637  17.641  0.00  0.00    +0.000 A 
ATOM     33  H   UNL     1      51.826   1.741  18.096  0.00  0.00    +0.000 HD
ENDBRANCH  22  23
ENDBRANCH   1  22
TORSDOF 6
ENDMDL
MODEL 3
REMARK VINA RESULT:    -7.886      2.230      3.092
REMARK INTER + INTRA:         -11.545
REMARK INTER:                 -10.754
REMARK INTRA:                  -0.791
REMARK UNBOUND:                -0.894
REMARK  Name = 
REMARK  7 active torsions:
REMARK  status: ('A' for Active; 'I' for Inactive)
REMARK    1  A    between atoms: C_1  and  C_2
REMARK    2  A    between atoms: C_2  and  N_3
REMARK    3  A    between atoms: C_2  and  C_21
REMARK    4  A    between atoms: C_4  and  C_6
REMARK    5  A    between atoms: C_9  and  C_10
REMARK    6  A    between atoms: C_10  and  N_11
REMARK    7  A    between atoms: C_12  and  C_14
REMARK                            x       y       z     vdW  Elec       q    Type
REMARK                         _______ _______ _______ _____ _____    ______ ____
ROOT
ATOM      1  N   UNL     1      47.928   6.366  16.077  0.00  0.00    +0.000 N 
ATOM      2  C   UNL     1      48.374   6.522  14.783  0.00  0.00    +0.000 C 
ATOM      3  O   UNL     1      49.465   6.984  14.475  0.00  0.00    +0.000 OA
ATOM      4  H   UNL     1      47.196   5.681  16.240  0.00  0.00    +0.000 HD
ENDROOT
BRANCH   2   5
ATOM      5  C   UNL     1      47.438   6.062  13.720  0.00  0.00    +0.000 A 
ATOM      6  C   UNL     1      46.630   4.934  13.906  0.00  0.00    +0.000 A 
ATOM      7  C   UNL     1      45.741   4.532  12.904  0.00  0.00    +0.000 A 
ATOM      8  C   UNL     1      45.651   5.245  11.701  0.00  0.00    +0.000 A 
ATOM      9  C   UNL     1      46.439   6.394  11.533  0.00  0.00    +0.000 A 
ATOM     10  C   UNL     1      47.326   6.801  12.538  0.00  0.00    +0.000 A 
BRANCH   8  11
ATOM     11  C   UNL     1      44.708   4.793  10.614  0.00  0.00    +0.000 C 
BRANCH  11  12
ATOM     12  N   UNL     1      45.412   4.236   9.488  0.00  0.00    +0.000 N 
ATOM     13  C   UNL     1      45.235   2.919   9.112  0.00  0.00    +0.000 C 
ATOM     14  O   UNL     1      44.473   2.168   9.712  0.00  0.00    +0.000 OA
ATOM     15  H   UNL     1      46.013   4.828   8.929  0.00  0.00    +0.000 HD
BRANCH  13  16
ATOM     16  C   UNL     1      46.014   2.508   7.968  0.00  0.00    +0.000 A 
ATOM     17  C   UNL     1      46.367   3.164   6.809  0.00  0.00    +0.000 A 
ATOM     18  C   UNL     1      47.120   2.218   6.092  0.00  0.00    +0.000 A 
ATOM     19  N   UNL     1      47.235   1.064   6.751  0.00  0.00    +0.000 NA
ATOM     20  O   UNL     1      46.538   1.247   7.933  0.00  0.00    +0.000 OA
ENDBRANCH  13  16
ENDBRANCH  11  12
ENDBRANCH   8  11
ENDBRANCH   2   5
BRANCH   1  22
ATOM     21  C   UNL     1      48.933   8.253  17.317  0.00  0.00    +0.000 C 
ATOM     22  C   UNL     1      48.691   6.743  17.259  0.00  0.00    +0.000 C 
BRANCH  22  23
ATOM     23  C   UNL     1      49.935   5.888  17.366  0.00  0.00    +0.000 A 
ATOM     24  C   UNL     1      51.231   6.376  17.453  0.00  0.00    +0.000 A 
ATOM     25  S   UNL     1      52.420   5.153  17.497  0.00  0.00    +0.000 S 
ATOM     26  C   UNL     1      51.245   3.926  17.407  0.00  0.00    +0.000 A 
ATOM     27  N   UNL     1      51.600   2.615  17.362  0.00  0.00    +0.000 NA
ATOM     28  C   UNL     1      50.602   1.799  17.286  0.00  0.00    +0.000 A 
ATOM     29  N   UNL     1      49.280   2.172  17.273  0.00  0.00    +0.000 N 
ATOM     30  C   UNL     1      48.870   3.486  17.339  0.00  0.00    +0.000 A 
ATOM     31  O   UNL     1      47.679   3.788  17.366  0.00  0.00    +0.000 OA
ATOM     32  C   UNL     1      49.962   4.441  17.383  0.00  0.00    +0.000 A 
ATOM     33  H   UNL     1      48.551   1.476  17.230  0.00  0.00    +0.000 HD
ENDBRANCH  22  23
ENDBRANCH   1  22
TORSDOF 6
ENDMDL
MODEL 4
REMARK VINA RESULT:    -7.854      2.361      2.953
REMARK INTER + INTRA:         -11.503
REMARK INTER:                 -10.478
REMARK INTRA:                  -1.025
REMARK UNBOUND:                -0.894
REMARK  Name = 
REMARK  7 active torsions:
REMARK  status: ('A' for Active; 'I' for Inactive)
REMARK    1  A    between atoms: C_1  and  C_2
REMARK    2  A    between atoms: C_2  and  N_3
REMARK    3  A    between atoms: C_2  and  C_21
REMARK    4  A    between atoms: C_4  and  C_6
REMARK    5  A    between atoms: C_9  and  C_10
REMARK    6  A    between atoms: C_10  and  N_11
REMARK    7  A    between atoms: C_12  and  C_14
REMARK                            x       y       z     vdW  Elec       q    Type
REMARK                         _______ _______ _______ _____ _____    ______ ____
ROOT
ATOM      1  N   UNL     1      47.947   7.295  14.556  0.00  0.00    +0.000 N 
ATOM      2  C   UNL     1      47.601   5.965  14.450  0.00  0.00    +0.000 C 
ATOM      3  O   UNL     1      47.888   5.104  15.273  0.00  0.00    +0.000 OA
ATOM      4  H   UNL     1      47.389   7.966  14.037  0.00  0.00    +0.000 HD
ENDROOT
BRANCH   2   5
ATOM      5  C   UNL     1      46.801   5.602  13.247  0.00  0.00    +0.000 A 
ATOM      6  C   UNL     1      46.817   6.404  12.100  0.00  0.00    +0.000 A 
ATOM      7  C   UNL     1      46.077   6.034  10.972  0.00  0.00    +0.000 A 
ATOM      8  C   UNL     1      45.306   4.862  10.976  0.00  0.00    +0.000 A 
ATOM      9  C   UNL     1      45.322   4.046  12.117  0.00  0.00    +0.000 A 
ATOM     10  C   UNL     1      46.066   4.412  13.246  0.00  0.00    +0.000 A 
BRANCH   8  11
ATOM     11  C   UNL     1      44.492   4.480   9.766  0.00  0.00    +0.000 C 
BRANCH  11  12
ATOM     12  N   UNL     1      45.326   4.104   8.654  0.00  0.00    +0.000 N 
ATOM     13  C   UNL     1      45.702   2.791   8.452  0.00  0.00    +0.000 C 
ATOM     14  O   UNL     1      45.344   1.889   9.202  0.00  0.00    +0.000 OA
ATOM     15  H   UNL     1      45.605   4.804   7.977  0.00  0.00    +0.000 HD
BRANCH  13  16
ATOM     16  C   UNL     1      46.541   2.574   7.297  0.00  0.00    +0.000 A 
ATOM     17  C   UNL     1      46.591   3.188   6.065  0.00  0.00    +0.000 A 
ATOM     18  C   UNL     1      47.618   2.512   5.383  0.00  0.00    +0.000 A 
ATOM     19  N   UNL     1      48.172   1.556   6.131  0.00  0.00    +0.000 NA
ATOM     20  O   UNL     1      47.494   1.596   7.337  0.00  0.00    +0.000 OA
ENDBRANCH  13  16
ENDBRANCH  11  12
ENDBRANCH   8  11
ENDBRANCH   2   5
BRANCH   1  22
ATOM     21  C   UNL     1      48.093   9.151  16.181  0.00  0.00    +0.000 C 
ATOM     22  C   UNL     1      48.718   7.856  15.657  0.00  0.00    +0.000 C 
BRANCH  22  23
ATOM     23  C   UNL     1      50.177   7.958  15.269  0.00  0.00    +0.000 A 
ATOM     24  C   UNL     1      50.682   8.800  14.290  0.00  0.00    +0.000 A 
ATOM     25  S   UNL     1      52.362   8.632  14.044  0.00  0.00    +0.000 S 
ATOM     26  C   UNL     1      52.476   7.430  15.244  0.00  0.00    +0.000 A 
ATOM     27  N   UNL     1      53.659   6.820  15.517  0.00  0.00    +0.000 NA
ATOM     28  C   UNL     1      53.590   5.923  16.444  0.00  0.00    +0.000 A 
ATOM     29  N   UNL     1      52.451   5.596  17.138  0.00  0.00    +0.000 N 
ATOM     30  C   UNL     1      51.234   6.203  16.914  0.00  0.00    +0.000 A 
ATOM     31  O   UNL     1      50.241   5.919  17.579  0.00  0.00    +0.000 OA
ATOM     32  C   UNL     1      51.257   7.189  15.849  0.00  0.00    +0.000 A 
ATOM     33  H   UNL     1      52.476   4.896  17.864  0.00  0.00    +0.000 HD
ENDBRANCH  22  23
ENDBRANCH   1  22
TORSDOF 6
ENDMDL
MODEL 5
REMARK VINA RESULT:    -7.611      1.608      2.276
REMARK INTER + INTRA:         -11.175
REMARK INTER:                 -10.261
REMARK INTRA:                  -0.914
REMARK UNBOUND:                -0.894
REMARK  Name = 
REMARK  7 active torsions:
REMARK  status: ('A' for Active; 'I' for Inactive)
REMARK    1  A    between atoms: C_1  and  C_2
REMARK    2  A    between atoms: C_2  and  N_3
REMARK    3  A    between atoms: C_2  and  C_21
REMARK    4  A    between atoms: C_4  and  C_6
REMARK    5  A    between atoms: C_9  and  C_10
REMARK    6  A    between atoms: C_10  and  N_11
REMARK    7  A    between atoms: C_12  and  C_14
REMARK                            x       y       z     vdW  Elec       q    Type
REMARK                         _______ _______ _______ _____ _____    ______ ____
ROOT
ATOM      1  N   UNL     1      48.284   6.873  14.747  0.00  0.00    +0.000 N 
ATOM      2  C   UNL     1      47.419   7.466  13.852  0.00  0.00    +0.000 C 
ATOM      3  O   UNL     1      47.323   8.673  13.675  0.00  0.00    +0.000 OA
ATOM      4  H   UNL     1      48.537   5.904  14.580  0.00  0.00    +0.000 HD
ENDROOT
BRANCH   2   5
ATOM      5  C   UNL     1      46.580   6.531  13.052  0.00  0.00    +0.000 A 
ATOM      6  C   UNL     1      46.481   5.176  13.393  0.00  0.00    +0.000 A 
ATOM      7  C   UNL     1      45.669   4.319  12.643  0.00  0.00    +0.000 A 
ATOM      8  C   UNL     1      44.952   4.800  11.538  0.00  0.00    +0.000 A 
ATOM      9  C   UNL     1      45.030   6.165  11.222  0.00  0.00    +0.000 A 
ATOM     10  C   UNL     1      45.837   7.026  11.976  0.00  0.00    +0.000 A 
BRANCH   8  11
ATOM     11  C   UNL     1      44.098   3.867  10.718  0.00  0.00    +0.000 C 
BRANCH  11  12
ATOM     12  N   UNL     1      44.894   2.951   9.941  0.00  0.00    +0.000 N 
ATOM     13  C   UNL     1      45.331   3.279   8.673  0.00  0.00    +0.000 C 
ATOM     14  O   UNL     1      45.067   4.359   8.153  0.00  0.00    +0.000 OA
ATOM     15  H   UNL     1      45.182   2.069  10.346  0.00  0.00    +0.000 HD
BRANCH  13  16
ATOM     16  C   UNL     1      46.114   2.257   8.021  0.00  0.00    +0.000 A 
ATOM     17  C   UNL     1      47.040   2.314   7.003  0.00  0.00    +0.000 A 
ATOM     18  C   UNL     1      47.433   0.976   6.818  0.00  0.00    +0.000 A 
ATOM     19  N   UNL     1      46.808   0.149   7.658  0.00  0.00    +0.000 NA
ATOM     20  O   UNL     1      45.977   0.956   8.415  0.00  0.00    +0.000 OA
ENDBRANCH  13  16
ENDBRANCH  11  12
ENDBRANCH   8  11
ENDBRANCH   2   5
BRANCH   1  22
ATOM     21  C   UNL     1      50.577   7.765  14.980  0.00  0.00    +0.000 C 
ATOM     22  C   UNL     1      49.194   7.606  15.616  0.00  0.00    +0.000 C 
BRANCH  22  23
ATOM     23  C   UNL     1      49.189   6.997  17.002  0.00  0.00    +0.000 A 
ATOM     24  C   UNL     1      49.769   5.783  17.339  0.00  0.00    +0.000 A 
ATOM     25  S   UNL     1      49.535   5.344  18.971  0.00  0.00    +0.000 S 
ATOM     26  C   UNL     1      48.655   6.764  19.288  0.00  0.00    +0.000 A 
ATOM     27  N   UNL     1      48.119   7.000  20.514  0.00  0.00    +0.000 NA
ATOM     28  C   UNL     1      47.470   8.113  20.603  0.00  0.00    +0.000 A 
ATOM     29  N   UNL     1      47.327   9.023  19.584  0.00  0.00    +0.000 N 
ATOM     30  C   UNL     1      47.871   8.840  18.331  0.00  0.00    +0.000 A 
ATOM     31  O   UNL     1      47.761   9.691  17.451  0.00  0.00    +0.000 OA
ATOM     32  C   UNL     1      48.573   7.580  18.174  0.00  0.00    +0.000 A 
ATOM     33  H   UNL     1      46.820   9.883  19.732  0.00  0.00    +0.000 HD
ENDBRANCH  22  23
ENDBRANCH   1  22
TORSDOF 6
ENDMDL
MODEL 6
REMARK VINA RESULT:    -7.564      2.285      3.440
REMARK INTER + INTRA:         -11.110
REMARK INTER:                 -10.149
REMARK INTRA:                  -0.961
REMARK UNBOUND:                -0.894
REMARK  Name = 
REMARK  7 active torsions:
REMARK  status: ('A' for Active; 'I' for Inactive)
REMARK    1  A    between atoms: C_1  and  C_2
REMARK    2  A    between atoms: C_2  and  N_3
REMARK    3  A    between atoms: C_2  and  C_21
REMARK    4  A    between atoms: C_4  and  C_6
REMARK    5  A    between atoms: C_9  and  C_10
REMARK    6  A    between atoms: C_10  and  N_11
REMARK    7  A    between atoms: C_12  and  C_14
REMARK                            x       y       z     vdW  Elec       q    Type
REMARK                         _______ _______ _______ _____ _____    ______ ____
ROOT
ATOM      1  N   UNL     1      47.957   5.863  15.814  0.00  0.00    +0.000 N 
ATOM      2  C   UNL     1      47.546   4.636  15.340  0.00  0.00    +0.000 C 
ATOM      3  O   UNL     1      47.735   3.571  15.914  0.00  0.00    +0.000 OA
ATOM      4  H   UNL     1      47.470   6.685  15.468  0.00  0.00    +0.000 HD
ENDROOT
BRANCH   2   5
ATOM      5  C   UNL     1      46.805   4.660  14.048  0.00  0.00    +0.000 A 
ATOM      6  C   UNL     1      46.703   5.836  13.295  0.00  0.00    +0.000 A 
ATOM      7  C   UNL     1      46.022   5.832  12.073  0.00  0.00    +0.000 A 
ATOM      8  C   UNL     1      45.428   4.657  11.590  0.00  0.00    +0.000 A 
ATOM      9  C   UNL     1      45.563   3.475  12.333  0.00  0.00    +0.000 A 
ATOM     10  C   UNL     1      46.250   3.475  13.554  0.00  0.00    +0.000 A 
BRANCH   8  11
ATOM     11  C   UNL     1      44.675   4.664  10.284  0.00  0.00    +0.000 C 
BRANCH  11  12
ATOM     12  N   UNL     1      45.488   4.196   9.191  0.00  0.00    +0.000 N 
ATOM     13  C   UNL     1      45.387   2.899   8.727  0.00  0.00    +0.000 C 
ATOM     14  O   UNL     1      44.603   2.092   9.216  0.00  0.00    +0.000 OA
ATOM     15  H   UNL     1      46.114   4.837   8.720  0.00  0.00    +0.000 HD
BRANCH  13  16
ATOM     16  C   UNL     1      46.271   2.579   7.631  0.00  0.00    +0.000 A 
ATOM     17  C   UNL     1      46.552   3.234   6.452  0.00  0.00    +0.000 A 
ATOM     18  C   UNL     1      47.487   2.403   5.809  0.00  0.00    +0.000 A 
ATOM     19  N   UNL     1      47.772   1.318   6.531  0.00  0.00    +0.000 NA
ATOM     20  O   UNL     1      47.006   1.430   7.678  0.00  0.00    +0.000 OA
ENDBRANCH  13  16
ENDBRANCH  11  12
ENDBRANCH   8  11
ENDBRANCH   2   5
BRANCH   1  22
ATOM     21  C   UNL     1      48.081   7.189  17.896  0.00  0.00    +0.000 C 
ATOM     22  C   UNL     1      48.687   6.060  17.059  0.00  0.00    +0.000 C 
BRANCH  22  23
ATOM     23  C   UNL     1      50.167   6.191  16.776  0.00  0.00    +0.000 A 
ATOM     24  C   UNL     1      51.160   5.418  17.358  0.00  0.00    +0.000 A 
ATOM     25  S   UNL     1      52.738   5.856  16.878  0.00  0.00    +0.000 S 
ATOM     26  C   UNL     1      52.150   7.092  15.868  0.00  0.00    +0.000 A 
ATOM     27  N   UNL     1      52.998   7.898  15.177  0.00  0.00    +0.000 NA
ATOM     28  C   UNL     1      52.409   8.795  14.460  0.00  0.00    +0.000 A 
ATOM     29  N   UNL     1      51.048   8.948  14.353  0.00  0.00    +0.000 N 
ATOM     30  C   UNL     1      50.147   8.142  15.016  0.00  0.00    +0.000 A 
ATOM     31  O   UNL     1      48.935   8.275  14.869  0.00  0.00    +0.000 OA
ATOM     32  C   UNL     1      50.769   7.145  15.868  0.00  0.00    +0.000 A 
ATOM     33  H   UNL     1      50.657   9.662  13.757  0.00  0.00    +0.000 HD
ENDBRANCH  22  23
ENDBRANCH   1  22
TORSDOF 6
ENDMDL
MODEL 7
REMARK VINA RESULT:    -7.320      1.887      2.258
REMARK INTER + INTRA:         -10.781
REMARK INTER:                  -9.916
REMARK INTRA:                  -0.866
REMARK UNBOUND:                -0.894
REMARK  Name = 
REMARK  7 active torsions:
REMARK  status: ('A' for Active; 'I' for Inactive)
REMARK    1  A    between atoms: C_1  and  C_2
REMARK    2  A    between atoms: C_2  and  N_3
REMARK    3  A    between atoms: C_2  and  C_21
REMARK    4  A    between atoms: C_4  and  C_6
REMARK    5  A    between atoms: C_9  and  C_10
REMARK    6  A    between atoms: C_10  and  N_11
REMARK    7  A    between atoms: C_12  and  C_14
REMARK                            x       y       z     vdW  Elec       q    Type
REMARK                         _______ _______ _______ _____ _____    ______ ____
ROOT
ATOM      1  N   UNL     1      49.045   7.326  14.326  0.00  0.00    +0.000 N 
ATOM      2  C   UNL     1      47.765   7.694  13.969  0.00  0.00    +0.000 C 
ATOM      3  O   UNL     1      47.289   8.809  14.141  0.00  0.00    +0.000 OA
ATOM      4  H   UNL     1      49.453   6.529  13.846  0.00  0.00    +0.000 HD
ENDROOT
BRANCH   2   5
ATOM      5  C   UNL     1      46.951   6.634  13.311  0.00  0.00    +0.000 A 
ATOM      6  C   UNL     1      46.140   6.926  12.208  0.00  0.00    +0.000 A 
ATOM      7  C   UNL     1      45.401   5.912  11.590  0.00  0.00    +0.000 A 
ATOM      8  C   UNL     1      45.455   4.595  12.069  0.00  0.00    +0.000 A 
ATOM      9  C   UNL     1      46.295   4.303  13.154  0.00  0.00    +0.000 A 
ATOM     10  C   UNL     1      47.040   5.316  13.771  0.00  0.00    +0.000 A 
BRANCH   8  11
ATOM     11  C   UNL     1      44.637   3.511  11.414  0.00  0.00    +0.000 C 
BRANCH  11  12
ATOM     12  N   UNL     1      45.405   2.766  10.450  0.00  0.00    +0.000 N 
ATOM     13  C   UNL     1      45.107   2.816   9.103  0.00  0.00    +0.000 C 
ATOM     14  O   UNL     1      44.184   3.495   8.666  0.00  0.00    +0.000 OA
ATOM     15  H   UNL     1      46.210   2.231  10.755  0.00  0.00    +0.000 HD
BRANCH  13  16
ATOM     16  C   UNL     1      45.964   2.011   8.264  0.00  0.00    +0.000 A 
ATOM     17  C   UNL     1      46.865   2.345   7.277  0.00  0.00    +0.000 A 
ATOM     18  C   UNL     1      47.369   1.109   6.836  0.00  0.00    +0.000 A 
ATOM     19  N   UNL     1      46.832   0.083   7.500  0.00  0.00    +0.000 NA
ATOM     20  O   UNL     1      45.948   0.652   8.399  0.00  0.00    +0.000 OA
ENDBRANCH  13  16
ENDBRANCH  11  12
ENDBRANCH   8  11
ENDBRANCH   2   5
BRANCH   1  22
ATOM     21  C   UNL     1      50.494   9.304  14.016  0.00  0.00    +0.000 C 
ATOM     22  C   UNL     1      50.004   8.213  14.970  0.00  0.00    +0.000 C 
BRANCH  22  23
ATOM     23  C   UNL     1      51.095   7.400  15.633  0.00  0.00    +0.000 A 
ATOM     24  C   UNL     1      52.454   7.562  15.409  0.00  0.00    +0.000 A 
ATOM     25  S   UNL     1      53.424   6.447  16.262  0.00  0.00    +0.000 S 
ATOM     26  C   UNL     1      52.062   5.711  16.966  0.00  0.00    +0.000 A 
ATOM     27  N   UNL     1      52.190   4.640  17.792  0.00  0.00    +0.000 NA
ATOM     28  C   UNL     1      51.070   4.183  18.244  0.00  0.00    +0.000 A 
ATOM     29  N   UNL     1      49.834   4.713  17.964  0.00  0.00    +0.000 N 
ATOM     30  C   UNL     1      49.655   5.812  17.151  0.00  0.00    +0.000 A 
ATOM     31  O   UNL     1      48.540   6.289  16.951  0.00  0.00    +0.000 OA
ATOM     32  C   UNL     1      50.886   6.332  16.587  0.00  0.00    +0.000 A 
ATOM     33  H   UNL     1      49.001   4.313  18.368  0.00  0.00    +0.000 HD
ENDBRANCH  22  23
ENDBRANCH   1  22
TORSDOF 6
ENDMDL
MODEL 8
REMARK VINA RESULT:    -7.095      3.319      8.834
REMARK INTER + INTRA:         -10.478
REMARK INTER:                  -9.687
REMARK INTRA:                  -0.790
REMARK UNBOUND:                -0.894
REMARK  Name = 
REMARK  7 active torsions:
REMARK  status: ('A' for Active; 'I' for Inactive)
REMARK    1  A    between atoms: C_1  and  C_2
REMARK    2  A    between atoms: C_2  and  N_3
REMARK    3  A    between atoms: C_2  and  C_21
REMARK    4  A    between atoms: C_4  and  C_6
REMARK    5  A    between atoms: C_9  and  C_10
REMARK    6  A    between atoms: C_10  and  N_11
REMARK    7  A    between atoms: C_12  and  C_14
REMARK                            x       y       z     vdW  Elec       q    Type
REMARK                         _______ _______ _______ _____ _____    ______ ____
ROOT
ATOM      1  N   UNL     1      46.500   6.544  12.464  0.00  0.00    +0.000 N 
ATOM      2  C   UNL     1      47.783   7.047  12.412  0.00  0.00    +0.000 C 
ATOM      3  O   UNL     1      48.272   7.604  11.437  0.00  0.00    +0.000 OA
ATOM      4  H   UNL     1      46.082   6.426  13.382  0.00  0.00    +0.000 HD
ENDROOT
BRANCH   2   5
ATOM      5  C   UNL     1      48.583   6.899  13.659  0.00  0.00    +0.000 A 
ATOM      6  C   UNL     1      49.842   7.499  13.786  0.00  0.00    +0.000 A 
ATOM      7  C   UNL     1      50.567   7.367  14.975  0.00  0.00    +0.000 A 
ATOM      8  C   UNL     1      50.051   6.629  16.049  0.00  0.00    +0.000 A 
ATOM      9  C   UNL     1      48.775   6.059  15.927  0.00  0.00    +0.000 A 
ATOM     10  C   UNL     1      48.044   6.194  14.741  0.00  0.00    +0.000 A 
BRANCH   8  11
ATOM     11  C   UNL     1      50.848   6.471  17.319  0.00  0.00    +0.000 C 
BRANCH  11  12
ATOM     12  N   UNL     1      51.503   5.190  17.386  0.00  0.00    +0.000 N 
ATOM     13  C   UNL     1      50.917   4.117  18.030  0.00  0.00    +0.000 C 
ATOM     14  O   UNL     1      49.818   4.203  18.567  0.00  0.00    +0.000 OA
ATOM     15  H   UNL     1      52.389   5.053  16.914  0.00  0.00    +0.000 HD
BRANCH  13  16
ATOM     16  C   UNL     1      51.699   2.904  18.016  0.00  0.00    +0.000 A 
ATOM     17  C   UNL     1      51.508   1.691  17.391  0.00  0.00    +0.000 A 
ATOM     18  C   UNL     1      52.618   0.922  17.782  0.00  0.00    +0.000 A 
ATOM     19  N   UNL     1      53.442   1.601  18.582  0.00  0.00    +0.000 NA
ATOM     20  O   UNL     1      52.863   2.850  18.728  0.00  0.00    +0.000 OA
ENDBRANCH  13  16
ENDBRANCH  11  12
ENDBRANCH   8  11
ENDBRANCH   2   5
BRANCH   1  22
ATOM     21  C   UNL     1      44.653   7.830  11.443  0.00  0.00    +0.000 C 
ATOM     22  C   UNL     1      45.553   6.596  11.359  0.00  0.00    +0.000 C 
BRANCH  22  23
ATOM     23  C   UNL     1      44.825   5.275  11.240  0.00  0.00    +0.000 A 
ATOM     24  C   UNL     1      43.974   4.747  12.199  0.00  0.00    +0.000 A 
ATOM     25  S   UNL     1      43.359   3.208  11.794  0.00  0.00    +0.000 S 
ATOM     26  C   UNL     1      44.204   3.194  10.318  0.00  0.00    +0.000 A 
ATOM     27  N   UNL     1      44.145   2.122   9.484  0.00  0.00    +0.000 NA
ATOM     28  C   UNL     1      44.845   2.251   8.406  0.00  0.00    +0.000 A 
ATOM     29  N   UNL     1      45.581   3.362   8.075  0.00  0.00    +0.000 N 
ATOM     30  C   UNL     1      45.653   4.482   8.876  0.00  0.00    +0.000 A 
ATOM     31  O   UNL     1      46.287   5.477   8.534  0.00  0.00    +0.000 OA
ATOM     32  C   UNL     1      44.915   4.363  10.120  0.00  0.00    +0.000 A 
ATOM     33  H   UNL     1      46.090   3.399   7.205  0.00  0.00    +0.000 HD
ENDBRANCH  22  23
ENDBRANCH   1  22
TORSDOF 6
ENDMDL
MODEL 9
REMARK VINA RESULT:    -7.057      3.740      8.669
REMARK INTER + INTRA:         -10.426
REMARK INTER:                  -9.592
REMARK INTRA:                  -0.834
REMARK UNBOUND:                -0.894
REMARK  Name = 
REMARK  7 active torsions:
REMARK  status: ('A' for Active; 'I' for Inactive)
REMARK    1  A    between atoms: C_1  and  C_2
REMARK    2  A    between atoms: C_2  and  N_3
REMARK    3  A    between atoms: C_2  and  C_21
REMARK    4  A    between atoms: C_4  and  C_6
REMARK    5  A    between atoms: C_9  and  C_10
REMARK    6  A    between atoms: C_10  and  N_11
REMARK    7  A    between atoms: C_12  and  C_14
REMARK                            x       y       z     vdW  Elec       q    Type
REMARK                         _______ _______ _______ _____ _____    ______ ____
ROOT
ATOM      1  N   UNL     1      46.674   6.635  12.813  0.00  0.00    +0.000 N 
ATOM      2  C   UNL     1      48.003   6.846  13.112  0.00  0.00    +0.000 C 
ATOM      3  O   UNL     1      48.806   7.388  12.364  0.00  0.00    +0.000 OA
ATOM      4  H   UNL     1      46.034   6.509  13.591  0.00  0.00    +0.000 HD
ENDROOT
BRANCH   2   5
ATOM      5  C   UNL     1      48.440   6.386  14.459  0.00  0.00    +0.000 A 
ATOM      6  C   UNL     1      49.513   6.998  15.120  0.00  0.00    +0.000 A 
ATOM      7  C   UNL     1      49.893   6.567  16.395  0.00  0.00    +0.000 A 
ATOM      8  C   UNL     1      49.214   5.514  17.025  0.00  0.00    +0.000 A 
ATOM      9  C   UNL     1      48.119   4.928  16.372  0.00  0.00    +0.000 A 
ATOM     10  C   UNL     1      47.733   5.362  15.097  0.00  0.00    +0.000 A 
BRANCH   8  11
ATOM     11  C   UNL     1      49.643   5.037  18.389  0.00  0.00    +0.000 C 
BRANCH  11  12
ATOM     12  N   UNL     1      50.378   3.801  18.320  0.00  0.00    +0.000 N 
ATOM     13  C   UNL     1      51.759   3.789  18.283  0.00  0.00    +0.000 C 
ATOM     14  O   UNL     1      52.419   4.822  18.312  0.00  0.00    +0.000 OA
ATOM     15  H   UNL     1      49.881   2.919  18.345  0.00  0.00    +0.000 HD
BRANCH  13  16
ATOM     16  C   UNL     1      52.350   2.474  18.209  0.00  0.00    +0.000 A 
ATOM     17  C   UNL     1      52.048   1.369  17.444  0.00  0.00    +0.000 A 
ATOM     18  C   UNL     1      52.985   0.401  17.849  0.00  0.00    +0.000 A 
ATOM     19  N   UNL     1      53.811   0.865  18.788  0.00  0.00    +0.000 NA
ATOM     20  O   UNL     1      53.411   2.171  19.014  0.00  0.00    +0.000 OA
ENDBRANCH  13  16
ENDBRANCH  11  12
ENDBRANCH   8  11
ENDBRANCH   2   5
BRANCH   1  22
ATOM     21  C   UNL     1      44.958   8.073  11.767  0.00  0.00    +0.000 C 
ATOM     22  C   UNL     1      46.046   7.018  11.556  0.00  0.00    +0.000 C 
BRANCH  22  23
ATOM     23  C   UNL     1      45.606   5.782  10.801  0.00  0.00    +0.000 A 
ATOM     24  C   UNL     1      45.879   5.528   9.465  0.00  0.00    +0.000 A 
ATOM     25  S   UNL     1      45.189   4.077   8.890  0.00  0.00    +0.000 S 
ATOM     26  C   UNL     1      44.506   3.733  10.410  0.00  0.00    +0.000 A 
ATOM     27  N   UNL     1      43.737   2.629  10.600  0.00  0.00    +0.000 NA
ATOM     28  C   UNL     1      43.279   2.503  11.802  0.00  0.00    +0.000 A 
ATOM     29  N   UNL     1      43.538   3.369  12.836  0.00  0.00    +0.000 N 
ATOM     30  C   UNL     1      44.330   4.489  12.698  0.00  0.00    +0.000 A 
ATOM     31  O   UNL     1      44.578   5.223  13.651  0.00  0.00    +0.000 OA
ATOM     32  C   UNL     1      44.831   4.691  11.351  0.00  0.00    +0.000 A 
ATOM     33  H   UNL     1      43.160   3.197  13.756  0.00  0.00    +0.000 HD
ENDBRANCH  22  23
ENDBRANCH   1  22
TORSDOF 6
ENDMDL
