MODEL 1
REMARK VINA RESULT:    -7.067      0.000      0.000
REMARK INTER + INTRA:          -9.263
REMARK INTER:                  -8.926
REMARK INTRA:                  -0.337
REMARK UNBOUND:                -0.337
REMARK  Name = 
REMARK  5 active torsions:
REMARK  status: ('A' for Active; 'I' for Inactive)
REMARK    1  A    between atoms: N_1  and  C_2
REMARK    2  A    between atoms: C_6  and  C_7
REMARK    3  A    between atoms: C_7  and  C_8
REMARK    4  A    between atoms: C_8  and  S_9
REMARK    5  A    between atoms: S_9  and  C_10
REMARK                            x       y       z     vdW  Elec       q    Type
REMARK                         _______ _______ _______ _____ _____    ______ ____
ROOT
ATOM      1  C   UNL     1      47.307   2.459   6.374  0.00  0.00    +0.000 A 
ATOM      2  C   UNL     1      47.268   1.179   6.928  0.00  0.00    +0.000 A 
ATOM      3  C   UNL     1      46.427   0.895   8.007  0.00  0.00    +0.000 A 
ATOM      4  C   UNL     1      45.643   1.902   8.566  0.00  0.00    +0.000 A 
ATOM      5  C   UNL     1      45.705   3.206   8.059  0.00  0.00    +0.000 A 
ATOM      6  C   UNL     1      46.563   3.476   6.981  0.00  0.00    +0.000 A 
ENDROOT
BRANCH   1   7
ATOM      7  N   UNL     1      48.245   2.768   5.381  0.00  0.00    +0.000 N 
ATOM      8  H   UNL     1      48.759   1.961   5.042  0.00  0.00    +0.000 HD
ATOM      9  H   UNL     1      47.866   3.326   4.622  0.00  0.00    +0.000 HD
ENDBRANCH   1   7
BRANCH   5  10
ATOM     10  C   UNL     1      44.887   4.316   8.680  0.00  0.00    +0.000 C 
BRANCH  10  11
ATOM     11  C   UNL     1      44.019   3.801   9.830  0.00  0.00    +0.000 C 
BRANCH  11  12
ATOM     12  S   UNL     1      43.588   5.175  10.960  0.00  0.00    +0.000 S 
BRANCH  12  13
ATOM     13  C   UNL     1      44.955   5.207  12.108  0.00  0.00    +0.000 A 
ATOM     14  C   UNL     1      46.017   6.074  11.835  0.00  0.00    +0.000 A 
ATOM     15  C   UNL     1      47.111   6.145  12.698  0.00  0.00    +0.000 A 
ATOM     16  C   UNL     1      47.113   5.339  13.823  0.00  0.00    +0.000 A 
ATOM     17  N   UNL     1      46.113   4.487  14.128  0.00  0.00    +0.000 NA
ATOM     18  C   UNL     1      45.065   4.443  13.266  0.00  0.00    +0.000 A 
ENDBRANCH  12  13
ENDBRANCH  11  12
ENDBRANCH  10  11
ENDBRANCH   5  10
TORSDOF 5
ENDMDL
MODEL 2
REMARK VINA RESULT:    -6.891      1.302      1.762
REMARK INTER + INTRA:          -9.042
REMARK INTER:                  -8.673
REMARK INTRA:                  -0.368
REMARK UNBOUND:                -0.337
REMARK  Name = 
REMARK  5 active torsions:
REMARK  status: ('A' for Active; 'I' for Inactive)
REMARK    1  A    between atoms: N_1  and  C_2
REMARK    2  A    between atoms: C_6  and  C_7
REMARK    3  A    between atoms: C_7  and  C_8
REMARK    4  A    between atoms: C_8  and  S_9
REMARK    5  A    between atoms: S_9  and  C_10
REMARK                            x       y       z     vdW  Elec       q    Type
REMARK                         _______ _______ _______ _____ _____    ______ ____
ROOT
ATOM      1  C   UNL     1      46.727   0.909   7.699  0.00  0.00    +0.000 A 
ATOM      2  C   UNL     1      47.526   1.569   6.764  0.00  0.00    +0.000 A 
ATOM      3  C   UNL     1      47.422   2.951   6.587  0.00  0.00    +0.000 A 
ATOM      4  C   UNL     1      46.487   3.681   7.319  0.00  0.00    +0.000 A 
ATOM      5  C   UNL     1      45.639   3.032   8.225  0.00  0.00    +0.000 A 
ATOM      6  C   UNL     1      45.752   1.641   8.384  0.00  0.00    +0.000 A 
ENDROOT
BRANCH   1   7
ATOM      7  N   UNL     1      46.745  -0.489   7.779  0.00  0.00    +0.000 N 
ATOM      8  H   UNL     1      46.827  -0.946   6.877  0.00  0.00    +0.000 HD
ATOM      9  H   UNL     1      47.414  -0.850   8.452  0.00  0.00    +0.000 HD
ENDBRANCH   1   7
BRANCH   5  10
ATOM     10  C   UNL     1      44.597   3.806   8.999  0.00  0.00    +0.000 C 
BRANCH  10  11
ATOM     11  C   UNL     1      44.217   3.096  10.301  0.00  0.00    +0.000 C 
BRANCH  11  12
ATOM     12  S   UNL     1      43.744   4.322  11.574  0.00  0.00    +0.000 S 
BRANCH  12  13
ATOM     13  C   UNL     1      45.316   4.930  12.164  0.00  0.00    +0.000 A 
ATOM     14  C   UNL     1      45.830   6.091  11.577  0.00  0.00    +0.000 A 
ATOM     15  C   UNL     1      47.052   6.614  12.000  0.00  0.00    +0.000 A 
ATOM     16  C   UNL     1      47.735   5.957  13.008  0.00  0.00    +0.000 A 
ATOM     17  N   UNL     1      47.281   4.836  13.604  0.00  0.00    +0.000 NA
ATOM     18  C   UNL     1      46.089   4.353  13.168  0.00  0.00    +0.000 A 
ENDBRANCH  12  13
ENDBRANCH  11  12
ENDBRANCH  10  11
ENDBRANCH   5  10
TORSDOF 5
ENDMDL
MODEL 3
REMARK VINA RESULT:    -6.859      0.889      1.279
REMARK INTER + INTRA:          -9.001
REMARK INTER:                  -8.628
REMARK INTRA:                  -0.373
REMARK UNBOUND:                -0.337
REMARK  Name = 
REMARK  5 active torsions:
REMARK  status: ('A' for Active; 'I' for Inactive)
REMARK    1  A    between atoms: N_1  and  C_2
REMARK    2  A    between atoms: C_6  and  C_7
REMARK    3  A    between atoms: C_7  and  C_8
REMARK    4  A    between atoms: C_8  and  S_9
REMARK    5  A    between atoms: S_9  and  C_10
REMARK                            x       y       z     vdW  Elec       q    Type
REMARK                         _______ _______ _______ _____ _____    ______ ____
ROOT
ATOM      1  C   UNL     1      47.501   2.371   6.798  0.00  0.00    +0.000 A 
ATOM      2  C   UNL     1      47.267   1.075   7.259  0.00  0.00    +0.000 A 
ATOM      3  C   UNL     1      46.231   0.816   8.160  0.00  0.00    +0.000 A 
ATOM      4  C   UNL     1      45.443   1.861   8.639  0.00  0.00    +0.000 A 
ATOM      5  C   UNL     1      45.694   3.177   8.229  0.00  0.00    +0.000 A 
ATOM      6  C   UNL     1      46.745   3.420   7.330  0.00  0.00    +0.000 A 
ENDROOT
BRANCH   1   7
ATOM      7  N   UNL     1      48.619   2.643   5.999  0.00  0.00    +0.000 N 
ATOM      8  H   UNL     1      48.757   1.970   5.251  0.00  0.00    +0.000 HD
ATOM      9  H   UNL     1      48.656   3.600   5.663  0.00  0.00    +0.000 HD
ENDBRANCH   1   7
BRANCH   5  10
ATOM     10  C   UNL     1      44.871   4.324   8.769  0.00  0.00    +0.000 C 
BRANCH  10  11
ATOM     11  C   UNL     1      43.942   3.870   9.898  0.00  0.00    +0.000 C 
BRANCH  11  12
ATOM     12  S   UNL     1      43.610   5.261  11.040  0.00  0.00    +0.000 S 
BRANCH  12  13
ATOM     13  C   UNL     1      45.169   5.484  11.881  0.00  0.00    +0.000 A 
ATOM     14  C   UNL     1      45.481   4.603  12.922  0.00  0.00    +0.000 A 
ATOM     15  C   UNL     1      46.687   4.727  13.614  0.00  0.00    +0.000 A 
ATOM     16  C   UNL     1      47.556   5.738  13.243  0.00  0.00    +0.000 A 
ATOM     17  N   UNL     1      47.298   6.611  12.248  0.00  0.00    +0.000 NA
ATOM     18  C   UNL     1      46.117   6.462  11.597  0.00  0.00    +0.000 A 
ENDBRANCH  12  13
ENDBRANCH  11  12
ENDBRANCH  10  11
ENDBRANCH   5  10
TORSDOF 5
ENDMDL
MODEL 4
REMARK VINA RESULT:    -6.676      1.214      6.368
REMARK INTER + INTRA:          -8.770
REMARK INTER:                  -8.417
REMARK INTRA:                  -0.353
REMARK UNBOUND:                -0.337
REMARK  Name = 
REMARK  5 active torsions:
REMARK  status: ('A' for Active; 'I' for Inactive)
REMARK    1  A    between atoms: N_1  and  C_2
REMARK    2  A    between atoms: C_6  and  C_7
REMARK    3  A    between atoms: C_7  and  C_8
REMARK    4  A    between atoms: C_8  and  S_9
REMARK    5  A    between atoms: S_9  and  C_10
REMARK                            x       y       z     vdW  Elec       q    Type
REMARK                         _______ _______ _______ _____ _____    ______ ____
ROOT
ATOM      1  C   UNL     1      46.475   4.813  13.881  0.00  0.00    +0.000 A 
ATOM      2  C   UNL     1      47.374   5.752  13.374  0.00  0.00    +0.000 A 
ATOM      3  C   UNL     1      47.135   6.378  12.148  0.00  0.00    +0.000 A 
ATOM      4  C   UNL     1      46.010   6.040  11.398  0.00  0.00    +0.000 A 
ATOM      5  C   UNL     1      45.121   5.063  11.863  0.00  0.00    +0.000 A 
ATOM      6  C   UNL     1      45.381   4.437  13.093  0.00  0.00    +0.000 A 
ENDROOT
BRANCH   1   7
ATOM      7  N   UNL     1      46.785   4.097  15.044  0.00  0.00    +0.000 N 
ATOM      8  H   UNL     1      47.408   3.312  14.883  0.00  0.00    +0.000 HD
ATOM      9  H   UNL     1      47.099   4.682  15.811  0.00  0.00    +0.000 HD
ENDBRANCH   1   7
BRANCH   5  10
ATOM     10  C   UNL     1      43.916   4.661  11.043  0.00  0.00    +0.000 C 
BRANCH  10  11
ATOM     11  C   UNL     1      44.310   4.270   9.616  0.00  0.00    +0.000 C 
BRANCH  11  12
ATOM     12  S   UNL     1      44.647   2.474   9.523  0.00  0.00    +0.000 S 
BRANCH  12  13
ATOM     13  C   UNL     1      45.809   2.343   8.174  0.00  0.00    +0.000 A 
ATOM     14  C   UNL     1      45.978   3.457   7.346  0.00  0.00    +0.000 A 
ATOM     15  C   UNL     1      46.876   3.414   6.279  0.00  0.00    +0.000 A 
ATOM     16  C   UNL     1      47.587   2.246   6.065  0.00  0.00    +0.000 A 
ATOM     17  N   UNL     1      47.458   1.147   6.835  0.00  0.00    +0.000 NA
ATOM     18  C   UNL     1      46.576   1.223   7.864  0.00  0.00    +0.000 A 
ENDBRANCH  12  13
ENDBRANCH  11  12
ENDBRANCH  10  11
ENDBRANCH   5  10
TORSDOF 5
ENDMDL
MODEL 5
REMARK VINA RESULT:    -6.204      1.563      2.154
REMARK INTER + INTRA:          -8.174
REMARK INTER:                  -7.783
REMARK INTRA:                  -0.390
REMARK UNBOUND:                -0.337
REMARK  Name = 
REMARK  5 active torsions:
REMARK  status: ('A' for Active; 'I' for Inactive)
REMARK    1  A    between atoms: N_1  and  C_2
REMARK    2  A    between atoms: C_6  and  C_7
REMARK    3  A    between atoms: C_7  and  C_8
REMARK    4  A    between atoms: C_8  and  S_9
REMARK    5  A    between atoms: S_9  and  C_10
REMARK                            x       y       z     vdW  Elec       q    Type
REMARK                         _______ _______ _______ _____ _____    ______ ____
ROOT
ATOM      1  C   UNL     1      46.230   3.488   7.684  0.00  0.00    +0.000 A 
ATOM      2  C   UNL     1      46.205   2.100   7.831  0.00  0.00    +0.000 A 
ATOM      3  C   UNL     1      45.343   1.496   8.749  0.00  0.00    +0.000 A 
ATOM      4  C   UNL     1      44.524   2.280   9.559  0.00  0.00    +0.000 A 
ATOM      5  C   UNL     1      44.570   3.676   9.466  0.00  0.00    +0.000 A 
ATOM      6  C   UNL     1      45.448   4.267   8.544  0.00  0.00    +0.000 A 
ENDROOT
BRANCH   1   7
ATOM      7  N   UNL     1      47.185   4.093   6.858  0.00  0.00    +0.000 N 
ATOM      8  H   UNL     1      47.513   4.989   7.205  0.00  0.00    +0.000 HD
ATOM      9  H   UNL     1      47.953   3.477   6.605  0.00  0.00    +0.000 HD
ENDBRANCH   1   7
BRANCH   5  10
ATOM     10  C   UNL     1      43.712   4.539  10.363  0.00  0.00    +0.000 C 
BRANCH  10  11
ATOM     11  C   UNL     1      44.504   5.716  10.938  0.00  0.00    +0.000 C 
BRANCH  11  12
ATOM     12  S   UNL     1      44.940   5.390  12.685  0.00  0.00    +0.000 S 
BRANCH  12  13
ATOM     13  C   UNL     1      46.593   6.051  12.827  0.00  0.00    +0.000 A 
ATOM     14  C   UNL     1      47.052   6.888  11.805  0.00  0.00    +0.000 A 
ATOM     15  C   UNL     1      48.333   7.437  11.863  0.00  0.00    +0.000 A 
ATOM     16  C   UNL     1      49.130   7.131  12.952  0.00  0.00    +0.000 A 
ATOM     17  N   UNL     1      48.732   6.329  13.961  0.00  0.00    +0.000 NA
ATOM     18  C   UNL     1      47.480   5.812  13.872  0.00  0.00    +0.000 A 
ENDBRANCH  12  13
ENDBRANCH  11  12
ENDBRANCH  10  11
ENDBRANCH   5  10
TORSDOF 5
ENDMDL
MODEL 6
REMARK VINA RESULT:    -6.101      1.963      2.664
REMARK INTER + INTRA:          -8.043
REMARK INTER:                  -7.621
REMARK INTRA:                  -0.422
REMARK UNBOUND:                -0.337
REMARK  Name = 
REMARK  5 active torsions:
REMARK  status: ('A' for Active; 'I' for Inactive)
REMARK    1  A    between atoms: N_1  and  C_2
REMARK    2  A    between atoms: C_6  and  C_7
REMARK    3  A    between atoms: C_7  and  C_8
REMARK    4  A    between atoms: C_8  and  S_9
REMARK    5  A    between atoms: S_9  and  C_10
REMARK                            x       y       z     vdW  Elec       q    Type
REMARK                         _______ _______ _______ _____ _____    ______ ____
ROOT
ATOM      1  C   UNL     1      46.238   1.707   8.139  0.00  0.00    +0.000 A 
ATOM      2  C   UNL     1      46.700   2.764   7.353  0.00  0.00    +0.000 A 
ATOM      3  C   UNL     1      46.291   4.074   7.611  0.00  0.00    +0.000 A 
ATOM      4  C   UNL     1      45.383   4.335   8.636  0.00  0.00    +0.000 A 
ATOM      5  C   UNL     1      44.867   3.283   9.403  0.00  0.00    +0.000 A 
ATOM      6  C   UNL     1      45.281   1.971   9.125  0.00  0.00    +0.000 A 
ENDROOT
BRANCH   1   7
ATOM      7  N   UNL     1      46.548   0.385   7.795  0.00  0.00    +0.000 N 
ATOM      8  H   UNL     1      47.371   0.301   7.207  0.00  0.00    +0.000 HD
ATOM      9  H   UNL     1      46.581  -0.246   8.590  0.00  0.00    +0.000 HD
ENDBRANCH   1   7
BRANCH   5  10
ATOM     10  C   UNL     1      43.854   3.548  10.495  0.00  0.00    +0.000 C 
BRANCH  10  11
ATOM     11  C   UNL     1      43.813   5.029  10.879  0.00  0.00    +0.000 C 
BRANCH  11  12
ATOM     12  S   UNL     1      44.406   5.253  12.595  0.00  0.00    +0.000 S 
BRANCH  12  13
ATOM     13  C   UNL     1      45.586   6.585  12.453  0.00  0.00    +0.000 A 
ATOM     14  C   UNL     1      46.851   6.285  11.936  0.00  0.00    +0.000 A 
ATOM     15  C   UNL     1      47.813   7.286  11.799  0.00  0.00    +0.000 A 
ATOM     16  C   UNL     1      47.482   8.573  12.185  0.00  0.00    +0.000 A 
ATOM     17  N   UNL     1      46.278   8.910  12.689  0.00  0.00    +0.000 NA
ATOM     18  C   UNL     1      45.366   7.912  12.810  0.00  0.00    +0.000 A 
ENDBRANCH  12  13
ENDBRANCH  11  12
ENDBRANCH  10  11
ENDBRANCH   5  10
TORSDOF 5
ENDMDL
MODEL 7
REMARK VINA RESULT:    -5.912      1.484      2.043
REMARK INTER + INTRA:          -7.804
REMARK INTER:                  -7.818
REMARK INTRA:                   0.014
REMARK UNBOUND:                -0.337
REMARK  Name = 
REMARK  5 active torsions:
REMARK  status: ('A' for Active; 'I' for Inactive)
REMARK    1  A    between atoms: N_1  and  C_2
REMARK    2  A    between atoms: C_6  and  C_7
REMARK    3  A    between atoms: C_7  and  C_8
REMARK    4  A    between atoms: C_8  and  S_9
REMARK    5  A    between atoms: S_9  and  C_10
REMARK                            x       y       z     vdW  Elec       q    Type
REMARK                         _______ _______ _______ _____ _____    ______ ____
ROOT
ATOM      1  C   UNL     1      47.483   2.220   6.768  0.00  0.00    +0.000 A 
ATOM      2  C   UNL     1      47.135   0.921   7.143  0.00  0.00    +0.000 A 
ATOM      3  C   UNL     1      46.131   0.698   8.089  0.00  0.00    +0.000 A 
ATOM      4  C   UNL     1      45.492   1.776   8.697  0.00  0.00    +0.000 A 
ATOM      5  C   UNL     1      45.861   3.088   8.374  0.00  0.00    +0.000 A 
ATOM      6  C   UNL     1      46.877   3.294   7.428  0.00  0.00    +0.000 A 
ENDROOT
BRANCH   1   7
ATOM      7  N   UNL     1      48.575   2.439   5.919  0.00  0.00    +0.000 N 
ATOM      8  H   UNL     1      48.595   1.821   5.114  0.00  0.00    +0.000 HD
ATOM      9  H   UNL     1      48.697   3.413   5.656  0.00  0.00    +0.000 HD
ENDBRANCH   1   7
BRANCH   5  10
ATOM     10  C   UNL     1      45.200   4.266   9.054  0.00  0.00    +0.000 C 
BRANCH  10  11
ATOM     11  C   UNL     1      46.095   5.508   9.025  0.00  0.00    +0.000 C 
BRANCH  11  12
ATOM     12  S   UNL     1      46.195   6.252  10.694  0.00  0.00    +0.000 S 
BRANCH  12  13
ATOM     13  C   UNL     1      45.079   5.249  11.660  0.00  0.00    +0.000 A 
ATOM     14  C   UNL     1      43.827   5.785  11.978  0.00  0.00    +0.000 A 
ATOM     15  C   UNL     1      42.911   5.045  12.728  0.00  0.00    +0.000 A 
ATOM     16  C   UNL     1      43.276   3.777  13.144  0.00  0.00    +0.000 A 
ATOM     17  N   UNL     1      44.470   3.218  12.864  0.00  0.00    +0.000 NA
ATOM     18  C   UNL     1      45.337   3.965  12.133  0.00  0.00    +0.000 A 
ENDBRANCH  12  13
ENDBRANCH  11  12
ENDBRANCH  10  11
ENDBRANCH   5  10
TORSDOF 5
ENDMDL
MODEL 8
REMARK VINA RESULT:    -5.550      1.798      6.389
REMARK INTER + INTRA:          -7.348
REMARK INTER:                  -6.999
REMARK INTRA:                  -0.348
REMARK UNBOUND:                -0.337
REMARK  Name = 
REMARK  5 active torsions:
REMARK  status: ('A' for Active; 'I' for Inactive)
REMARK    1  A    between atoms: N_1  and  C_2
REMARK    2  A    between atoms: C_6  and  C_7
REMARK    3  A    between atoms: C_7  and  C_8
REMARK    4  A    between atoms: C_8  and  S_9
REMARK    5  A    between atoms: S_9  and  C_10
REMARK                            x       y       z     vdW  Elec       q    Type
REMARK                         _______ _______ _______ _____ _____    ______ ____
ROOT
ATOM      1  C   UNL     1      48.609   6.855  13.923  0.00  0.00    +0.000 A 
ATOM      2  C   UNL     1      48.929   7.480  12.717  0.00  0.00    +0.000 A 
ATOM      3  C   UNL     1      48.082   7.371  11.611  0.00  0.00    +0.000 A 
ATOM      4  C   UNL     1      46.923   6.602  11.692  0.00  0.00    +0.000 A 
ATOM      5  C   UNL     1      46.609   5.924  12.876  0.00  0.00    +0.000 A 
ATOM      6  C   UNL     1      47.475   6.036  13.974  0.00  0.00    +0.000 A 
ENDROOT
BRANCH   1   7
ATOM      7  N   UNL     1      49.523   6.859  14.984  0.00  0.00    +0.000 N 
ATOM      8  H   UNL     1      49.319   6.168  15.699  0.00  0.00    +0.000 HD
ATOM      9  H   UNL     1      50.493   6.825  14.685  0.00  0.00    +0.000 HD
ENDBRANCH   1   7
BRANCH   5  10
ATOM     10  C   UNL     1      45.373   5.057  12.965  0.00  0.00    +0.000 C 
BRANCH  10  11
ATOM     11  C   UNL     1      44.479   5.221  11.733  0.00  0.00    +0.000 C 
BRANCH  11  12
ATOM     12  S   UNL     1      44.030   3.581  11.056  0.00  0.00    +0.000 S 
BRANCH  12  13
ATOM     13  C   UNL     1      45.019   3.463   9.574  0.00  0.00    +0.000 A 
ATOM     14  C   UNL     1      45.370   2.187   9.123  0.00  0.00    +0.000 A 
ATOM     15  C   UNL     1      46.139   2.033   7.968  0.00  0.00    +0.000 A 
ATOM     16  C   UNL     1      46.539   3.170   7.289  0.00  0.00    +0.000 A 
ATOM     17  N   UNL     1      46.227   4.420   7.685  0.00  0.00    +0.000 NA
ATOM     18  C   UNL     1      45.478   4.534   8.812  0.00  0.00    +0.000 A 
ENDBRANCH  12  13
ENDBRANCH  11  12
ENDBRANCH  10  11
ENDBRANCH   5  10
TORSDOF 5
ENDMDL
MODEL 9
REMARK VINA RESULT:    -5.335      3.448      4.675
REMARK INTER + INTRA:          -7.076
REMARK INTER:                  -6.603
REMARK INTRA:                  -0.473
REMARK UNBOUND:                -0.337
REMARK  Name = 
REMARK  5 active torsions:
REMARK  status: ('A' for Active; 'I' for Inactive)
REMARK    1  A    between atoms: N_1  and  C_2
REMARK    2  A    between atoms: C_6  and  C_7
REMARK    3  A    between atoms: C_7  and  C_8
REMARK    4  A    between atoms: C_8  and  S_9
REMARK    5  A    between atoms: S_9  and  C_10
REMARK                            x       y       z     vdW  Elec       q    Type
REMARK                         _______ _______ _______ _____ _____    ______ ____
ROOT
ATOM      1  C   UNL     1      44.422   3.502  10.927  0.00  0.00    +0.000 A 
ATOM      2  C   UNL     1      43.646   3.201  12.047  0.00  0.00    +0.000 A 
ATOM      3  C   UNL     1      43.283   4.201  12.952  0.00  0.00    +0.000 A 
ATOM      4  C   UNL     1      43.727   5.509  12.764  0.00  0.00    +0.000 A 
ATOM      5  C   UNL     1      44.550   5.823  11.675  0.00  0.00    +0.000 A 
ATOM      6  C   UNL     1      44.912   4.804  10.781  0.00  0.00    +0.000 A 
ENDROOT
BRANCH   1   7
ATOM      7  N   UNL     1      44.890   2.475  10.097  0.00  0.00    +0.000 N 
ATOM      8  H   UNL     1      44.149   1.940   9.656  0.00  0.00    +0.000 HD
ATOM      9  H   UNL     1      45.592   2.780   9.429  0.00  0.00    +0.000 HD
ENDBRANCH   1   7
BRANCH   5  10
ATOM     10  C   UNL     1      45.068   7.230  11.480  0.00  0.00    +0.000 C 
BRANCH  10  11
ATOM     11  C   UNL     1      45.922   7.686  12.665  0.00  0.00    +0.000 C 
BRANCH  11  12
ATOM     12  S   UNL     1      47.566   6.885  12.604  0.00  0.00    +0.000 S 
BRANCH  12  13
ATOM     13  C   UNL     1      47.591   5.882  14.081  0.00  0.00    +0.000 A 
ATOM     14  C   UNL     1      48.377   6.317  15.153  0.00  0.00    +0.000 A 
ATOM     15  C   UNL     1      48.433   5.577  16.334  0.00  0.00    +0.000 A 
ATOM     16  C   UNL     1      47.694   4.410  16.413  0.00  0.00    +0.000 A 
ATOM     17  N   UNL     1      46.923   3.950  15.407  0.00  0.00    +0.000 NA
ATOM     18  C   UNL     1      46.892   4.694  14.273  0.00  0.00    +0.000 A 
ENDBRANCH  12  13
ENDBRANCH  11  12
ENDBRANCH  10  11
ENDBRANCH   5  10
TORSDOF 5
ENDMDL
