MODEL 1
REMARK VINA RESULT:    -8.554      0.000      0.000
REMARK INTER + INTRA:         -12.234
REMARK INTER:                 -11.305
REMARK INTRA:                  -0.930
REMARK UNBOUND:                -0.930
REMARK  Name = 
REMARK  8 active torsions:
REMARK  status: ('A' for Active; 'I' for Inactive)
REMARK    1  A    between atoms: C_1  and  C_2
REMARK    2  A    between atoms: C_2  and  C_3
REMARK    3  A    between atoms: C_2  and  C_4
REMARK    4  A    between atoms: C_2  and  C_19
REMARK    5  A    between atoms: C_5  and  C_6
REMARK    6  A    between atoms: C_11  and  C_12
REMARK    7  A    between atoms: C_22  and  S_23
REMARK    8  A    between atoms: S_23  and  N_24
REMARK                            x       y       z     vdW  Elec       q    Type
REMARK                         _______ _______ _______ _____ _____    ______ ____
ROOT
ATOM      1  C   UNL     1      43.389   2.911  11.771  0.00  0.00    +0.000 C 
ATOM      2  C   UNL     1      44.213   4.091  11.208  0.00  0.00    +0.000 C 
ATOM      3  C   UNL     1      43.234   5.270  10.999  0.00  0.00    +0.000 C 
ENDROOT
BRANCH   2   4
ATOM      4  C   UNL     1      44.898   3.629   9.905  0.00  0.00    +0.000 A 
ATOM      5  C   UNL     1      45.385   4.535   8.945  0.00  0.00    +0.000 A 
ATOM      6  C   UNL     1      46.040   4.088   7.795  0.00  0.00    +0.000 A 
ATOM      7  C   UNL     1      46.220   2.722   7.594  0.00  0.00    +0.000 A 
ATOM      8  C   UNL     1      45.712   1.796   8.502  0.00  0.00    +0.000 A 
ATOM      9  C   UNL     1      45.062   2.250   9.651  0.00  0.00    +0.000 A 
BRANCH   7  10
ATOM     10  S   UNL     1      47.155   2.163   6.207  0.00  0.00    +0.000 S 
ATOM     11  O   UNL     1      47.275   0.726   6.252  0.00  0.00    +0.000 OA
ATOM     12  O   UNL     1      46.729   2.873   5.019  0.00  0.00    +0.000 OA
BRANCH  10  13
ATOM     13  N   UNL     1      48.670   2.772   6.592  0.00  0.00    +0.000 NA
ATOM     14  H   UNL     1      48.987   2.399   7.487  0.00  0.00    +0.000 HD
ATOM     15  H   UNL     1      49.317   2.638   5.817  0.00  0.00    +0.000 HD
ENDBRANCH  10  13
ENDBRANCH   7  10
ENDBRANCH   2   4
BRANCH   2  16
ATOM     16  C   UNL     1      45.277   4.607  12.182  0.00  0.00    +0.000 C 
ATOM     17  C   UNL     1      46.030   5.711  12.042  0.00  0.00    +0.000 C 
BRANCH  17  18
ATOM     18  C   UNL     1      47.043   6.156  13.007  0.00  0.00    +0.000 A 
ATOM     19  C   UNL     1      47.939   7.189  12.724  0.00  0.00    +0.000 A 
ATOM     20  C   UNL     1      48.910   7.542  13.656  0.00  0.00    +0.000 A 
ATOM     21  C   UNL     1      49.000   6.851  14.864  0.00  0.00    +0.000 A 
ATOM     22  F   UNL     1      49.978   7.218  15.706  0.00  0.00    +0.000 F 
ATOM     23  C   UNL     1      48.128   5.799  15.193  0.00  0.00    +0.000 A 
ATOM     24  C   UNL     1      47.150   5.471  14.231  0.00  0.00    +0.000 A 
BRANCH  23  25
ATOM     25  C   UNL     1      48.217   5.067  16.478  0.00  0.00    +0.000 A 
ATOM     26  C   UNL     1      48.151   3.666  16.552  0.00  0.00    +0.000 A 
ATOM     27  C   UNL     1      48.226   3.008  17.780  0.00  0.00    +0.000 A 
ATOM     28  C   UNL     1      48.378   3.769  18.924  0.00  0.00    +0.000 A 
ATOM     29  N   UNL     1      48.446   5.113  18.916  0.00  0.00    +0.000 NA
ATOM     30  C   UNL     1      48.362   5.721  17.706  0.00  0.00    +0.000 A 
ENDBRANCH  23  25
ENDBRANCH  17  18
ENDBRANCH   2  16
TORSDOF 6
ENDMDL
MODEL 2
REMARK VINA RESULT:    -7.666      3.298      5.081
REMARK INTER + INTRA:         -11.060
REMARK INTER:                  -9.911
REMARK INTRA:                  -1.149
REMARK UNBOUND:                -0.930
REMARK  Name = 
REMARK  8 active torsions:
REMARK  status: ('A' for Active; 'I' for Inactive)
REMARK    1  A    between atoms: C_1  and  C_2
REMARK    2  A    between atoms: C_2  and  C_3
REMARK    3  A    between atoms: C_2  and  C_4
REMARK    4  A    between atoms: C_2  and  C_19
REMARK    5  A    between atoms: C_5  and  C_6
REMARK    6  A    between atoms: C_11  and  C_12
REMARK    7  A    between atoms: C_22  and  S_23
REMARK    8  A    between atoms: S_23  and  N_24
REMARK                            x       y       z     vdW  Elec       q    Type
REMARK                         _______ _______ _______ _____ _____    ______ ____
ROOT
ATOM      1  C   UNL     1      47.371   8.684  13.619  0.00  0.00    +0.000 C 
ATOM      2  C   UNL     1      48.014   7.295  13.405  0.00  0.00    +0.000 C 
ATOM      3  C   UNL     1      49.330   7.519  12.622  0.00  0.00    +0.000 C 
ENDROOT
BRANCH   2   4
ATOM      4  C   UNL     1      47.005   6.401  12.657  0.00  0.00    +0.000 A 
ATOM      5  C   UNL     1      46.522   6.715  11.373  0.00  0.00    +0.000 A 
ATOM      6  C   UNL     1      45.642   5.864  10.702  0.00  0.00    +0.000 A 
ATOM      7  C   UNL     1      45.235   4.679  11.310  0.00  0.00    +0.000 A 
ATOM      8  C   UNL     1      45.657   4.357  12.598  0.00  0.00    +0.000 A 
ATOM      9  C   UNL     1      46.541   5.212  13.261  0.00  0.00    +0.000 A 
BRANCH   7  10
ATOM     10  S   UNL     1      44.223   3.545  10.414  0.00  0.00    +0.000 S 
ATOM     11  O   UNL     1      45.045   2.496   9.861  0.00  0.00    +0.000 OA
ATOM     12  O   UNL     1      43.017   3.275  11.168  0.00  0.00    +0.000 OA
BRANCH  10  13
ATOM     13  N   UNL     1      43.756   4.506   9.121  0.00  0.00    +0.000 NA
ATOM     14  H   UNL     1      43.455   5.423   9.450  0.00  0.00    +0.000 HD
ATOM     15  H   UNL     1      44.483   4.523   8.407  0.00  0.00    +0.000 HD
ENDBRANCH  10  13
ENDBRANCH   7  10
ENDBRANCH   2   4
BRANCH   2  16
ATOM     16  C   UNL     1      48.425   6.608  14.712  0.00  0.00    +0.000 C 
ATOM     17  C   UNL     1      48.723   7.207  15.877  0.00  0.00    +0.000 C 
BRANCH  17  18
ATOM     18  C   UNL     1      49.119   6.497  17.101  0.00  0.00    +0.000 A 
ATOM     19  C   UNL     1      48.822   6.986  18.375  0.00  0.00    +0.000 A 
ATOM     20  C   UNL     1      49.261   6.298  19.502  0.00  0.00    +0.000 A 
ATOM     21  C   UNL     1      50.012   5.133  19.358  0.00  0.00    +0.000 A 
ATOM     22  F   UNL     1      50.431   4.534  20.484  0.00  0.00    +0.000 F 
ATOM     23  C   UNL     1      50.343   4.604  18.099  0.00  0.00    +0.000 A 
ATOM     24  C   UNL     1      49.878   5.319  16.977  0.00  0.00    +0.000 A 
BRANCH  23  25
ATOM     25  C   UNL     1      51.136   3.362  17.943  0.00  0.00    +0.000 A 
ATOM     26  C   UNL     1      52.484   3.276  18.325  0.00  0.00    +0.000 A 
ATOM     27  C   UNL     1      53.205   2.094  18.153  0.00  0.00    +0.000 A 
ATOM     28  C   UNL     1      52.556   1.003  17.606  0.00  0.00    +0.000 A 
ATOM     29  N   UNL     1      51.267   1.025  17.220  0.00  0.00    +0.000 NA
ATOM     30  C   UNL     1      50.598   2.193  17.394  0.00  0.00    +0.000 A 
ENDBRANCH  23  25
ENDBRANCH  17  18
ENDBRANCH   2  16
TORSDOF 6
ENDMDL
MODEL 3
REMARK VINA RESULT:    -7.515      5.088      9.245
REMARK INTER + INTRA:         -10.861
REMARK INTER:                  -9.821
REMARK INTRA:                  -1.040
REMARK UNBOUND:                -0.930
REMARK  Name = 
REMARK  8 active torsions:
REMARK  status: ('A' for Active; 'I' for Inactive)
REMARK    1  A    between atoms: C_1  and  C_2
REMARK    2  A    between atoms: C_2  and  C_3
REMARK    3  A    between atoms: C_2  and  C_4
REMARK    4  A    between atoms: C_2  and  C_19
REMARK    5  A    between atoms: C_5  and  C_6
REMARK    6  A    between atoms: C_11  and  C_12
REMARK    7  A    between atoms: C_22  and  S_23
REMARK    8  A    between atoms: S_23  and  N_24
REMARK                            x       y       z     vdW  Elec       q    Type
REMARK                         _______ _______ _______ _____ _____    ______ ____
ROOT
ATOM      1  C   UNL     1      48.845   8.489  11.539  0.00  0.00    +0.000 C 
ATOM      2  C   UNL     1      47.595   8.013  12.313  0.00  0.00    +0.000 C 
ATOM      3  C   UNL     1      46.508   9.099  12.132  0.00  0.00    +0.000 C 
ENDROOT
BRANCH   2   4
ATOM      4  C   UNL     1      47.991   7.787  13.787  0.00  0.00    +0.000 A 
ATOM      5  C   UNL     1      48.136   8.846  14.702  0.00  0.00    +0.000 A 
ATOM      6  C   UNL     1      48.454   8.608  16.040  0.00  0.00    +0.000 A 
ATOM      7  C   UNL     1      48.625   7.299  16.483  0.00  0.00    +0.000 A 
ATOM      8  C   UNL     1      48.532   6.229  15.596  0.00  0.00    +0.000 A 
ATOM      9  C   UNL     1      48.211   6.476  14.259  0.00  0.00    +0.000 A 
BRANCH   7  10
ATOM     10  S   UNL     1      48.902   6.990  18.198  0.00  0.00    +0.000 S 
ATOM     11  O   UNL     1      49.202   5.593  18.395  0.00  0.00    +0.000 OA
ATOM     12  O   UNL     1      49.718   8.048  18.754  0.00  0.00    +0.000 OA
BRANCH  10  13
ATOM     13  N   UNL     1      47.356   7.228  18.806  0.00  0.00    +0.000 NA
ATOM     14  H   UNL     1      47.015   6.378  19.252  0.00  0.00    +0.000 HD
ATOM     15  H   UNL     1      47.327   8.062  19.390  0.00  0.00    +0.000 HD
ENDBRANCH  10  13
ENDBRANCH   7  10
ENDBRANCH   2   4
BRANCH   2  16
ATOM     16  C   UNL     1      46.987   6.724  11.751  0.00  0.00    +0.000 C 
ATOM     17  C   UNL     1      45.696   6.510  11.444  0.00  0.00    +0.000 C 
BRANCH  17  18
ATOM     18  C   UNL     1      45.165   5.248  10.913  0.00  0.00    +0.000 A 
ATOM     19  C   UNL     1      44.107   4.570  11.520  0.00  0.00    +0.000 A 
ATOM     20  C   UNL     1      43.672   3.353  11.002  0.00  0.00    +0.000 A 
ATOM     21  C   UNL     1      44.307   2.803   9.889  0.00  0.00    +0.000 A 
ATOM     22  F   UNL     1      43.860   1.613   9.458  0.00  0.00    +0.000 F 
ATOM     23  C   UNL     1      45.381   3.442   9.247  0.00  0.00    +0.000 A 
ATOM     24  C   UNL     1      45.792   4.676   9.790  0.00  0.00    +0.000 A 
BRANCH  23  25
ATOM     25  C   UNL     1      46.053   2.864   8.059  0.00  0.00    +0.000 A 
ATOM     26  C   UNL     1      46.267   3.599   6.883  0.00  0.00    +0.000 A 
ATOM     27  C   UNL     1      46.894   3.021   5.779  0.00  0.00    +0.000 A 
ATOM     28  C   UNL     1      47.309   1.706   5.874  0.00  0.00    +0.000 A 
ATOM     29  N   UNL     1      47.131   0.951   6.974  0.00  0.00    +0.000 NA
ATOM     30  C   UNL     1      46.511   1.542   8.027  0.00  0.00    +0.000 A 
ENDBRANCH  23  25
ENDBRANCH  17  18
ENDBRANCH   2  16
TORSDOF 6
ENDMDL
MODEL 4
REMARK VINA RESULT:    -7.274      4.750      7.182
REMARK INTER + INTRA:         -10.542
REMARK INTER:                  -9.312
REMARK INTRA:                  -1.230
REMARK UNBOUND:                -0.930
REMARK  Name = 
REMARK  8 active torsions:
REMARK  status: ('A' for Active; 'I' for Inactive)
REMARK    1  A    between atoms: C_1  and  C_2
REMARK    2  A    between atoms: C_2  and  C_3
REMARK    3  A    between atoms: C_2  and  C_4
REMARK    4  A    between atoms: C_2  and  C_19
REMARK    5  A    between atoms: C_5  and  C_6
REMARK    6  A    between atoms: C_11  and  C_12
REMARK    7  A    between atoms: C_22  and  S_23
REMARK    8  A    between atoms: S_23  and  N_24
REMARK                            x       y       z     vdW  Elec       q    Type
REMARK                         _______ _______ _______ _____ _____    ______ ____
ROOT
ATOM      1  C   UNL     1      48.420   6.376  14.839  0.00  0.00    +0.000 C 
ATOM      2  C   UNL     1      48.045   7.130  13.542  0.00  0.00    +0.000 C 
ATOM      3  C   UNL     1      47.495   8.513  13.964  0.00  0.00    +0.000 C 
ENDROOT
BRANCH   2   4
ATOM      4  C   UNL     1      47.022   6.279  12.762  0.00  0.00    +0.000 A 
ATOM      5  C   UNL     1      46.607   6.603  11.457  0.00  0.00    +0.000 A 
ATOM      6  C   UNL     1      45.711   5.790  10.760  0.00  0.00    +0.000 A 
ATOM      7  C   UNL     1      45.222   4.634  11.361  0.00  0.00    +0.000 A 
ATOM      8  C   UNL     1      45.576   4.305  12.667  0.00  0.00    +0.000 A 
ATOM      9  C   UNL     1      46.475   5.122  13.358  0.00  0.00    +0.000 A 
BRANCH   7  10
ATOM     10  S   UNL     1      44.190   3.542  10.436  0.00  0.00    +0.000 S 
ATOM     11  O   UNL     1      44.996   2.506   9.837  0.00  0.00    +0.000 OA
ATOM     12  O   UNL     1      42.989   3.257  11.191  0.00  0.00    +0.000 OA
BRANCH  10  13
ATOM     13  N   UNL     1      43.720   4.553   9.182  0.00  0.00    +0.000 NA
ATOM     14  H   UNL     1      43.408   4.005   8.381  0.00  0.00    +0.000 HD
ATOM     15  H   UNL     1      43.053   5.247   9.514  0.00  0.00    +0.000 HD
ENDBRANCH  10  13
ENDBRANCH   7  10
ENDBRANCH   2   4
BRANCH   2  16
ATOM     16  C   UNL     1      49.249   7.423  12.641  0.00  0.00    +0.000 C 
ATOM     17  C   UNL     1      49.704   8.633  12.274  0.00  0.00    +0.000 C 
BRANCH  17  18
ATOM     18  C   UNL     1      50.863   8.856  11.399  0.00  0.00    +0.000 A 
ATOM     19  C   UNL     1      51.502  10.094  11.310  0.00  0.00    +0.000 A 
ATOM     20  C   UNL     1      52.567  10.265  10.432  0.00  0.00    +0.000 A 
ATOM     21  C   UNL     1      52.983   9.206   9.626  0.00  0.00    +0.000 A 
ATOM     22  F   UNL     1      53.995   9.444   8.778  0.00  0.00    +0.000 F 
ATOM     23  C   UNL     1      52.368   7.943   9.672  0.00  0.00    +0.000 A 
ATOM     24  C   UNL     1      51.298   7.799  10.579  0.00  0.00    +0.000 A 
BRANCH  23  25
ATOM     25  C   UNL     1      52.812   6.813   8.823  0.00  0.00    +0.000 A 
ATOM     26  C   UNL     1      53.787   5.894   9.242  0.00  0.00    +0.000 A 
ATOM     27  C   UNL     1      54.190   4.846   8.413  0.00  0.00    +0.000 A 
ATOM     28  C   UNL     1      53.598   4.729   7.169  0.00  0.00    +0.000 A 
ATOM     29  N   UNL     1      52.660   5.579   6.713  0.00  0.00    +0.000 NA
ATOM     30  C   UNL     1      52.296   6.590   7.542  0.00  0.00    +0.000 A 
ENDBRANCH  23  25
ENDBRANCH  17  18
ENDBRANCH   2  16
TORSDOF 6
ENDMDL
MODEL 5
REMARK VINA RESULT:    -6.851      5.018      7.109
REMARK INTER + INTRA:          -9.984
REMARK INTER:                  -8.879
REMARK INTRA:                  -1.105
REMARK UNBOUND:                -0.930
REMARK  Name = 
REMARK  8 active torsions:
REMARK  status: ('A' for Active; 'I' for Inactive)
REMARK    1  A    between atoms: C_1  and  C_2
REMARK    2  A    between atoms: C_2  and  C_3
REMARK    3  A    between atoms: C_2  and  C_4
REMARK    4  A    between atoms: C_2  and  C_19
REMARK    5  A    between atoms: C_5  and  C_6
REMARK    6  A    between atoms: C_11  and  C_12
REMARK    7  A    between atoms: C_22  and  S_23
REMARK    8  A    between atoms: S_23  and  N_24
REMARK                            x       y       z     vdW  Elec       q    Type
REMARK                         _______ _______ _______ _____ _____    ______ ____
ROOT
ATOM      1  C   UNL     1      53.176   9.581   9.963  0.00  0.00    +0.000 C 
ATOM      2  C   UNL     1      52.624   8.241  10.501  0.00  0.00    +0.000 C 
ATOM      3  C   UNL     1      53.241   8.027  11.904  0.00  0.00    +0.000 C 
ENDROOT
BRANCH   2   4
ATOM      4  C   UNL     1      52.990   7.126   9.499  0.00  0.00    +0.000 A 
ATOM      5  C   UNL     1      52.390   7.023   8.230  0.00  0.00    +0.000 A 
ATOM      6  C   UNL     1      52.772   6.029   7.328  0.00  0.00    +0.000 A 
ATOM      7  C   UNL     1      53.768   5.123   7.684  0.00  0.00    +0.000 A 
ATOM      8  C   UNL     1      54.352   5.168   8.948  0.00  0.00    +0.000 A 
ATOM      9  C   UNL     1      53.967   6.167   9.844  0.00  0.00    +0.000 A 
BRANCH   7  10
ATOM     10  S   UNL     1      54.339   3.947   6.500  0.00  0.00    +0.000 S 
ATOM     11  O   UNL     1      54.082   4.437   5.168  0.00  0.00    +0.000 OA
ATOM     12  O   UNL     1      55.631   3.439   6.908  0.00  0.00    +0.000 OA
BRANCH  10  13
ATOM     13  N   UNL     1      53.248   2.698   6.758  0.00  0.00    +0.000 NA
ATOM     14  H   UNL     1      52.318   2.967   6.439  0.00  0.00    +0.000 HD
ATOM     15  H   UNL     1      53.601   1.828   6.366  0.00  0.00    +0.000 HD
ENDBRANCH  10  13
ENDBRANCH   7  10
ENDBRANCH   2   4
BRANCH   2  16
ATOM     16  C   UNL     1      51.108   8.250  10.715  0.00  0.00    +0.000 C 
ATOM     17  C   UNL     1      50.454   8.618  11.829  0.00  0.00    +0.000 C 
BRANCH  17  18
ATOM     18  C   UNL     1      48.993   8.601  11.982  0.00  0.00    +0.000 A 
ATOM     19  C   UNL     1      48.253   9.763  12.206  0.00  0.00    +0.000 A 
ATOM     20  C   UNL     1      46.876   9.686  12.389  0.00  0.00    +0.000 A 
ATOM     21  C   UNL     1      46.239   8.446  12.369  0.00  0.00    +0.000 A 
ATOM     22  F   UNL     1      44.914   8.437  12.584  0.00  0.00    +0.000 F 
ATOM     23  C   UNL     1      46.939   7.247  12.155  0.00  0.00    +0.000 A 
ATOM     24  C   UNL     1      48.332   7.359  11.964  0.00  0.00    +0.000 A 
BRANCH  23  25
ATOM     25  C   UNL     1      46.264   5.928  12.126  0.00  0.00    +0.000 A 
ATOM     26  C   UNL     1      45.537   5.479  11.013  0.00  0.00    +0.000 A 
ATOM     27  C   UNL     1      44.904   4.235  11.022  0.00  0.00    +0.000 A 
ATOM     28  C   UNL     1      45.019   3.449  12.153  0.00  0.00    +0.000 A 
ATOM     29  N   UNL     1      45.701   3.826  13.250  0.00  0.00    +0.000 NA
ATOM     30  C   UNL     1      46.298   5.044  13.210  0.00  0.00    +0.000 A 
ENDBRANCH  23  25
ENDBRANCH  17  18
ENDBRANCH   2  16
TORSDOF 6
ENDMDL
MODEL 6
REMARK VINA RESULT:    -6.571      5.086      9.028
REMARK INTER + INTRA:          -9.613
REMARK INTER:                  -8.474
REMARK INTRA:                  -1.139
REMARK UNBOUND:                -0.930
REMARK  Name = 
REMARK  8 active torsions:
REMARK  status: ('A' for Active; 'I' for Inactive)
REMARK    1  A    between atoms: C_1  and  C_2
REMARK    2  A    between atoms: C_2  and  C_3
REMARK    3  A    between atoms: C_2  and  C_4
REMARK    4  A    between atoms: C_2  and  C_19
REMARK    5  A    between atoms: C_5  and  C_6
REMARK    6  A    between atoms: C_11  and  C_12
REMARK    7  A    between atoms: C_22  and  S_23
REMARK    8  A    between atoms: S_23  and  N_24
REMARK                            x       y       z     vdW  Elec       q    Type
REMARK                         _______ _______ _______ _____ _____    ______ ____
ROOT
ATOM      1  C   UNL     1      51.382   8.548  13.389  0.00  0.00    +0.000 C 
ATOM      2  C   UNL     1      50.287   8.569  14.480  0.00  0.00    +0.000 C 
ATOM      3  C   UNL     1      50.295   9.985  15.103  0.00  0.00    +0.000 C 
ENDROOT
BRANCH   2   4
ATOM      4  C   UNL     1      50.593   7.453  15.500  0.00  0.00    +0.000 A 
ATOM      5  C   UNL     1      49.581   6.722  16.148  0.00  0.00    +0.000 A 
ATOM      6  C   UNL     1      49.889   5.688  17.034  0.00  0.00    +0.000 A 
ATOM      7  C   UNL     1      51.222   5.368  17.280  0.00  0.00    +0.000 A 
ATOM      8  C   UNL     1      52.250   6.100  16.690  0.00  0.00    +0.000 A 
ATOM      9  C   UNL     1      51.934   7.131  15.802  0.00  0.00    +0.000 A 
BRANCH   7  10
ATOM     10  S   UNL     1      51.610   3.983  18.301  0.00  0.00    +0.000 S 
ATOM     11  O   UNL     1      51.611   2.780  17.505  0.00  0.00    +0.000 OA
ATOM     12  O   UNL     1      52.697   4.329  19.192  0.00  0.00    +0.000 OA
BRANCH  10  13
ATOM     13  N   UNL     1      50.233   3.912  19.257  0.00  0.00    +0.000 NA
ATOM     14  H   UNL     1      50.331   4.520  20.069  0.00  0.00    +0.000 HD
ATOM     15  H   UNL     1      49.399   4.076  18.696  0.00  0.00    +0.000 HD
ENDBRANCH  10  13
ENDBRANCH   7  10
ENDBRANCH   2   4
BRANCH   2  16
ATOM     16  C   UNL     1      48.873   8.371  13.925  0.00  0.00    +0.000 C 
ATOM     17  C   UNL     1      48.541   7.814  12.748  0.00  0.00    +0.000 C 
BRANCH  17  18
ATOM     18  C   UNL     1      47.164   7.655  12.262  0.00  0.00    +0.000 A 
ATOM     19  C   UNL     1      46.164   8.591  12.534  0.00  0.00    +0.000 A 
ATOM     20  C   UNL     1      44.865   8.370  12.088  0.00  0.00    +0.000 A 
ATOM     21  C   UNL     1      44.558   7.205  11.387  0.00  0.00    +0.000 A 
ATOM     22  F   UNL     1      43.280   7.037  11.012  0.00  0.00    +0.000 F 
ATOM     23  C   UNL     1      45.525   6.230  11.094  0.00  0.00    +0.000 A 
ATOM     24  C   UNL     1      46.834   6.487  11.552  0.00  0.00    +0.000 A 
BRANCH  23  25
ATOM     25  C   UNL     1      45.204   4.994  10.342  0.00  0.00    +0.000 A 
ATOM     26  C   UNL     1      45.587   4.805   9.005  0.00  0.00    +0.000 A 
ATOM     27  C   UNL     1      45.258   3.633   8.322  0.00  0.00    +0.000 A 
ATOM     28  C   UNL     1      44.554   2.655   8.999  0.00  0.00    +0.000 A 
ATOM     29  N   UNL     1      44.159   2.779  10.280  0.00  0.00    +0.000 NA
ATOM     30  C   UNL     1      44.489   3.935  10.911  0.00  0.00    +0.000 A 
ENDBRANCH  23  25
ENDBRANCH  17  18
ENDBRANCH   2  16
TORSDOF 6
ENDMDL
MODEL 7
REMARK VINA RESULT:    -6.070      5.523      7.749
REMARK INTER + INTRA:          -8.951
REMARK INTER:                  -7.820
REMARK INTRA:                  -1.131
REMARK UNBOUND:                -0.930
REMARK  Name = 
REMARK  8 active torsions:
REMARK  status: ('A' for Active; 'I' for Inactive)
REMARK    1  A    between atoms: C_1  and  C_2
REMARK    2  A    between atoms: C_2  and  C_3
REMARK    3  A    between atoms: C_2  and  C_4
REMARK    4  A    between atoms: C_2  and  C_19
REMARK    5  A    between atoms: C_5  and  C_6
REMARK    6  A    between atoms: C_11  and  C_12
REMARK    7  A    between atoms: C_22  and  S_23
REMARK    8  A    between atoms: S_23  and  N_24
REMARK                            x       y       z     vdW  Elec       q    Type
REMARK                         _______ _______ _______ _____ _____    ______ ____
ROOT
ATOM      1  C   UNL     1      47.161   2.894  17.523  0.00  0.00    +0.000 C 
ATOM      2  C   UNL     1      47.987   4.192  17.372  0.00  0.00    +0.000 C 
ATOM      3  C   UNL     1      47.550   5.143  18.512  0.00  0.00    +0.000 C 
ENDROOT
BRANCH   2   4
ATOM      4  C   UNL     1      47.734   4.771  15.965  0.00  0.00    +0.000 A 
ATOM      5  C   UNL     1      46.881   4.150  15.034  0.00  0.00    +0.000 A 
ATOM      6  C   UNL     1      46.637   4.720  13.783  0.00  0.00    +0.000 A 
ATOM      7  C   UNL     1      47.244   5.928  13.449  0.00  0.00    +0.000 A 
ATOM      8  C   UNL     1      48.129   6.548  14.328  0.00  0.00    +0.000 A 
ATOM      9  C   UNL     1      48.365   5.973  15.579  0.00  0.00    +0.000 A 
BRANCH   7  10
ATOM     10  S   UNL     1      46.840   6.711  11.920  0.00  0.00    +0.000 S 
ATOM     11  O   UNL     1      47.996   7.409  11.414  0.00  0.00    +0.000 OA
ATOM     12  O   UNL     1      46.057   5.806  11.106  0.00  0.00    +0.000 OA
BRANCH  10  13
ATOM     13  N   UNL     1      45.775   7.893  12.454  0.00  0.00    +0.000 NA
ATOM     14  H   UNL     1      44.936   7.903  11.876  0.00  0.00    +0.000 HD
ATOM     15  H   UNL     1      45.607   7.797  13.454  0.00  0.00    +0.000 HD
ENDBRANCH  10  13
ENDBRANCH   7  10
ENDBRANCH   2   4
BRANCH   2  16
ATOM     16  C   UNL     1      49.492   3.980  17.568  0.00  0.00    +0.000 C 
ATOM     17  C   UNL     1      50.159   2.817  17.482  0.00  0.00    +0.000 C 
BRANCH  17  18
ATOM     18  C   UNL     1      51.606   2.670  17.686  0.00  0.00    +0.000 A 
ATOM     19  C   UNL     1      52.435   3.760  17.956  0.00  0.00    +0.000 A 
ATOM     20  C   UNL     1      53.807   3.572  18.095  0.00  0.00    +0.000 A 
ATOM     21  C   UNL     1      54.354   2.299  17.946  0.00  0.00    +0.000 A 
ATOM     22  F   UNL     1      55.687   2.190  18.062  0.00  0.00    +0.000 F 
ATOM     23  C   UNL     1      53.564   1.171  17.668  0.00  0.00    +0.000 A 
ATOM     24  C   UNL     1      52.177   1.393  17.541  0.00  0.00    +0.000 A 
BRANCH  23  25
ATOM     25  C   UNL     1      54.141  -0.186  17.516  0.00  0.00    +0.000 A 
ATOM     26  C   UNL     1      54.631  -0.662  16.290  0.00  0.00    +0.000 A 
ATOM     27  C   UNL     1      55.158  -1.949  16.179  0.00  0.00    +0.000 A 
ATOM     28  C   UNL     1      55.196  -2.742  17.310  0.00  0.00    +0.000 A 
ATOM     29  N   UNL     1      54.741  -2.342  18.511  0.00  0.00    +0.000 NA
ATOM     30  C   UNL     1      54.228  -1.087  18.582  0.00  0.00    +0.000 A 
ENDBRANCH  23  25
ENDBRANCH  17  18
ENDBRANCH   2  16
TORSDOF 6
ENDMDL
MODEL 8
REMARK VINA RESULT:    -5.986     10.488     13.055
REMARK INTER + INTRA:          -8.841
REMARK INTER:                  -7.570
REMARK INTRA:                  -1.271
REMARK UNBOUND:                -0.930
REMARK  Name = 
REMARK  8 active torsions:
REMARK  status: ('A' for Active; 'I' for Inactive)
REMARK    1  A    between atoms: C_1  and  C_2
REMARK    2  A    between atoms: C_2  and  C_3
REMARK    3  A    between atoms: C_2  and  C_4
REMARK    4  A    between atoms: C_2  and  C_19
REMARK    5  A    between atoms: C_5  and  C_6
REMARK    6  A    between atoms: C_11  and  C_12
REMARK    7  A    between atoms: C_22  and  S_23
REMARK    8  A    between atoms: S_23  and  N_24
REMARK                            x       y       z     vdW  Elec       q    Type
REMARK                         _______ _______ _______ _____ _____    ______ ____
ROOT
ATOM      1  C   UNL     1      38.382  -2.519  20.562  0.00  0.00    +0.000 C 
ATOM      2  C   UNL     1      39.497  -1.905  19.685  0.00  0.00    +0.000 C 
ATOM      3  C   UNL     1      40.780  -1.857  20.549  0.00  0.00    +0.000 C 
ENDROOT
BRANCH   2   4
ATOM      4  C   UNL     1      39.031  -0.514  19.208  0.00  0.00    +0.000 A 
ATOM      5  C   UNL     1      39.042   0.616  20.047  0.00  0.00    +0.000 A 
ATOM      6  C   UNL     1      38.655   1.872  19.575  0.00  0.00    +0.000 A 
ATOM      7  C   UNL     1      38.256   2.014  18.249  0.00  0.00    +0.000 A 
ATOM      8  C   UNL     1      38.190   0.910  17.402  0.00  0.00    +0.000 A 
ATOM      9  C   UNL     1      38.582  -0.343  17.881  0.00  0.00    +0.000 A 
BRANCH   7  10
ATOM     10  S   UNL     1      37.887   3.620  17.618  0.00  0.00    +0.000 S 
ATOM     11  O   UNL     1      37.226   3.498  16.342  0.00  0.00    +0.000 OA
ATOM     12  O   UNL     1      37.374   4.452  18.686  0.00  0.00    +0.000 OA
BRANCH  10  13
ATOM     13  N   UNL     1      39.434   4.184  17.294  0.00  0.00    +0.000 NA
ATOM     14  H   UNL     1      40.123   3.453  17.468  0.00  0.00    +0.000 HD
ATOM     15  H   UNL     1      39.475   4.600  16.365  0.00  0.00    +0.000 HD
ENDBRANCH  10  13
ENDBRANCH   7  10
ENDBRANCH   2   4
BRANCH   2  16
ATOM     16  C   UNL     1      39.853  -2.763  18.467  0.00  0.00    +0.000 C 
ATOM     17  C   UNL     1      41.083  -3.132  18.074  0.00  0.00    +0.000 C 
BRANCH  17  18
ATOM     18  C   UNL     1      41.368  -3.952  16.889  0.00  0.00    +0.000 A 
ATOM     19  C   UNL     1      42.103  -5.138  16.962  0.00  0.00    +0.000 A 
ATOM     20  C   UNL     1      42.384  -5.854  15.803  0.00  0.00    +0.000 A 
ATOM     21  C   UNL     1      41.949  -5.377  14.567  0.00  0.00    +0.000 A 
ATOM     22  F   UNL     1      42.280  -6.098  13.484  0.00  0.00    +0.000 F 
ATOM     23  C   UNL     1      41.213  -4.187  14.439  0.00  0.00    +0.000 A 
ATOM     24  C   UNL     1      40.937  -3.489  15.633  0.00  0.00    +0.000 A 
BRANCH  23  25
ATOM     25  C   UNL     1      40.743  -3.681  13.128  0.00  0.00    +0.000 A 
ATOM     26  C   UNL     1      39.727  -4.317  12.397  0.00  0.00    +0.000 A 
ATOM     27  C   UNL     1      39.315  -3.820  11.159  0.00  0.00    +0.000 A 
ATOM     28  C   UNL     1      39.926  -2.679  10.674  0.00  0.00    +0.000 A 
ATOM     29  N   UNL     1      40.905  -2.028  11.328  0.00  0.00    +0.000 NA
ATOM     30  C   UNL     1      41.286  -2.542  12.525  0.00  0.00    +0.000 A 
ENDBRANCH  23  25
ENDBRANCH  17  18
ENDBRANCH   2  16
TORSDOF 6
ENDMDL
