MODEL 1
REMARK VINA RESULT:    -8.010      0.000      0.000
REMARK INTER + INTRA:         -11.825
REMARK INTER:                 -10.585
REMARK INTRA:                  -1.240
REMARK UNBOUND:                -1.240
REMARK  Name = 
REMARK  6 active torsions:
REMARK  status: ('A' for Active; 'I' for Inactive)
REMARK    1  A    between atoms: C_2  and  C_4
REMARK    2  A    between atoms: C_7  and  O_8
REMARK    3  A    between atoms: O_8  and  C_9
REMARK    4  A    between atoms: C_9  and  C_10
REMARK    5  A    between atoms: C_15  and  N_16
REMARK    6  A    between atoms: C_19  and  O_20
REMARK                            x       y       z     vdW  Elec       q    Type
REMARK                         _______ _______ _______ _____ _____    ______ ____
ROOT
ATOM      1  C   UNL     1      43.948   4.971  11.507  0.00  0.00    +0.000 C 
ATOM      2  C   UNL     1      42.535   5.151  12.070  0.00  0.00    +0.000 C 
ATOM      3  C   UNL     1      43.013   6.043  10.978  0.00  0.00    +0.000 C 
ENDROOT
BRANCH   1   4
ATOM      4  C   UNL     1      45.143   5.416  12.343  0.00  0.00    +0.000 A 
ATOM      5  C   UNL     1      45.599   4.670  13.433  0.00  0.00    +0.000 A 
ATOM      6  C   UNL     1      46.740   5.037  14.140  0.00  0.00    +0.000 A 
ATOM      7  C   UNL     1      47.496   6.146  13.745  0.00  0.00    +0.000 A 
ATOM      8 CL   UNL     1      48.998   6.333  14.594  0.00  0.00    +0.000 Cl
ATOM      9  C   UNL     1      47.092   6.955  12.660  0.00  0.00    +0.000 A 
ATOM     10  C   UNL     1      45.886   6.570  12.019  0.00  0.00    +0.000 A 
BRANCH   9  11
ATOM     11  N   UNL     1      47.798   8.046  12.166  0.00  0.00    +0.000 N 
ATOM     12  C   UNL     1      47.398   9.418  12.492  0.00  0.00    +0.000 C 
ATOM     13  C   UNL     1      48.515  10.101  13.276  0.00  0.00    +0.000 C 
ATOM     14  C   UNL     1      49.842  10.030  12.519  0.00  0.00    +0.000 C 
ATOM     15  C   UNL     1      50.180   8.605  12.090  0.00  0.00    +0.000 C 
ATOM     16  C   UNL     1      49.023   7.910  11.377  0.00  0.00    +0.000 C 
BRANCH  14  17
ATOM     17  O   UNL     1      49.823  10.907  11.393  0.00  0.00    +0.000 OA
ATOM     18  H   UNL     1      50.692  10.888  10.961  0.00  0.00    +0.000 HD
ENDBRANCH  14  17
ENDBRANCH   9  11
ENDBRANCH   1   4
BRANCH   1  19
ATOM     19  O   UNL     1      44.034   3.685  10.850  0.00  0.00    +0.000 OA
BRANCH  19  23
ATOM     20  C   UNL     1      46.470   2.804   7.579  0.00  0.00    +0.000 A 
ATOM     21  C   UNL     1      46.184   4.147   7.856  0.00  0.00    +0.000 A 
ATOM     22  C   UNL     1      45.352   4.483   8.931  0.00  0.00    +0.000 A 
ATOM     23  C   UNL     1      44.835   3.491   9.758  0.00  0.00    +0.000 A 
ATOM     24  C   UNL     1      45.121   2.151   9.477  0.00  0.00    +0.000 A 
ATOM     25  C   UNL     1      45.921   1.805   8.386  0.00  0.00    +0.000 A 
BRANCH  20  27
ATOM     26  N   UNL     1      47.266   3.227   5.318  0.00  0.00    +0.000 N 
ATOM     27  C   UNL     1      47.299   2.410   6.409  0.00  0.00    +0.000 C 
ATOM     28  O   UNL     1      48.004   1.405   6.428  0.00  0.00    +0.000 OA
ATOM     29  H   UNL     1      47.904   2.991   4.567  0.00  0.00    +0.000 HD
ATOM     30  H   UNL     1      46.932   4.179   5.362  0.00  0.00    +0.000 HD
ENDBRANCH  20  27
ENDBRANCH  19  23
ENDBRANCH   1  19
TORSDOF 6
ENDMDL
MODEL 2
REMARK VINA RESULT:    -8.004      1.666      2.265
REMARK INTER + INTRA:         -11.818
REMARK INTER:                 -11.250
REMARK INTRA:                  -0.567
REMARK UNBOUND:                -1.240
REMARK  Name = 
REMARK  6 active torsions:
REMARK  status: ('A' for Active; 'I' for Inactive)
REMARK    1  A    between atoms: C_2  and  C_4
REMARK    2  A    between atoms: C_7  and  O_8
REMARK    3  A    between atoms: O_8  and  C_9
REMARK    4  A    between atoms: C_9  and  C_10
REMARK    5  A    between atoms: C_15  and  N_16
REMARK    6  A    between atoms: C_19  and  O_20
REMARK                            x       y       z     vdW  Elec       q    Type
REMARK                         _______ _______ _______ _____ _____    ______ ____
ROOT
ATOM      1  C   UNL     1      44.134   4.349  11.596  0.00  0.00    +0.000 C 
ATOM      2  C   UNL     1      44.697   3.220  12.466  0.00  0.00    +0.000 C 
ATOM      3  C   UNL     1      43.417   3.878  12.848  0.00  0.00    +0.000 C 
ENDROOT
BRANCH   1   4
ATOM      4  C   UNL     1      44.804   5.718  11.631  0.00  0.00    +0.000 A 
ATOM      5  C   UNL     1      44.088   6.895  11.397  0.00  0.00    +0.000 A 
ATOM      6  C   UNL     1      44.687   8.146  11.513  0.00  0.00    +0.000 A 
ATOM      7  C   UNL     1      46.021   8.262  11.917  0.00  0.00    +0.000 A 
ATOM      8 CL   UNL     1      46.543   9.889  12.222  0.00  0.00    +0.000 Cl
ATOM      9  C   UNL     1      46.812   7.116  12.160  0.00  0.00    +0.000 A 
ATOM     10  C   UNL     1      46.166   5.868  11.962  0.00  0.00    +0.000 A 
BRANCH   9  11
ATOM     11  N   UNL     1      48.128   7.130  12.608  0.00  0.00    +0.000 N 
ATOM     12  C   UNL     1      49.234   7.451  11.700  0.00  0.00    +0.000 C 
ATOM     13  C   UNL     1      49.930   8.722  12.176  0.00  0.00    +0.000 C 
ATOM     14  C   UNL     1      50.372   8.596  13.634  0.00  0.00    +0.000 C 
ATOM     15  C   UNL     1      49.230   8.149  14.541  0.00  0.00    +0.000 C 
ATOM     16  C   UNL     1      48.494   6.922  14.009  0.00  0.00    +0.000 C 
BRANCH  14  17
ATOM     17  O   UNL     1      51.484   7.706  13.744  0.00  0.00    +0.000 OA
ATOM     18  H   UNL     1      51.809   7.715  14.659  0.00  0.00    +0.000 HD
ENDBRANCH  14  17
ENDBRANCH   9  11
ENDBRANCH   1   4
BRANCH   1  19
ATOM     19  O   UNL     1      43.776   3.812  10.301  0.00  0.00    +0.000 OA
BRANCH  19  23
ATOM     20  C   UNL     1      46.646   2.727   7.474  0.00  0.00    +0.000 A 
ATOM     21  C   UNL     1      46.327   4.084   7.615  0.00  0.00    +0.000 A 
ATOM     22  C   UNL     1      45.353   4.487   8.537  0.00  0.00    +0.000 A 
ATOM     23  C   UNL     1      44.722   3.550   9.349  0.00  0.00    +0.000 A 
ATOM     24  C   UNL     1      45.042   2.196   9.204  0.00  0.00    +0.000 A 
ATOM     25  C   UNL     1      45.987   1.782   8.263  0.00  0.00    +0.000 A 
BRANCH  20  27
ATOM     26  N   UNL     1      47.825   3.051   5.369  0.00  0.00    +0.000 N 
ATOM     27  C   UNL     1      47.631   2.260   6.463  0.00  0.00    +0.000 C 
ATOM     28  O   UNL     1      48.264   1.219   6.613  0.00  0.00    +0.000 OA
ATOM     29  H   UNL     1      48.561   2.762   4.737  0.00  0.00    +0.000 HD
ATOM     30  H   UNL     1      47.543   4.021   5.344  0.00  0.00    +0.000 HD
ENDBRANCH  20  27
ENDBRANCH  19  23
ENDBRANCH   1  19
TORSDOF 6
ENDMDL
MODEL 3
REMARK VINA RESULT:    -8.000      2.742      4.196
REMARK INTER + INTRA:         -11.812
REMARK INTER:                 -10.779
REMARK INTRA:                  -1.032
REMARK UNBOUND:                -1.240
REMARK  Name = 
REMARK  6 active torsions:
REMARK  status: ('A' for Active; 'I' for Inactive)
REMARK    1  A    between atoms: C_2  and  C_4
REMARK    2  A    between atoms: C_7  and  O_8
REMARK    3  A    between atoms: O_8  and  C_9
REMARK    4  A    between atoms: C_9  and  C_10
REMARK    5  A    between atoms: C_15  and  N_16
REMARK    6  A    between atoms: C_19  and  O_20
REMARK                            x       y       z     vdW  Elec       q    Type
REMARK                         _______ _______ _______ _____ _____    ______ ____
ROOT
ATOM      1  C   UNL     1      44.289   4.786  11.964  0.00  0.00    +0.000 C 
ATOM      2  C   UNL     1      42.967   4.896  12.731  0.00  0.00    +0.000 C 
ATOM      3  C   UNL     1      43.302   5.905  11.687  0.00  0.00    +0.000 C 
ENDROOT
BRANCH   1   4
ATOM      4  C   UNL     1      45.590   5.142  12.674  0.00  0.00    +0.000 A 
ATOM      5  C   UNL     1      46.447   6.134  12.188  0.00  0.00    +0.000 A 
ATOM      6  C   UNL     1      47.590   6.513  12.885  0.00  0.00    +0.000 A 
ATOM      7  C   UNL     1      47.890   5.941  14.126  0.00  0.00    +0.000 A 
ATOM      8 CL   UNL     1      49.223   6.680  14.957  0.00  0.00    +0.000 Cl
ATOM      9  C   UNL     1      47.077   4.925  14.676  0.00  0.00    +0.000 A 
ATOM     10  C   UNL     1      45.963   4.533  13.890  0.00  0.00    +0.000 A 
BRANCH   9  11
ATOM     11  N   UNL     1      47.267   4.331  15.918  0.00  0.00    +0.000 N 
ATOM     12  C   UNL     1      47.819   2.977  16.034  0.00  0.00    +0.000 C 
ATOM     13  C   UNL     1      49.149   3.032  16.781  0.00  0.00    +0.000 C 
ATOM     14  C   UNL     1      48.994   3.732  18.131  0.00  0.00    +0.000 C 
ATOM     15  C   UNL     1      48.312   5.090  17.997  0.00  0.00    +0.000 C 
ATOM     16  C   UNL     1      47.024   5.030  17.180  0.00  0.00    +0.000 C 
BRANCH  14  17
ATOM     17  O   UNL     1      48.285   2.898  19.048  0.00  0.00    +0.000 OA
ATOM     18  H   UNL     1      47.936   3.444  19.771  0.00  0.00    +0.000 HD
ENDBRANCH  14  17
ENDBRANCH   9  11
ENDBRANCH   1   4
BRANCH   1  19
ATOM     19  O   UNL     1      44.271   3.579  11.166  0.00  0.00    +0.000 OA
BRANCH  19  23
ATOM     20  C   UNL     1      46.382   3.020   7.612  0.00  0.00    +0.000 A 
ATOM     21  C   UNL     1      46.053   4.327   7.994  0.00  0.00    +0.000 A 
ATOM     22  C   UNL     1      45.326   4.555   9.169  0.00  0.00    +0.000 A 
ATOM     23  C   UNL     1      44.958   3.492   9.987  0.00  0.00    +0.000 A 
ATOM     24  C   UNL     1      45.287   2.188   9.600  0.00  0.00    +0.000 A 
ATOM     25  C   UNL     1      45.982   1.949   8.412  0.00  0.00    +0.000 A 
BRANCH  20  27
ATOM     26  N   UNL     1      48.427   2.434   6.427  0.00  0.00    +0.000 N 
ATOM     27  C   UNL     1      47.100   2.738   6.340  0.00  0.00    +0.000 C 
ATOM     28  O   UNL     1      46.523   2.755   5.257  0.00  0.00    +0.000 OA
ATOM     29  H   UNL     1      48.877   2.159   5.562  0.00  0.00    +0.000 HD
ATOM     30  H   UNL     1      48.861   2.143   7.291  0.00  0.00    +0.000 HD
ENDBRANCH  20  27
ENDBRANCH  19  23
ENDBRANCH   1  19
TORSDOF 6
ENDMDL
MODEL 4
REMARK VINA RESULT:    -6.703      3.729      6.112
REMARK INTER + INTRA:         -10.098
REMARK INTER:                  -8.990
REMARK INTRA:                  -1.108
REMARK UNBOUND:                -1.240
REMARK  Name = 
REMARK  6 active torsions:
REMARK  status: ('A' for Active; 'I' for Inactive)
REMARK    1  A    between atoms: C_2  and  C_4
REMARK    2  A    between atoms: C_7  and  O_8
REMARK    3  A    between atoms: O_8  and  C_9
REMARK    4  A    between atoms: C_9  and  C_10
REMARK    5  A    between atoms: C_15  and  N_16
REMARK    6  A    between atoms: C_19  and  O_20
REMARK                            x       y       z     vdW  Elec       q    Type
REMARK                         _______ _______ _______ _____ _____    ______ ____
ROOT
ATOM      1  C   UNL     1      48.114   7.639  13.035  0.00  0.00    +0.000 C 
ATOM      2  C   UNL     1      48.900   8.362  11.937  0.00  0.00    +0.000 C 
ATOM      3  C   UNL     1      49.142   6.914  12.186  0.00  0.00    +0.000 C 
ENDROOT
BRANCH   1   4
ATOM      4  C   UNL     1      48.459   7.909  14.495  0.00  0.00    +0.000 A 
ATOM      5  C   UNL     1      48.636   9.207  14.983  0.00  0.00    +0.000 A 
ATOM      6  C   UNL     1      48.867   9.451  16.334  0.00  0.00    +0.000 A 
ATOM      7  C   UNL     1      48.880   8.400  17.255  0.00  0.00    +0.000 A 
ATOM      8 CL   UNL     1      48.961   8.898  18.916  0.00  0.00    +0.000 Cl
ATOM      9  C   UNL     1      48.719   7.060  16.836  0.00  0.00    +0.000 A 
ATOM     10  C   UNL     1      48.553   6.866  15.440  0.00  0.00    +0.000 A 
BRANCH   9  11
ATOM     11  N   UNL     1      48.671   5.956  17.678  0.00  0.00    +0.000 N 
ATOM     12  C   UNL     1      47.391   5.379  18.103  0.00  0.00    +0.000 C 
ATOM     13  C   UNL     1      47.280   3.950  17.583  0.00  0.00    +0.000 C 
ATOM     14  C   UNL     1      48.483   3.111  18.014  0.00  0.00    +0.000 C 
ATOM     15  C   UNL     1      49.805   3.786  17.664  0.00  0.00    +0.000 C 
ATOM     16  C   UNL     1      49.869   5.242  18.122  0.00  0.00    +0.000 C 
BRANCH  14  17
ATOM     17  O   UNL     1      48.417   2.822  19.411  0.00  0.00    +0.000 OA
ATOM     18  H   UNL     1      47.662   2.235  19.579  0.00  0.00    +0.000 HD
ENDBRANCH  14  17
ENDBRANCH   9  11
ENDBRANCH   1   4
BRANCH   1  19
ATOM     19  O   UNL     1      46.714   7.612  12.672  0.00  0.00    +0.000 OA
BRANCH  19  23
ATOM     20  C   UNL     1      44.695   4.135  11.557  0.00  0.00    +0.000 A 
ATOM     21  C   UNL     1      45.170   4.238  12.871  0.00  0.00    +0.000 A 
ATOM     22  C   UNL     1      45.872   5.380  13.277  0.00  0.00    +0.000 A 
ATOM     23  C   UNL     1      46.070   6.437  12.396  0.00  0.00    +0.000 A 
ATOM     24  C   UNL     1      45.595   6.329  11.084  0.00  0.00    +0.000 A 
ATOM     25  C   UNL     1      44.924   5.180  10.660  0.00  0.00    +0.000 A 
BRANCH  20  27
ATOM     26  N   UNL     1      44.541   2.268  10.002  0.00  0.00    +0.000 N 
ATOM     27  C   UNL     1      43.999   2.912  11.075  0.00  0.00    +0.000 C 
ATOM     28  O   UNL     1      42.992   2.483  11.630  0.00  0.00    +0.000 OA
ATOM     29  H   UNL     1      44.106   1.391   9.744  0.00  0.00    +0.000 HD
ATOM     30  H   UNL     1      45.493   2.421   9.701  0.00  0.00    +0.000 HD
ENDBRANCH  20  27
ENDBRANCH  19  23
ENDBRANCH   1  19
TORSDOF 6
ENDMDL
MODEL 5
REMARK VINA RESULT:    -6.347      4.125      6.283
REMARK INTER + INTRA:          -9.627
REMARK INTER:                  -8.691
REMARK INTRA:                  -0.936
REMARK UNBOUND:                -1.240
REMARK  Name = 
REMARK  6 active torsions:
REMARK  status: ('A' for Active; 'I' for Inactive)
REMARK    1  A    between atoms: C_2  and  C_4
REMARK    2  A    between atoms: C_7  and  O_8
REMARK    3  A    between atoms: O_8  and  C_9
REMARK    4  A    between atoms: C_9  and  C_10
REMARK    5  A    between atoms: C_15  and  N_16
REMARK    6  A    between atoms: C_19  and  O_20
REMARK                            x       y       z     vdW  Elec       q    Type
REMARK                         _______ _______ _______ _____ _____    ______ ____
ROOT
ATOM      1  C   UNL     1      48.083   7.523  13.165  0.00  0.00    +0.000 C 
ATOM      2  C   UNL     1      48.837   8.267  12.058  0.00  0.00    +0.000 C 
ATOM      3  C   UNL     1      49.049   6.804  12.242  0.00  0.00    +0.000 C 
ENDROOT
BRANCH   1   4
ATOM      4  C   UNL     1      48.502   7.729  14.617  0.00  0.00    +0.000 A 
ATOM      5  C   UNL     1      48.873   8.985  15.106  0.00  0.00    +0.000 A 
ATOM      6  C   UNL     1      49.174   9.182  16.450  0.00  0.00    +0.000 A 
ATOM      7  C   UNL     1      49.066   8.131  17.366  0.00  0.00    +0.000 A 
ATOM      8 CL   UNL     1      49.262   8.598  19.026  0.00  0.00    +0.000 Cl
ATOM      9  C   UNL     1      48.707   6.831  16.944  0.00  0.00    +0.000 A 
ATOM     10  C   UNL     1      48.477   6.675  15.553  0.00  0.00    +0.000 A 
BRANCH   9  11
ATOM     11  N   UNL     1      48.529   5.737  17.782  0.00  0.00    +0.000 N 
ATOM     12  C   UNL     1      49.592   4.743  17.968  0.00  0.00    +0.000 C 
ATOM     13  C   UNL     1      50.037   4.741  19.426  0.00  0.00    +0.000 C 
ATOM     14  C   UNL     1      48.850   4.526  20.365  0.00  0.00    +0.000 C 
ATOM     15  C   UNL     1      47.710   5.498  20.076  0.00  0.00    +0.000 C 
ATOM     16  C   UNL     1      47.330   5.546  18.598  0.00  0.00    +0.000 C 
BRANCH  14  17
ATOM     17  O   UNL     1      48.393   3.175  20.293  0.00  0.00    +0.000 OA
ATOM     18  H   UNL     1      49.141   2.597  20.073  0.00  0.00    +0.000 HD
ENDBRANCH  14  17
ENDBRANCH   9  11
ENDBRANCH   1   4
BRANCH   1  19
ATOM     19  O   UNL     1      46.667   7.547  12.869  0.00  0.00    +0.000 OA
BRANCH  19  23
ATOM     20  C   UNL     1      44.733   4.130  11.457  0.00  0.00    +0.000 A 
ATOM     21  C   UNL     1      45.081   5.128  10.537  0.00  0.00    +0.000 A 
ATOM     22  C   UNL     1      45.711   6.300  10.975  0.00  0.00    +0.000 A 
ATOM     23  C   UNL     1      46.033   6.467  12.318  0.00  0.00    +0.000 A 
ATOM     24  C   UNL     1      45.682   5.469  13.233  0.00  0.00    +0.000 A 
ATOM     25  C   UNL     1      45.023   4.313  12.810  0.00  0.00    +0.000 A 
BRANCH  20  27
ATOM     26  N   UNL     1      44.516   2.213   9.973  0.00  0.00    +0.000 N 
ATOM     27  C   UNL     1      44.009   2.901  11.035  0.00  0.00    +0.000 C 
ATOM     28  O   UNL     1      43.011   2.506  11.630  0.00  0.00    +0.000 OA
ATOM     29  H   UNL     1      44.062   1.334   9.756  0.00  0.00    +0.000 HD
ATOM     30  H   UNL     1      45.462   2.342   9.643  0.00  0.00    +0.000 HD
ENDBRANCH  20  27
ENDBRANCH  19  23
ENDBRANCH   1  19
TORSDOF 6
ENDMDL
MODEL 6
REMARK VINA RESULT:    -6.190      4.176      8.676
REMARK INTER + INTRA:          -9.421
REMARK INTER:                  -8.440
REMARK INTRA:                  -0.981
REMARK UNBOUND:                -1.240
REMARK  Name = 
REMARK  6 active torsions:
REMARK  status: ('A' for Active; 'I' for Inactive)
REMARK    1  A    between atoms: C_2  and  C_4
REMARK    2  A    between atoms: C_7  and  O_8
REMARK    3  A    between atoms: O_8  and  C_9
REMARK    4  A    between atoms: C_9  and  C_10
REMARK    5  A    between atoms: C_15  and  N_16
REMARK    6  A    between atoms: C_19  and  O_20
REMARK                            x       y       z     vdW  Elec       q    Type
REMARK                         _______ _______ _______ _____ _____    ______ ____
ROOT
ATOM      1  C   UNL     1      49.169   7.698  14.188  0.00  0.00    +0.000 C 
ATOM      2  C   UNL     1      50.347   8.126  13.308  0.00  0.00    +0.000 C 
ATOM      3  C   UNL     1      49.832   9.053  14.353  0.00  0.00    +0.000 C 
ENDROOT
BRANCH   1   4
ATOM      4  C   UNL     1      47.769   7.658  13.586  0.00  0.00    +0.000 A 
ATOM      5  C   UNL     1      46.993   8.812  13.448  0.00  0.00    +0.000 A 
ATOM      6  C   UNL     1      45.751   8.782  12.821  0.00  0.00    +0.000 A 
ATOM      7  C   UNL     1      45.262   7.596  12.264  0.00  0.00    +0.000 A 
ATOM      8 CL   UNL     1      43.809   7.782  11.333  0.00  0.00    +0.000 Cl
ATOM      9  C   UNL     1      45.985   6.387  12.374  0.00  0.00    +0.000 A 
ATOM     10  C   UNL     1      47.213   6.465  13.081  0.00  0.00    +0.000 A 
BRANCH   9  11
ATOM     11  N   UNL     1      45.605   5.172  11.816  0.00  0.00    +0.000 N 
ATOM     12  C   UNL     1      45.356   3.997  12.657  0.00  0.00    +0.000 C 
ATOM     13  C   UNL     1      43.897   3.573  12.520  0.00  0.00    +0.000 C 
ATOM     14  C   UNL     1      43.524   3.347  11.054  0.00  0.00    +0.000 C 
ATOM     15  C   UNL     1      43.898   4.540  10.179  0.00  0.00    +0.000 C 
ATOM     16  C   UNL     1      45.339   5.001  10.388  0.00  0.00    +0.000 C 
BRANCH  14  17
ATOM     17  O   UNL     1      44.127   2.150  10.563  0.00  0.00    +0.000 OA
ATOM     18  H   UNL     1      44.816   2.382   9.919  0.00  0.00    +0.000 HD
ENDBRANCH  14  17
ENDBRANCH   9  11
ENDBRANCH   1   4
BRANCH   1  19
ATOM     19  O   UNL     1      49.576   6.578  15.009  0.00  0.00    +0.000 OA
BRANCH  19  23
ATOM     20  C   UNL     1      48.274   5.956  18.923  0.00  0.00    +0.000 A 
ATOM     21  C   UNL     1      48.782   7.216  18.581  0.00  0.00    +0.000 A 
ATOM     22  C   UNL     1      49.250   7.458  17.284  0.00  0.00    +0.000 A 
ATOM     23  C   UNL     1      49.178   6.465  16.312  0.00  0.00    +0.000 A 
ATOM     24  C   UNL     1      48.672   5.207  16.659  0.00  0.00    +0.000 A 
ATOM     25  C   UNL     1      48.235   4.947  17.960  0.00  0.00    +0.000 A 
BRANCH  20  27
ATOM     26  N   UNL     1      48.216   4.454  20.838  0.00  0.00    +0.000 N 
ATOM     27  C   UNL     1      47.825   5.648  20.307  0.00  0.00    +0.000 C 
ATOM     28  O   UNL     1      47.151   6.441  20.958  0.00  0.00    +0.000 OA
ATOM     29  H   UNL     1      47.977   4.300  21.810  0.00  0.00    +0.000 HD
ATOM     30  H   UNL     1      48.979   3.914  20.455  0.00  0.00    +0.000 HD
ENDBRANCH  20  27
ENDBRANCH  19  23
ENDBRANCH   1  19
TORSDOF 6
ENDMDL
MODEL 7
REMARK VINA RESULT:    -5.720      3.314      5.133
REMARK INTER + INTRA:          -8.799
REMARK INTER:                  -8.752
REMARK INTRA:                  -0.047
REMARK UNBOUND:                -1.240
REMARK  Name = 
REMARK  6 active torsions:
REMARK  status: ('A' for Active; 'I' for Inactive)
REMARK    1  A    between atoms: C_2  and  C_4
REMARK    2  A    between atoms: C_7  and  O_8
REMARK    3  A    between atoms: O_8  and  C_9
REMARK    4  A    between atoms: C_9  and  C_10
REMARK    5  A    between atoms: C_15  and  N_16
REMARK    6  A    between atoms: C_19  and  O_20
REMARK                            x       y       z     vdW  Elec       q    Type
REMARK                         _______ _______ _______ _____ _____    ______ ____
ROOT
ATOM      1  C   UNL     1      46.154   7.743  12.810  0.00  0.00    +0.000 C 
ATOM      2  C   UNL     1      45.562   9.149  12.948  0.00  0.00    +0.000 C 
ATOM      3  C   UNL     1      46.199   8.739  11.666  0.00  0.00    +0.000 C 
ENDROOT
BRANCH   1   4
ATOM      4  C   UNL     1      47.462   7.416  13.522  0.00  0.00    +0.000 A 
ATOM      5  C   UNL     1      48.667   8.034  13.172  0.00  0.00    +0.000 A 
ATOM      6  C   UNL     1      49.840   7.793  13.880  0.00  0.00    +0.000 A 
ATOM      7  C   UNL     1      49.837   6.957  15.001  0.00  0.00    +0.000 A 
ATOM      8 CL   UNL     1      51.326   6.940  15.892  0.00  0.00    +0.000 Cl
ATOM      9  C   UNL     1      48.660   6.289  15.409  0.00  0.00    +0.000 A 
ATOM     10  C   UNL     1      47.511   6.520  14.610  0.00  0.00    +0.000 A 
BRANCH   9  11
ATOM     11  N   UNL     1      48.547   5.477  16.531  0.00  0.00    +0.000 N 
ATOM     12  C   UNL     1      47.497   4.459  16.628  0.00  0.00    +0.000 C 
ATOM     13  C   UNL     1      48.134   3.076  16.713  0.00  0.00    +0.000 C 
ATOM     14  C   UNL     1      49.143   3.004  17.860  0.00  0.00    +0.000 C 
ATOM     15  C   UNL     1      50.157   4.141  17.802  0.00  0.00    +0.000 C 
ATOM     16  C   UNL     1      49.504   5.512  17.637  0.00  0.00    +0.000 C 
BRANCH  14  17
ATOM     17  O   UNL     1      48.468   2.990  19.119  0.00  0.00    +0.000 OA
ATOM     18  H   UNL     1      47.653   2.470  19.038  0.00  0.00    +0.000 HD
ENDBRANCH  14  17
ENDBRANCH   9  11
ENDBRANCH   1   4
BRANCH   1  19
ATOM     19  O   UNL     1      45.086   6.771  12.894  0.00  0.00    +0.000 OA
BRANCH  19  23
ATOM     20  C   UNL     1      44.830   3.903   9.875  0.00  0.00    +0.000 A 
ATOM     21  C   UNL     1      44.162   3.662  11.083  0.00  0.00    +0.000 A 
ATOM     22  C   UNL     1      44.242   4.590  12.129  0.00  0.00    +0.000 A 
ATOM     23  C   UNL     1      44.950   5.776  11.966  0.00  0.00    +0.000 A 
ATOM     24  C   UNL     1      45.617   6.012  10.759  0.00  0.00    +0.000 A 
ATOM     25  C   UNL     1      45.571   5.076   9.723  0.00  0.00    +0.000 A 
BRANCH  20  27
ATOM     26  N   UNL     1      44.792   1.592   9.111  0.00  0.00    +0.000 N 
ATOM     27  C   UNL     1      44.816   2.911   8.767  0.00  0.00    +0.000 C 
ATOM     28  O   UNL     1      44.802   3.260   7.590  0.00  0.00    +0.000 OA
ATOM     29  H   UNL     1      44.693   0.935   8.347  0.00  0.00    +0.000 HD
ATOM     30  H   UNL     1      44.527   1.276  10.034  0.00  0.00    +0.000 HD
ENDBRANCH  20  27
ENDBRANCH  19  23
ENDBRANCH   1  19
TORSDOF 6
ENDMDL
MODEL 8
REMARK VINA RESULT:    -5.480      4.225      7.023
REMARK INTER + INTRA:          -8.483
REMARK INTER:                  -8.347
REMARK INTRA:                  -0.135
REMARK UNBOUND:                -1.240
REMARK  Name = 
REMARK  6 active torsions:
REMARK  status: ('A' for Active; 'I' for Inactive)
REMARK    1  A    between atoms: C_2  and  C_4
REMARK    2  A    between atoms: C_7  and  O_8
REMARK    3  A    between atoms: O_8  and  C_9
REMARK    4  A    between atoms: C_9  and  C_10
REMARK    5  A    between atoms: C_15  and  N_16
REMARK    6  A    between atoms: C_19  and  O_20
REMARK                            x       y       z     vdW  Elec       q    Type
REMARK                         _______ _______ _______ _____ _____    ______ ____
ROOT
ATOM      1  C   UNL     1      49.210   8.427  13.854  0.00  0.00    +0.000 C 
ATOM      2  C   UNL     1      48.083   9.235  14.505  0.00  0.00    +0.000 C 
ATOM      3  C   UNL     1      49.223   9.944  13.861  0.00  0.00    +0.000 C 
ENDROOT
BRANCH   1   4
ATOM      4  C   UNL     1      50.213   7.702  14.745  0.00  0.00    +0.000 A 
ATOM      5  C   UNL     1      51.572   8.028  14.742  0.00  0.00    +0.000 A 
ATOM      6  C   UNL     1      52.468   7.420  15.617  0.00  0.00    +0.000 A 
ATOM      7  C   UNL     1      52.020   6.495  16.565  0.00  0.00    +0.000 A 
ATOM      8 CL   UNL     1      53.222   6.003  17.716  0.00  0.00    +0.000 Cl
ATOM      9  C   UNL     1      50.662   6.108  16.622  0.00  0.00    +0.000 A 
ATOM     10  C   UNL     1      49.808   6.710  15.662  0.00  0.00    +0.000 A 
BRANCH   9  11
ATOM     11  N   UNL     1      50.115   5.234  17.554  0.00  0.00    +0.000 N 
ATOM     12  C   UNL     1      48.977   5.631  18.390  0.00  0.00    +0.000 C 
ATOM     13  C   UNL     1      47.782   4.736  18.080  0.00  0.00    +0.000 C 
ATOM     14  C   UNL     1      48.145   3.259  18.230  0.00  0.00    +0.000 C 
ATOM     15  C   UNL     1      49.400   2.896  17.441  0.00  0.00    +0.000 C 
ATOM     16  C   UNL     1      50.563   3.849  17.705  0.00  0.00    +0.000 C 
BRANCH  14  17
ATOM     17  O   UNL     1      48.297   2.918  19.608  0.00  0.00    +0.000 OA
ATOM     18  H   UNL     1      47.470   3.113  20.077  0.00  0.00    +0.000 HD
ENDBRANCH  14  17
ENDBRANCH   9  11
ENDBRANCH   1   4
BRANCH   1  19
ATOM     19  O   UNL     1      48.678   7.704  12.720  0.00  0.00    +0.000 OA
BRANCH  19  23
ATOM     20  C   UNL     1      45.062   5.638  12.954  0.00  0.00    +0.000 A 
ATOM     21  C   UNL     1      45.049   6.950  12.464  0.00  0.00    +0.000 A 
ATOM     22  C   UNL     1      46.239   7.685  12.391  0.00  0.00    +0.000 A 
ATOM     23  C   UNL     1      47.448   7.107  12.765  0.00  0.00    +0.000 A 
ATOM     24  C   UNL     1      47.455   5.797  13.256  0.00  0.00    +0.000 A 
ATOM     25  C   UNL     1      46.268   5.069  13.365  0.00  0.00    +0.000 A 
BRANCH  20  27
ATOM     26  N   UNL     1      42.630   5.522  12.960  0.00  0.00    +0.000 N 
ATOM     27  C   UNL     1      43.808   4.851  13.102  0.00  0.00    +0.000 C 
ATOM     28  O   UNL     1      43.827   3.643  13.320  0.00  0.00    +0.000 OA
ATOM     29  H   UNL     1      41.791   4.956  12.976  0.00  0.00    +0.000 HD
ATOM     30  H   UNL     1      42.571   6.428  12.517  0.00  0.00    +0.000 HD
ENDBRANCH  20  27
ENDBRANCH  19  23
ENDBRANCH   1  19
TORSDOF 6
ENDMDL
MODEL 9
REMARK VINA RESULT:    -5.468      2.846      7.669
REMARK INTER + INTRA:          -8.466
REMARK INTER:                  -7.850
REMARK INTRA:                  -0.616
REMARK UNBOUND:                -1.240
REMARK  Name = 
REMARK  6 active torsions:
REMARK  status: ('A' for Active; 'I' for Inactive)
REMARK    1  A    between atoms: C_2  and  C_4
REMARK    2  A    between atoms: C_7  and  O_8
REMARK    3  A    between atoms: O_8  and  C_9
REMARK    4  A    between atoms: C_9  and  C_10
REMARK    5  A    between atoms: C_15  and  N_16
REMARK    6  A    between atoms: C_19  and  O_20
REMARK                            x       y       z     vdW  Elec       q    Type
REMARK                         _______ _______ _______ _____ _____    ______ ____
ROOT
ATOM      1  C   UNL     1      46.263   7.764  12.171  0.00  0.00    +0.000 C 
ATOM      2  C   UNL     1      45.481   8.997  11.707  0.00  0.00    +0.000 C 
ATOM      3  C   UNL     1      45.645   8.732  13.163  0.00  0.00    +0.000 C 
ENDROOT
BRANCH   1   4
ATOM      4  C   UNL     1      45.627   6.385  12.031  0.00  0.00    +0.000 A 
ATOM      5  C   UNL     1      44.870   5.815  13.058  0.00  0.00    +0.000 A 
ATOM      6  C   UNL     1      44.223   4.594  12.892  0.00  0.00    +0.000 A 
ATOM      7  C   UNL     1      44.273   3.922  11.667  0.00  0.00    +0.000 A 
ATOM      8 CL   UNL     1      43.237   2.533  11.564  0.00  0.00    +0.000 Cl
ATOM      9  C   UNL     1      45.026   4.432  10.586  0.00  0.00    +0.000 A 
ATOM     10  C   UNL     1      45.718   5.645  10.834  0.00  0.00    +0.000 A 
BRANCH   9  11
ATOM     11  N   UNL     1      45.100   3.862   9.320  0.00  0.00    +0.000 N 
ATOM     12  C   UNL     1      45.589   4.629   8.170  0.00  0.00    +0.000 C 
ATOM     13  C   UNL     1      46.860   3.982   7.630  0.00  0.00    +0.000 C 
ATOM     14  C   UNL     1      46.632   2.505   7.308  0.00  0.00    +0.000 C 
ATOM     15  C   UNL     1      46.015   1.752   8.482  0.00  0.00    +0.000 C 
ATOM     16  C   UNL     1      44.790   2.456   9.062  0.00  0.00    +0.000 C 
BRANCH  14  17
ATOM     17  O   UNL     1      45.825   2.367   6.138  0.00  0.00    +0.000 OA
ATOM     18  H   UNL     1      45.047   1.826   6.350  0.00  0.00    +0.000 HD
ENDBRANCH  14  17
ENDBRANCH   9  11
ENDBRANCH   1   4
BRANCH   1  19
ATOM     19  O   UNL     1      47.646   7.906  11.773  0.00  0.00    +0.000 OA
BRANCH  19  23
ATOM     20  C   UNL     1      50.586   8.497  14.674  0.00  0.00    +0.000 A 
ATOM     21  C   UNL     1      50.327   9.532  13.766  0.00  0.00    +0.000 A 
ATOM     22  C   UNL     1      49.363   9.364  12.764  0.00  0.00    +0.000 A 
ATOM     23  C   UNL     1      48.628   8.187  12.684  0.00  0.00    +0.000 A 
ATOM     24  C   UNL     1      48.891   7.154  13.591  0.00  0.00    +0.000 A 
ATOM     25  C   UNL     1      49.875   7.300  14.572  0.00  0.00    +0.000 A 
BRANCH  20  27
ATOM     26  N   UNL     1      51.346   8.167  16.964  0.00  0.00    +0.000 N 
ATOM     27  C   UNL     1      51.644   8.619  15.712  0.00  0.00    +0.000 C 
ATOM     28  O   UNL     1      52.750   9.084  15.453  0.00  0.00    +0.000 OA
ATOM     29  H   UNL     1      52.106   8.176  17.632  0.00  0.00    +0.000 HD
ATOM     30  H   UNL     1      50.574   7.540  17.145  0.00  0.00    +0.000 HD
ENDBRANCH  20  27
ENDBRANCH  19  23
ENDBRANCH   1  19
TORSDOF 6
ENDMDL
