MODEL 1
REMARK VINA RESULT:    -7.801      0.000      0.000
REMARK INTER + INTRA:         -12.772
REMARK INTER:                 -11.449
REMARK INTRA:                  -1.323
REMARK UNBOUND:                -1.323
REMARK  Name = 
REMARK  9 active torsions:
REMARK  status: ('A' for Active; 'I' for Inactive)
REMARK    1  A    between atoms: C_1  and  C_2
REMARK    2  A    between atoms: C_2  and  C_3
REMARK    3  A    between atoms: C_3  and  N_4
REMARK    4  A    between atoms: C_10  and  C_11
REMARK    5  A    between atoms: N_13  and  C_14
REMARK    6  A    between atoms: C_14  and  C_15
REMARK    7  A    between atoms: C_18  and  C_19
REMARK    8  A    between atoms: C_19  and  N_20
REMARK    9  A    between atoms: C_21  and  C_23
REMARK                            x       y       z     vdW  Elec       q    Type
REMARK                         _______ _______ _______ _____ _____    ______ ____
ROOT
ATOM      1  C   UNL     1      46.526   8.573  13.073  0.00  0.00    +0.000 C 
ENDROOT
BRANCH   1   2
ATOM      2  C   UNL     1      45.891   7.285  12.605  0.00  0.00    +0.000 A 
ATOM      3  C   UNL     1      44.728   7.307  11.824  0.00  0.00    +0.000 A 
ATOM      4  C   UNL     1      44.132   6.116  11.387  0.00  0.00    +0.000 A 
ATOM      5  C   UNL     1      44.675   4.875  11.745  0.00  0.00    +0.000 A 
ATOM      6  C   UNL     1      45.834   4.852  12.530  0.00  0.00    +0.000 A 
ATOM      7  C   UNL     1      46.431   6.043  12.964  0.00  0.00    +0.000 A 
BRANCH   5   8
ATOM      8  C   UNL     1      44.043   3.588  11.275  0.00  0.00    +0.000 C 
BRANCH   8   9
ATOM      9  N   UNL     1      44.889   2.896  10.337  0.00  0.00    +0.000 N 
ATOM     10  C   UNL     1      44.935   3.247   9.004  0.00  0.00    +0.000 C 
ATOM     11  O   UNL     1      44.243   4.149   8.540  0.00  0.00    +0.000 OA
ATOM     12  H   UNL     1      45.510   2.181  10.686  0.00  0.00    +0.000 HD
BRANCH  10  13
ATOM     13  C   UNL     1      45.861   2.483   8.198  0.00  0.00    +0.000 A 
ATOM     14  C   UNL     1      46.726   2.846   7.176  0.00  0.00    +0.000 A 
ATOM     15  C   UNL     1      47.392   1.683   6.722  0.00  0.00    +0.000 A 
ATOM     16  C   UNL     1      46.935   0.631   7.478  0.00  0.00    +0.000 A 
ATOM     17  N   UNL     1      46.021   1.121   8.372  0.00  0.00    +0.000 N 
ATOM     18  H   UNL     1      45.518   0.579   9.065  0.00  0.00    +0.000 HD
ENDBRANCH  10  13
ENDBRANCH   8   9
ENDBRANCH   5   8
ENDBRANCH   1   2
BRANCH   1  21
ATOM     19  C   UNL     1      48.256   8.953  14.771  0.00  0.00    +0.000 C 
ATOM     20  O   UNL     1      49.053   9.376  13.938  0.00  0.00    +0.000 OA
ATOM     21  N   UNL     1      47.024   8.454  14.421  0.00  0.00    +0.000 N 
ATOM     22  H   UNL     1      46.323   8.357  15.146  0.00  0.00    +0.000 HD
BRANCH  19  29
ATOM     23  N   UNL     1      49.501   5.571  17.756  0.00  0.00    +0.000 N 
ATOM     24  C   UNL     1      49.728   6.092  19.018  0.00  0.00    +0.000 A 
ATOM     25  N   UNL     1      49.603   7.336  19.352  0.00  0.00    +0.000 NA
ATOM     26  C   UNL     1      49.226   8.155  18.340  0.00  0.00    +0.000 A 
ATOM     27  S   UNL     1      49.034   9.829  18.586  0.00  0.00    +0.000 S 
ATOM     28  C   UNL     1      48.573  10.072  16.960  0.00  0.00    +0.000 A 
ATOM     29  C   UNL     1      48.590   8.911  16.200  0.00  0.00    +0.000 A 
ATOM     30  C   UNL     1      48.952   7.789  17.039  0.00  0.00    +0.000 A 
ATOM     31  C   UNL     1      49.049   6.379  16.718  0.00  0.00    +0.000 A 
ATOM     32  O   UNL     1      48.760   5.940  15.608  0.00  0.00    +0.000 OA
BRANCH  23  33
ATOM     33  C   UNL     1      49.690   4.148  17.502  0.00  0.00    +0.000 C 
BRANCH  33  35
ATOM     34  C   UNL     1      47.335   3.171  17.459  0.00  0.00    +0.000 C 
ATOM     35  C   UNL     1      48.657   3.257  18.206  0.00  0.00    +0.000 C 
ENDBRANCH  33  35
ENDBRANCH  23  33
ENDBRANCH  19  29
ENDBRANCH   1  21
TORSDOF 8
ENDMDL
MODEL 2
REMARK VINA RESULT:    -7.359      4.370      9.590
REMARK INTER + INTRA:         -12.123
REMARK INTER:                 -11.648
REMARK INTRA:                  -0.474
REMARK UNBOUND:                -1.323
REMARK  Name = 
REMARK  9 active torsions:
REMARK  status: ('A' for Active; 'I' for Inactive)
REMARK    1  A    between atoms: C_1  and  C_2
REMARK    2  A    between atoms: C_2  and  C_3
REMARK    3  A    between atoms: C_3  and  N_4
REMARK    4  A    between atoms: C_10  and  C_11
REMARK    5  A    between atoms: N_13  and  C_14
REMARK    6  A    between atoms: C_14  and  C_15
REMARK    7  A    between atoms: C_18  and  C_19
REMARK    8  A    between atoms: C_19  and  N_20
REMARK    9  A    between atoms: C_21  and  C_23
REMARK                            x       y       z     vdW  Elec       q    Type
REMARK                         _______ _______ _______ _____ _____    ______ ____
ROOT
ATOM      1  C   UNL     1      47.470   3.782  17.262  0.00  0.00    +0.000 C 
ENDROOT
BRANCH   1   2
ATOM      2  C   UNL     1      48.927   3.442  17.466  0.00  0.00    +0.000 A 
ATOM      3  C   UNL     1      49.822   4.405  17.952  0.00  0.00    +0.000 A 
ATOM      4  C   UNL     1      51.175   4.097  18.143  0.00  0.00    +0.000 A 
ATOM      5  C   UNL     1      51.668   2.824  17.827  0.00  0.00    +0.000 A 
ATOM      6  C   UNL     1      50.775   1.863  17.336  0.00  0.00    +0.000 A 
ATOM      7  C   UNL     1      49.422   2.171  17.148  0.00  0.00    +0.000 A 
BRANCH   5   8
ATOM      8  C   UNL     1      53.123   2.483  18.034  0.00  0.00    +0.000 C 
BRANCH   8   9
ATOM      9  N   UNL     1      53.289   1.118  18.466  0.00  0.00    +0.000 N 
ATOM     10  C   UNL     1      54.060   0.221  17.756  0.00  0.00    +0.000 C 
ATOM     11  O   UNL     1      54.625   0.527  16.710  0.00  0.00    +0.000 OA
ATOM     12  H   UNL     1      52.881   0.839  19.345  0.00  0.00    +0.000 HD
BRANCH  10  13
ATOM     13  C   UNL     1      54.159  -1.099  18.338  0.00  0.00    +0.000 A 
ATOM     14  C   UNL     1      55.188  -2.030  18.365  0.00  0.00    +0.000 A 
ATOM     15  C   UNL     1      54.733  -3.174  19.063  0.00  0.00    +0.000 A 
ATOM     16  C   UNL     1      53.442  -2.924  19.460  0.00  0.00    +0.000 A 
ATOM     17  N   UNL     1      53.106  -1.668  19.029  0.00  0.00    +0.000 N 
ATOM     18  H   UNL     1      52.217  -1.207  19.179  0.00  0.00    +0.000 HD
ENDBRANCH  10  13
ENDBRANCH   8   9
ENDBRANCH   5   8
ENDBRANCH   1   2
BRANCH   1  21
ATOM     19  C   UNL     1      47.273   4.254  14.862  0.00  0.00    +0.000 C 
ATOM     20  O   UNL     1      47.558   3.098  14.559  0.00  0.00    +0.000 OA
ATOM     21  N   UNL     1      47.293   4.698  16.162  0.00  0.00    +0.000 N 
ATOM     22  H   UNL     1      46.816   5.566  16.380  0.00  0.00    +0.000 HD
BRANCH  19  29
ATOM     23  N   UNL     1      44.755   4.201  10.918  0.00  0.00    +0.000 N 
ATOM     24  C   UNL     1      44.741   5.453  10.330  0.00  0.00    +0.000 A 
ATOM     25  N   UNL     1      45.346   6.503  10.782  0.00  0.00    +0.000 NA
ATOM     26  C   UNL     1      46.028   6.306  11.937  0.00  0.00    +0.000 A 
ATOM     27  S   UNL     1      46.867   7.580  12.694  0.00  0.00    +0.000 S 
ATOM     28  C   UNL     1      47.404   6.555  13.949  0.00  0.00    +0.000 A 
ATOM     29  C   UNL     1      46.934   5.253  13.841  0.00  0.00    +0.000 A 
ATOM     30  C   UNL     1      46.148   5.122  12.634  0.00  0.00    +0.000 A 
ATOM     31  C   UNL     1      45.502   3.956  12.065  0.00  0.00    +0.000 A 
ATOM     32  O   UNL     1      45.603   2.841  12.571  0.00  0.00    +0.000 OA
BRANCH  23  33
ATOM     33  C   UNL     1      44.018   3.096  10.315  0.00  0.00    +0.000 C 
BRANCH  33  35
ATOM     34  C   UNL     1      45.566   1.771   8.782  0.00  0.00    +0.000 C 
ATOM     35  C   UNL     1      44.442   2.792   8.872  0.00  0.00    +0.000 C 
ENDBRANCH  33  35
ENDBRANCH  23  33
ENDBRANCH  19  29
ENDBRANCH   1  21
TORSDOF 8
ENDMDL
MODEL 3
REMARK VINA RESULT:    -7.286      4.579      8.331
REMARK INTER + INTRA:         -12.016
REMARK INTER:                 -10.808
REMARK INTRA:                  -1.208
REMARK UNBOUND:                -1.323
REMARK  Name = 
REMARK  9 active torsions:
REMARK  status: ('A' for Active; 'I' for Inactive)
REMARK    1  A    between atoms: C_1  and  C_2
REMARK    2  A    between atoms: C_2  and  C_3
REMARK    3  A    between atoms: C_3  and  N_4
REMARK    4  A    between atoms: C_10  and  C_11
REMARK    5  A    between atoms: N_13  and  C_14
REMARK    6  A    between atoms: C_14  and  C_15
REMARK    7  A    between atoms: C_18  and  C_19
REMARK    8  A    between atoms: C_19  and  N_20
REMARK    9  A    between atoms: C_21  and  C_23
REMARK                            x       y       z     vdW  Elec       q    Type
REMARK                         _______ _______ _______ _____ _____    ______ ____
ROOT
ATOM      1  C   UNL     1      46.263   8.328  12.735  0.00  0.00    +0.000 C 
ENDROOT
BRANCH   1   2
ATOM      2  C   UNL     1      47.702   8.445  12.294  0.00  0.00    +0.000 A 
ATOM      3  C   UNL     1      48.529   7.314  12.253  0.00  0.00    +0.000 A 
ATOM      4  C   UNL     1      49.866   7.415  11.846  0.00  0.00    +0.000 A 
ATOM      5  C   UNL     1      50.413   8.657  11.497  0.00  0.00    +0.000 A 
ATOM      6  C   UNL     1      49.588   9.789  11.544  0.00  0.00    +0.000 A 
ATOM      7  C   UNL     1      48.251   9.686  11.948  0.00  0.00    +0.000 A 
BRANCH   5   8
ATOM      8  C   UNL     1      51.850   8.775  11.053  0.00  0.00    +0.000 C 
BRANCH   8   9
ATOM      9  N   UNL     1      52.129   7.915   9.932  0.00  0.00    +0.000 N 
ATOM     10  C   UNL     1      53.150   6.987   9.966  0.00  0.00    +0.000 C 
ATOM     11  O   UNL     1      53.889   6.861  10.938  0.00  0.00    +0.000 OA
ATOM     12  H   UNL     1      51.516   7.953   9.132  0.00  0.00    +0.000 HD
BRANCH  10  13
ATOM     13  C   UNL     1      53.279   6.173   8.777  0.00  0.00    +0.000 A 
ATOM     14  C   UNL     1      52.723   6.280   7.510  0.00  0.00    +0.000 A 
ATOM     15  C   UNL     1      53.180   5.191   6.731  0.00  0.00    +0.000 A 
ATOM     16  C   UNL     1      54.014   4.442   7.526  0.00  0.00    +0.000 A 
ATOM     17  N   UNL     1      54.077   5.045   8.754  0.00  0.00    +0.000 N 
ATOM     18  H   UNL     1      54.619   4.723   9.547  0.00  0.00    +0.000 HD
ENDBRANCH  10  13
ENDBRANCH   8   9
ENDBRANCH   5   8
ENDBRANCH   1   2
BRANCH   1  21
ATOM     19  C   UNL     1      44.743   6.705  11.697  0.00  0.00    +0.000 C 
ATOM     20  O   UNL     1      44.094   7.589  11.144  0.00  0.00    +0.000 OA
ATOM     21  N   UNL     1      45.770   6.983  12.567  0.00  0.00    +0.000 N 
ATOM     22  H   UNL     1      46.421   6.240  12.793  0.00  0.00    +0.000 HD
BRANCH  19  29
ATOM     23  N   UNL     1      45.739   3.555   8.383  0.00  0.00    +0.000 N 
ATOM     24  C   UNL     1      45.204   2.320   8.705  0.00  0.00    +0.000 A 
ATOM     25  N   UNL     1      44.507   2.055   9.762  0.00  0.00    +0.000 NA
ATOM     26  C   UNL     1      44.325   3.109  10.595  0.00  0.00    +0.000 A 
ATOM     27  S   UNL     1      43.454   2.944  12.049  0.00  0.00    +0.000 S 
ATOM     28  C   UNL     1      43.671   4.594  12.433  0.00  0.00    +0.000 A 
ATOM     29  C   UNL     1      44.430   5.284  11.497  0.00  0.00    +0.000 A 
ATOM     30  C   UNL     1      44.782   4.397  10.410  0.00  0.00    +0.000 A 
ATOM     31  C   UNL     1      45.510   4.667   9.186  0.00  0.00    +0.000 A 
ATOM     32  O   UNL     1      45.901   5.794   8.893  0.00  0.00    +0.000 OA
BRANCH  23  33
ATOM     33  C   UNL     1      46.520   3.723   7.164  0.00  0.00    +0.000 C 
BRANCH  33  35
ATOM     34  C   UNL     1      48.291   2.002   6.523  0.00  0.00    +0.000 C 
ATOM     35  C   UNL     1      46.825   2.402   6.444  0.00  0.00    +0.000 C 
ENDBRANCH  33  35
ENDBRANCH  23  33
ENDBRANCH  19  29
ENDBRANCH   1  21
TORSDOF 8
ENDMDL
MODEL 4
REMARK VINA RESULT:    -7.075      3.102      9.322
REMARK INTER + INTRA:         -11.707
REMARK INTER:                 -10.561
REMARK INTRA:                  -1.146
REMARK UNBOUND:                -1.323
REMARK  Name = 
REMARK  9 active torsions:
REMARK  status: ('A' for Active; 'I' for Inactive)
REMARK    1  A    between atoms: C_1  and  C_2
REMARK    2  A    between atoms: C_2  and  C_3
REMARK    3  A    between atoms: C_3  and  N_4
REMARK    4  A    between atoms: C_10  and  C_11
REMARK    5  A    between atoms: N_13  and  C_14
REMARK    6  A    between atoms: C_14  and  C_15
REMARK    7  A    between atoms: C_18  and  C_19
REMARK    8  A    between atoms: C_19  and  N_20
REMARK    9  A    between atoms: C_21  and  C_23
REMARK                            x       y       z     vdW  Elec       q    Type
REMARK                         _______ _______ _______ _____ _____    ______ ____
ROOT
ATOM      1  C   UNL     1      47.630   7.594  11.889  0.00  0.00    +0.000 C 
ENDROOT
BRANCH   1   2
ATOM      2  C   UNL     1      48.578   7.522  13.062  0.00  0.00    +0.000 A 
ATOM      3  C   UNL     1      48.222   6.822  14.224  0.00  0.00    +0.000 A 
ATOM      4  C   UNL     1      49.095   6.751  15.317  0.00  0.00    +0.000 A 
ATOM      5  C   UNL     1      50.336   7.402  15.281  0.00  0.00    +0.000 A 
ATOM      6  C   UNL     1      50.690   8.106  14.123  0.00  0.00    +0.000 A 
ATOM      7  C   UNL     1      49.817   8.174  13.029  0.00  0.00    +0.000 A 
BRANCH   5   8
ATOM      8  C   UNL     1      51.285   7.328  16.451  0.00  0.00    +0.000 C 
BRANCH   8   9
ATOM      9  N   UNL     1      51.791   5.992  16.637  0.00  0.00    +0.000 N 
ATOM     10  C   UNL     1      51.394   5.207  17.700  0.00  0.00    +0.000 C 
ATOM     11  O   UNL     1      50.611   5.609  18.555  0.00  0.00    +0.000 OA
ATOM     12  H   UNL     1      52.399   5.605  15.932  0.00  0.00    +0.000 HD
BRANCH  10  13
ATOM     13  C   UNL     1      51.961   3.877  17.727  0.00  0.00    +0.000 A 
ATOM     14  C   UNL     1      51.391   2.618  17.595  0.00  0.00    +0.000 A 
ATOM     15  C   UNL     1      52.416   1.651  17.721  0.00  0.00    +0.000 A 
ATOM     16  C   UNL     1      53.595   2.329  17.916  0.00  0.00    +0.000 A 
ATOM     17  N   UNL     1      53.315   3.669  17.908  0.00  0.00    +0.000 N 
ATOM     18  H   UNL     1      53.989   4.417  18.024  0.00  0.00    +0.000 HD
ENDBRANCH  10  13
ENDBRANCH   8   9
ENDBRANCH   5   8
ENDBRANCH   1   2
BRANCH   1  21
ATOM     19  C   UNL     1      45.507   6.373  11.746  0.00  0.00    +0.000 C 
ATOM     20  O   UNL     1      44.853   7.374  12.029  0.00  0.00    +0.000 OA
ATOM     21  N   UNL     1      46.881   6.370  11.742  0.00  0.00    +0.000 N 
ATOM     22  H   UNL     1      47.358   5.612  11.268  0.00  0.00    +0.000 HD
BRANCH  19  29
ATOM     23  N   UNL     1      45.526   3.480   8.068  0.00  0.00    +0.000 N 
ATOM     24  C   UNL     1      44.735   2.371   8.313  0.00  0.00    +0.000 A 
ATOM     25  N   UNL     1      44.062   2.152   9.396  0.00  0.00    +0.000 NA
ATOM     26  C   UNL     1      44.186   3.118  10.340  0.00  0.00    +0.000 A 
ATOM     27  S   UNL     1      43.391   2.990  11.840  0.00  0.00    +0.000 S 
ATOM     28  C   UNL     1      44.014   4.492  12.362  0.00  0.00    +0.000 A 
ATOM     29  C   UNL     1      44.855   5.093  11.436  0.00  0.00    +0.000 A 
ATOM     30  C   UNL     1      44.921   4.280  10.242  0.00  0.00    +0.000 A 
ATOM     31  C   UNL     1      45.616   4.515   8.992  0.00  0.00    +0.000 A 
ATOM     32  O   UNL     1      46.243   5.549   8.777  0.00  0.00    +0.000 OA
BRANCH  23  33
ATOM     33  C   UNL     1      46.249   3.604   6.808  0.00  0.00    +0.000 C 
BRANCH  33  35
ATOM     34  C   UNL     1      47.974   1.726   6.872  0.00  0.00    +0.000 C 
ATOM     35  C   UNL     1      46.703   2.257   6.227  0.00  0.00    +0.000 C 
ENDBRANCH  33  35
ENDBRANCH  23  33
ENDBRANCH  19  29
ENDBRANCH   1  21
TORSDOF 8
ENDMDL
MODEL 5
REMARK VINA RESULT:    -6.880      4.380      9.081
REMARK INTER + INTRA:         -11.421
REMARK INTER:                 -10.031
REMARK INTRA:                  -1.390
REMARK UNBOUND:                -1.323
REMARK  Name = 
REMARK  9 active torsions:
REMARK  status: ('A' for Active; 'I' for Inactive)
REMARK    1  A    between atoms: C_1  and  C_2
REMARK    2  A    between atoms: C_2  and  C_3
REMARK    3  A    between atoms: C_3  and  N_4
REMARK    4  A    between atoms: C_10  and  C_11
REMARK    5  A    between atoms: N_13  and  C_14
REMARK    6  A    between atoms: C_14  and  C_15
REMARK    7  A    between atoms: C_18  and  C_19
REMARK    8  A    between atoms: C_19  and  N_20
REMARK    9  A    between atoms: C_21  and  C_23
REMARK                            x       y       z     vdW  Elec       q    Type
REMARK                         _______ _______ _______ _____ _____    ______ ____
ROOT
ATOM      1  C   UNL     1      47.272   3.710  16.901  0.00  0.00    +0.000 C 
ENDROOT
BRANCH   1   2
ATOM      2  C   UNL     1      48.723   3.413  17.194  0.00  0.00    +0.000 A 
ATOM      3  C   UNL     1      49.549   4.390  17.768  0.00  0.00    +0.000 A 
ATOM      4  C   UNL     1      50.897   4.122  18.041  0.00  0.00    +0.000 A 
ATOM      5  C   UNL     1      51.455   2.878  17.721  0.00  0.00    +0.000 A 
ATOM      6  C   UNL     1      50.632   1.903  17.142  0.00  0.00    +0.000 A 
ATOM      7  C   UNL     1      49.284   2.171  16.872  0.00  0.00    +0.000 A 
BRANCH   5   8
ATOM      8  C   UNL     1      52.904   2.579  18.016  0.00  0.00    +0.000 C 
BRANCH   8   9
ATOM      9  N   UNL     1      53.076   1.240  18.518  0.00  0.00    +0.000 N 
ATOM     10  C   UNL     1      53.881   0.321  17.875  0.00  0.00    +0.000 C 
ATOM     11  O   UNL     1      54.472   0.585  16.832  0.00  0.00    +0.000 OA
ATOM     12  H   UNL     1      52.647   0.996  19.397  0.00  0.00    +0.000 HD
BRANCH  10  13
ATOM     13  C   UNL     1      53.980  -0.968  18.523  0.00  0.00    +0.000 A 
ATOM     14  C   UNL     1      55.059  -1.805  18.768  0.00  0.00    +0.000 A 
ATOM     15  C   UNL     1      54.581  -2.963  19.426  0.00  0.00    +0.000 A 
ATOM     16  C   UNL     1      53.225  -2.814  19.583  0.00  0.00    +0.000 A 
ATOM     17  N   UNL     1      52.871  -1.605  19.046  0.00  0.00    +0.000 N 
ATOM     18  H   UNL     1      51.936  -1.217  19.020  0.00  0.00    +0.000 HD
ENDBRANCH  10  13
ENDBRANCH   8   9
ENDBRANCH   5   8
ENDBRANCH   1   2
BRANCH   1  21
ATOM     19  C   UNL     1      47.042   4.337  14.541  0.00  0.00    +0.000 C 
ATOM     20  O   UNL     1      47.224   3.183  14.163  0.00  0.00    +0.000 OA
ATOM     21  N   UNL     1      47.137   4.701  15.862  0.00  0.00    +0.000 N 
ATOM     22  H   UNL     1      46.739   5.589  16.145  0.00  0.00    +0.000 HD
BRANCH  19  29
ATOM     23  N   UNL     1      49.311   8.192  13.166  0.00  0.00    +0.000 N 
ATOM     24  C   UNL     1      48.584   8.870  12.203  0.00  0.00    +0.000 A 
ATOM     25  N   UNL     1      47.428   8.515  11.744  0.00  0.00    +0.000 NA
ATOM     26  C   UNL     1      46.939   7.368  12.278  0.00  0.00    +0.000 A 
ATOM     27  S   UNL     1      45.441   6.732  11.778  0.00  0.00    +0.000 S 
ATOM     28  C   UNL     1      45.572   5.420  12.864  0.00  0.00    +0.000 A 
ATOM     29  C   UNL     1      46.755   5.419  13.590  0.00  0.00    +0.000 A 
ATOM     30  C   UNL     1      47.534   6.590  13.249  0.00  0.00    +0.000 A 
ATOM     31  C   UNL     1      48.801   7.052  13.778  0.00  0.00    +0.000 A 
ATOM     32  O   UNL     1      49.380   6.469  14.691  0.00  0.00    +0.000 OA
BRANCH  23  33
ATOM     33  C   UNL     1      50.614   8.690  13.591  0.00  0.00    +0.000 C 
BRANCH  33  35
ATOM     34  C   UNL     1      50.749   9.606  15.967  0.00  0.00    +0.000 C 
ATOM     35  C   UNL     1      50.531   9.927  14.496  0.00  0.00    +0.000 C 
ENDBRANCH  33  35
ENDBRANCH  23  33
ENDBRANCH  19  29
ENDBRANCH   1  21
TORSDOF 8
ENDMDL
MODEL 6
REMARK VINA RESULT:    -6.850      2.697      9.541
REMARK INTER + INTRA:         -11.377
REMARK INTER:                 -10.215
REMARK INTRA:                  -1.163
REMARK UNBOUND:                -1.323
REMARK  Name = 
REMARK  9 active torsions:
REMARK  status: ('A' for Active; 'I' for Inactive)
REMARK    1  A    between atoms: C_1  and  C_2
REMARK    2  A    between atoms: C_2  and  C_3
REMARK    3  A    between atoms: C_3  and  N_4
REMARK    4  A    between atoms: C_10  and  C_11
REMARK    5  A    between atoms: N_13  and  C_14
REMARK    6  A    between atoms: C_14  and  C_15
REMARK    7  A    between atoms: C_18  and  C_19
REMARK    8  A    between atoms: C_19  and  N_20
REMARK    9  A    between atoms: C_21  and  C_23
REMARK                            x       y       z     vdW  Elec       q    Type
REMARK                         _______ _______ _______ _____ _____    ______ ____
ROOT
ATOM      1  C   UNL     1      47.999   7.812  11.773  0.00  0.00    +0.000 C 
ENDROOT
BRANCH   1   2
ATOM      2  C   UNL     1      48.563   8.137  13.136  0.00  0.00    +0.000 A 
ATOM      3  C   UNL     1      47.998   9.156  13.916  0.00  0.00    +0.000 A 
ATOM      4  C   UNL     1      48.516   9.464  15.181  0.00  0.00    +0.000 A 
ATOM      5  C   UNL     1      49.628   8.774  15.683  0.00  0.00    +0.000 A 
ATOM      6  C   UNL     1      50.196   7.759  14.901  0.00  0.00    +0.000 A 
ATOM      7  C   UNL     1      49.676   7.451  13.638  0.00  0.00    +0.000 A 
BRANCH   5   8
ATOM      8  C   UNL     1      50.190   9.096  17.046  0.00  0.00    +0.000 C 
BRANCH   8   9
ATOM      9  N   UNL     1      50.096   7.966  17.935  0.00  0.00    +0.000 N 
ATOM     10  C   UNL     1      48.941   7.689  18.637  0.00  0.00    +0.000 C 
ATOM     11  O   UNL     1      47.943   8.400  18.563  0.00  0.00    +0.000 OA
ATOM     12  H   UNL     1      50.877   7.330  17.989  0.00  0.00    +0.000 HD
BRANCH  10  13
ATOM     13  C   UNL     1      48.992   6.501  19.459  0.00  0.00    +0.000 A 
ATOM     14  C   UNL     1      48.268   5.317  19.431  0.00  0.00    +0.000 A 
ATOM     15  C   UNL     1      48.721   4.493  20.488  0.00  0.00    +0.000 A 
ATOM     16  C   UNL     1      49.719   5.177  21.139  0.00  0.00    +0.000 A 
ATOM     17  N   UNL     1      49.884   6.381  20.508  0.00  0.00    +0.000 N 
ATOM     18  H   UNL     1      50.554   7.098  20.761  0.00  0.00    +0.000 HD
ENDBRANCH  10  13
ENDBRANCH   8   9
ENDBRANCH   5   8
ENDBRANCH   1   2
BRANCH   1  21
ATOM     19  C   UNL     1      45.794   6.737  11.762  0.00  0.00    +0.000 C 
ATOM     20  O   UNL     1      45.210   7.815  11.834  0.00  0.00    +0.000 OA
ATOM     21  N   UNL     1      47.163   6.637  11.816  0.00  0.00    +0.000 N 
ATOM     22  H   UNL     1      47.594   5.775  11.505  0.00  0.00    +0.000 HD
BRANCH  19  29
ATOM     23  N   UNL     1      45.342   3.455   8.456  0.00  0.00    +0.000 N 
ATOM     24  C   UNL     1      44.524   2.430   8.894  0.00  0.00    +0.000 A 
ATOM     25  N   UNL     1      43.940   2.372  10.047  0.00  0.00    +0.000 NA
ATOM     26  C   UNL     1      44.195   3.428  10.859  0.00  0.00    +0.000 A 
ATOM     27  S   UNL     1      43.533   3.515  12.425  0.00  0.00    +0.000 S 
ATOM     28  C   UNL     1      44.273   5.027  12.715  0.00  0.00    +0.000 A 
ATOM     29  C   UNL     1      45.056   5.471  11.658  0.00  0.00    +0.000 A 
ATOM     30  C   UNL     1      44.975   4.527  10.565  0.00  0.00    +0.000 A 
ATOM     31  C   UNL     1      45.565   4.581   9.243  0.00  0.00    +0.000 A 
ATOM     32  O   UNL     1      46.220   5.546   8.858  0.00  0.00    +0.000 OA
BRANCH  23  33
ATOM     33  C   UNL     1      45.954   3.395   7.134  0.00  0.00    +0.000 C 
BRANCH  33  35
ATOM     34  C   UNL     1      47.738   2.329   5.655  0.00  0.00    +0.000 C 
ATOM     35  C   UNL     1      47.080   2.357   7.026  0.00  0.00    +0.000 C 
ENDBRANCH  33  35
ENDBRANCH  23  33
ENDBRANCH  19  29
ENDBRANCH   1  21
TORSDOF 8
ENDMDL
MODEL 7
REMARK VINA RESULT:    -6.298      2.679      4.102
REMARK INTER + INTRA:         -10.566
REMARK INTER:                  -9.527
REMARK INTRA:                  -1.040
REMARK UNBOUND:                -1.323
REMARK  Name = 
REMARK  9 active torsions:
REMARK  status: ('A' for Active; 'I' for Inactive)
REMARK    1  A    between atoms: C_1  and  C_2
REMARK    2  A    between atoms: C_2  and  C_3
REMARK    3  A    between atoms: C_3  and  N_4
REMARK    4  A    between atoms: C_10  and  C_11
REMARK    5  A    between atoms: N_13  and  C_14
REMARK    6  A    between atoms: C_14  and  C_15
REMARK    7  A    between atoms: C_18  and  C_19
REMARK    8  A    between atoms: C_19  and  N_20
REMARK    9  A    between atoms: C_21  and  C_23
REMARK                            x       y       z     vdW  Elec       q    Type
REMARK                         _______ _______ _______ _____ _____    ______ ____
ROOT
ATOM      1  C   UNL     1      47.134   4.613  15.492  0.00  0.00    +0.000 C 
ENDROOT
BRANCH   1   2
ATOM      2  C   UNL     1      46.492   4.712  14.129  0.00  0.00    +0.000 A 
ATOM      3  C   UNL     1      46.399   5.948  13.473  0.00  0.00    +0.000 A 
ATOM      4  C   UNL     1      45.804   6.048  12.209  0.00  0.00    +0.000 A 
ATOM      5  C   UNL     1      45.264   4.916  11.583  0.00  0.00    +0.000 A 
ATOM      6  C   UNL     1      45.351   3.682  12.241  0.00  0.00    +0.000 A 
ATOM      7  C   UNL     1      45.949   3.582  13.503  0.00  0.00    +0.000 A 
BRANCH   5   8
ATOM      8  C   UNL     1      44.625   5.014  10.221  0.00  0.00    +0.000 C 
BRANCH   8   9
ATOM      9  N   UNL     1      45.466   4.442   9.200  0.00  0.00    +0.000 N 
ATOM     10  C   UNL     1      45.234   3.183   8.689  0.00  0.00    +0.000 C 
ATOM     11  O   UNL     1      44.317   2.472   9.090  0.00  0.00    +0.000 OA
ATOM     12  H   UNL     1      46.202   5.011   8.809  0.00  0.00    +0.000 HD
BRANCH  10  13
ATOM     13  C   UNL     1      46.143   2.766   7.644  0.00  0.00    +0.000 A 
ATOM     14  C   UNL     1      46.522   3.359   6.449  0.00  0.00    +0.000 A 
ATOM     15  C   UNL     1      47.437   2.499   5.796  0.00  0.00    +0.000 A 
ATOM     16  C   UNL     1      47.612   1.401   6.604  0.00  0.00    +0.000 A 
ATOM     17  N   UNL     1      46.838   1.574   7.720  0.00  0.00    +0.000 N 
ATOM     18  H   UNL     1      46.765   0.929   8.498  0.00  0.00    +0.000 HD
ENDBRANCH  10  13
ENDBRANCH   8   9
ENDBRANCH   5   8
ENDBRANCH   1   2
BRANCH   1  21
ATOM     19  C   UNL     1      48.920   5.876  16.602  0.00  0.00    +0.000 C 
ATOM     20  O   UNL     1      48.206   6.139  17.566  0.00  0.00    +0.000 OA
ATOM     21  N   UNL     1      48.448   5.207  15.498  0.00  0.00    +0.000 N 
ATOM     22  H   UNL     1      49.122   4.803  14.858  0.00  0.00    +0.000 HD
BRANCH  19  29
ATOM     23  N   UNL     1      51.415   8.606  13.734  0.00  0.00    +0.000 N 
ATOM     24  C   UNL     1      52.727   8.696  14.163  0.00  0.00    +0.000 A 
ATOM     25  N   UNL     1      53.222   8.104  15.201  0.00  0.00    +0.000 NA
ATOM     26  C   UNL     1      52.333   7.352  15.896  0.00  0.00    +0.000 A 
ATOM     27  S   UNL     1      52.796   6.517  17.306  0.00  0.00    +0.000 S 
ATOM     28  C   UNL     1      51.227   5.875  17.510  0.00  0.00    +0.000 A 
ATOM     29  C   UNL     1      50.324   6.305  16.548  0.00  0.00    +0.000 A 
ATOM     30  C   UNL     1      51.002   7.153  15.591  0.00  0.00    +0.000 A 
ATOM     31  C   UNL     1      50.501   7.788  14.390  0.00  0.00    +0.000 A 
ATOM     32  O   UNL     1      49.351   7.621  13.993  0.00  0.00    +0.000 OA
BRANCH  23  33
ATOM     33  C   UNL     1      50.976   9.337  12.551  0.00  0.00    +0.000 C 
BRANCH  33  35
ATOM     34  C   UNL     1      52.030   7.861  10.758  0.00  0.00    +0.000 C 
ATOM     35  C   UNL     1      50.744   8.439  11.328  0.00  0.00    +0.000 C 
ENDBRANCH  33  35
ENDBRANCH  23  33
ENDBRANCH  19  29
ENDBRANCH   1  21
TORSDOF 8
ENDMDL
MODEL 8
REMARK VINA RESULT:    -5.144     10.429     13.019
REMARK INTER + INTRA:          -8.873
REMARK INTER:                  -7.155
REMARK INTRA:                  -1.718
REMARK UNBOUND:                -1.323
REMARK  Name = 
REMARK  9 active torsions:
REMARK  status: ('A' for Active; 'I' for Inactive)
REMARK    1  A    between atoms: C_1  and  C_2
REMARK    2  A    between atoms: C_2  and  C_3
REMARK    3  A    between atoms: C_3  and  N_4
REMARK    4  A    between atoms: C_10  and  C_11
REMARK    5  A    between atoms: N_13  and  C_14
REMARK    6  A    between atoms: C_14  and  C_15
REMARK    7  A    between atoms: C_18  and  C_19
REMARK    8  A    between atoms: C_19  and  N_20
REMARK    9  A    between atoms: C_21  and  C_23
REMARK                            x       y       z     vdW  Elec       q    Type
REMARK                         _______ _______ _______ _____ _____    ______ ____
ROOT
ATOM      1  C   UNL     1      37.714  -1.846  11.421  0.00  0.00    +0.000 C 
ENDROOT
BRANCH   1   2
ATOM      2  C   UNL     1      37.351  -0.799  12.447  0.00  0.00    +0.000 A 
ATOM      3  C   UNL     1      37.006   0.500  12.048  0.00  0.00    +0.000 A 
ATOM      4  C   UNL     1      36.669   1.477  12.994  0.00  0.00    +0.000 A 
ATOM      5  C   UNL     1      36.697   1.182  14.364  0.00  0.00    +0.000 A 
ATOM      6  C   UNL     1      37.048  -0.114  14.763  0.00  0.00    +0.000 A 
ATOM      7  C   UNL     1      37.381  -1.091  13.816  0.00  0.00    +0.000 A 
BRANCH   5   8
ATOM      8  C   UNL     1      36.331   2.226  15.389  0.00  0.00    +0.000 C 
BRANCH   8   9
ATOM      9  N   UNL     1      37.022   2.008  16.635  0.00  0.00    +0.000 N 
ATOM     10  C   UNL     1      37.854   2.963  17.181  0.00  0.00    +0.000 C 
ATOM     11  O   UNL     1      38.071   4.037  16.626  0.00  0.00    +0.000 OA
ATOM     12  H   UNL     1      36.835   1.159  17.146  0.00  0.00    +0.000 HD
BRANCH  10  13
ATOM     13  C   UNL     1      38.444   2.610  18.453  0.00  0.00    +0.000 A 
ATOM     14  C   UNL     1      38.319   1.485  19.256  0.00  0.00    +0.000 A 
ATOM     15  C   UNL     1      39.114   1.675  20.412  0.00  0.00    +0.000 A 
ATOM     16  C   UNL     1      39.719   2.903  20.294  0.00  0.00    +0.000 A 
ATOM     17  N   UNL     1      39.319   3.456  19.107  0.00  0.00    +0.000 N 
ATOM     18  H   UNL     1      39.607   4.357  18.745  0.00  0.00    +0.000 HD
ENDBRANCH  10  13
ENDBRANCH   8   9
ENDBRANCH   5   8
ENDBRANCH   1   2
BRANCH   1  21
ATOM     19  C   UNL     1      39.879  -2.839  12.009  0.00  0.00    +0.000 C 
ATOM     20  O   UNL     1      40.500  -1.979  11.390  0.00  0.00    +0.000 OA
ATOM     21  N   UNL     1      38.506  -2.901  12.003  0.00  0.00    +0.000 N 
ATOM     22  H   UNL     1      38.048  -3.459  12.715  0.00  0.00    +0.000 HD
BRANCH  19  29
ATOM     23  N   UNL     1      41.273  -3.330  16.449  0.00  0.00    +0.000 N 
ATOM     24  C   UNL     1      41.875  -4.561  16.640  0.00  0.00    +0.000 A 
ATOM     25  N   UNL     1      42.053  -5.461  15.727  0.00  0.00    +0.000 NA
ATOM     26  C   UNL     1      41.582  -5.120  14.502  0.00  0.00    +0.000 A 
ATOM     27  S   UNL     1      41.705  -6.188  13.182  0.00  0.00    +0.000 S 
ATOM     28  C   UNL     1      40.958  -5.068  12.133  0.00  0.00    +0.000 A 
ATOM     29  C   UNL     1      40.572  -3.893  12.762  0.00  0.00    +0.000 A 
ATOM     30  C   UNL     1      40.973  -3.933  14.152  0.00  0.00    +0.000 A 
ATOM     31  C   UNL     1      40.842  -2.929  15.188  0.00  0.00    +0.000 A 
ATOM     32  O   UNL     1      40.377  -1.815  14.964  0.00  0.00    +0.000 OA
BRANCH  23  33
ATOM     33  C   UNL     1      41.119  -2.405  17.566  0.00  0.00    +0.000 C 
BRANCH  33  35
ATOM     34  C   UNL     1      38.644  -2.029  18.057  0.00  0.00    +0.000 C 
ATOM     35  C   UNL     1      39.926  -2.734  18.474  0.00  0.00    +0.000 C 
ENDBRANCH  33  35
ENDBRANCH  23  33
ENDBRANCH  19  29
ENDBRANCH   1  21
TORSDOF 8
ENDMDL
MODEL 9
REMARK VINA RESULT:    -5.058      4.105      9.330
REMARK INTER + INTRA:          -8.746
REMARK INTER:                  -7.461
REMARK INTRA:                  -1.285
REMARK UNBOUND:                -1.323
REMARK  Name = 
REMARK  9 active torsions:
REMARK  status: ('A' for Active; 'I' for Inactive)
REMARK    1  A    between atoms: C_1  and  C_2
REMARK    2  A    between atoms: C_2  and  C_3
REMARK    3  A    between atoms: C_3  and  N_4
REMARK    4  A    between atoms: C_10  and  C_11
REMARK    5  A    between atoms: N_13  and  C_14
REMARK    6  A    between atoms: C_14  and  C_15
REMARK    7  A    between atoms: C_18  and  C_19
REMARK    8  A    between atoms: C_19  and  N_20
REMARK    9  A    between atoms: C_21  and  C_23
REMARK                            x       y       z     vdW  Elec       q    Type
REMARK                         _______ _______ _______ _____ _____    ______ ____
ROOT
ATOM      1  C   UNL     1      47.092   4.296  15.049  0.00  0.00    +0.000 C 
ENDROOT
BRANCH   1   2
ATOM      2  C   UNL     1      47.593   4.375  16.471  0.00  0.00    +0.000 A 
ATOM      3  C   UNL     1      48.056   5.589  16.996  0.00  0.00    +0.000 A 
ATOM      4  C   UNL     1      48.524   5.671  18.315  0.00  0.00    +0.000 A 
ATOM      5  C   UNL     1      48.562   4.531  19.130  0.00  0.00    +0.000 A 
ATOM      6  C   UNL     1      48.104   3.316  18.603  0.00  0.00    +0.000 A 
ATOM      7  C   UNL     1      47.634   3.236  17.286  0.00  0.00    +0.000 A 
BRANCH   5   8
ATOM      8  C   UNL     1      49.059   4.610  20.551  0.00  0.00    +0.000 C 
BRANCH   8   9
ATOM      9  N   UNL     1      50.475   4.360  20.630  0.00  0.00    +0.000 N 
ATOM     10  C   UNL     1      51.390   5.389  20.726  0.00  0.00    +0.000 C 
ATOM     11  O   UNL     1      51.051   6.569  20.724  0.00  0.00    +0.000 OA
ATOM     12  H   UNL     1      50.793   3.405  20.683  0.00  0.00    +0.000 HD
BRANCH  10  13
ATOM     13  C   UNL     1      52.771   4.975  20.835  0.00  0.00    +0.000 A 
ATOM     14  C   UNL     1      53.964   5.674  20.722  0.00  0.00    +0.000 A 
ATOM     15  C   UNL     1      55.032   4.763  20.903  0.00  0.00    +0.000 A 
ATOM     16  C   UNL     1      54.479   3.527  21.134  0.00  0.00    +0.000 A 
ATOM     17  N   UNL     1      53.117   3.664  21.102  0.00  0.00    +0.000 N 
ATOM     18  H   UNL     1      52.442   2.922  21.245  0.00  0.00    +0.000 HD
ENDBRANCH  10  13
ENDBRANCH   8   9
ENDBRANCH   5   8
ENDBRANCH   1   2
BRANCH   1  21
ATOM     19  C   UNL     1      46.388   5.869  13.303  0.00  0.00    +0.000 C 
ATOM     20  O   UNL     1      45.697   5.021  12.745  0.00  0.00    +0.000 OA
ATOM     21  N   UNL     1      47.176   5.576  14.390  0.00  0.00    +0.000 N 
ATOM     22  H   UNL     1      47.521   6.344  14.954  0.00  0.00    +0.000 HD
BRANCH  19  29
ATOM     23  N   UNL     1      49.815   8.654  11.753  0.00  0.00    +0.000 N 
ATOM     24  C   UNL     1      49.312   9.888  11.383  0.00  0.00    +0.000 A 
ATOM     25  N   UNL     1      48.072  10.251  11.462  0.00  0.00    +0.000 NA
ATOM     26  C   UNL     1      47.238   9.297  11.945  0.00  0.00    +0.000 A 
ATOM     27  S   UNL     1      45.566   9.584  12.098  0.00  0.00    +0.000 S 
ATOM     28  C   UNL     1      45.299   8.023  12.737  0.00  0.00    +0.000 A 
ATOM     29  C   UNL     1      46.451   7.252  12.812  0.00  0.00    +0.000 A 
ATOM     30  C   UNL     1      47.586   8.030  12.365  0.00  0.00    +0.000 A 
ATOM     31  C   UNL     1      48.991   7.683  12.313  0.00  0.00    +0.000 A 
ATOM     32  O   UNL     1      49.414   6.606  12.726  0.00  0.00    +0.000 OA
BRANCH  23  33
ATOM     33  C   UNL     1      51.235   8.362  11.601  0.00  0.00    +0.000 C 
BRANCH  33  35
ATOM     34  C   UNL     1      51.899   8.913  14.001  0.00  0.00    +0.000 C 
ATOM     35  C   UNL     1      52.134   9.196  12.525  0.00  0.00    +0.000 C 
ENDBRANCH  33  35
ENDBRANCH  23  33
ENDBRANCH  19  29
ENDBRANCH   1  21
TORSDOF 8
ENDMDL
