MODEL 1
REMARK VINA RESULT:    -8.255      0.000      0.000
REMARK INTER + INTRA:         -13.757
REMARK INTER:                 -12.357
REMARK INTRA:                  -1.401
REMARK UNBOUND:                -1.401
REMARK  Name = 
REMARK  9 active torsions:
REMARK  status: ('A' for Active; 'I' for Inactive)
REMARK    1  A    between atoms: N_1  and  C_2
REMARK    2  A    between atoms: C_2  and  C_3
REMARK    3  A    between atoms: C_2  and  C_24
REMARK    4  A    between atoms: C_3  and  C_4
REMARK    5  A    between atoms: C_7  and  C_8
REMARK    6  A    between atoms: C_8  and  N_9
REMARK    7  A    between atoms: C_10  and  C_12
REMARK    8  A    between atoms: N_26  and  C_27
REMARK    9  A    between atoms: C_27  and  C_28
REMARK                            x       y       z     vdW  Elec       q    Type
REMARK                         _______ _______ _______ _____ _____    ______ ____
ROOT
ATOM      1  C   UNL     1      44.762   6.690  11.503  0.00  0.00    +0.000 A 
ATOM      2  C   UNL     1      44.897   7.919  12.160  0.00  0.00    +0.000 A 
ATOM      3  C   UNL     1      46.130   8.324  12.685  0.00  0.00    +0.000 A 
ATOM      4  C   UNL     1      47.261   7.507  12.558  0.00  0.00    +0.000 A 
ATOM      5  C   UNL     1      47.121   6.267  11.917  0.00  0.00    +0.000 A 
ATOM      6  C   UNL     1      45.889   5.867  11.386  0.00  0.00    +0.000 A 
ENDROOT
BRANCH   1   7
ATOM      7  C   UNL     1      43.408   6.247  10.990  0.00  0.00    +0.000 C 
BRANCH   7   8
ATOM      8  C   UNL     1      42.665   5.182  11.830  0.00  0.00    +0.000 C 
BRANCH   8   9
ATOM      9  C   UNL     1      43.356   3.808  11.633  0.00  0.00    +0.000 C 
ATOM     10  O   UNL     1      43.578   3.030  12.559  0.00  0.00    +0.000 OA
ATOM     11  N   UNL     1      43.712   3.532  10.333  0.00  0.00    +0.000 N 
ATOM     12  H   UNL     1      43.245   4.060   9.601  0.00  0.00    +0.000 HD
BRANCH  11  13
ATOM     13  C   UNL     1      44.319   2.268   9.985  0.00  0.00    +0.000 C 
BRANCH  13  14
ATOM     14  C   UNL     1      45.275   2.468   8.870  0.00  0.00    +0.000 A 
ATOM     15  C   UNL     1      45.581   3.555   8.075  0.00  0.00    +0.000 A 
ATOM     16  C   UNL     1      46.597   3.128   7.187  0.00  0.00    +0.000 A 
ATOM     17  C   UNL     1      46.849   1.813   7.497  0.00  0.00    +0.000 A 
ATOM     18  O   UNL     1      46.054   1.403   8.518  0.00  0.00    +0.000 OA
ENDBRANCH  13  14
ENDBRANCH  11  13
ENDBRANCH   8   9
BRANCH   8  19
ATOM     19  N   UNL     1      42.628   5.481  13.282  0.00  0.00    +0.000 NA
ATOM     20  H   UNL     1      41.983   4.823  13.724  0.00  0.00    +0.000 HD
ATOM     21  H   UNL     1      42.204   6.402  13.413  0.00  0.00    +0.000 HD
ENDBRANCH   8  19
ENDBRANCH   7   8
ENDBRANCH   1   7
BRANCH   4  22
ATOM     22  C   UNL     1      48.596   7.921  13.126  0.00  0.00    +0.000 C 
BRANCH  22  23
ATOM     23  N   UNL     1      48.957   7.125  14.271  0.00  0.00    +0.000 N 
ATOM     24  C   UNL     1      48.721   7.562  15.552  0.00  0.00    +0.000 C 
ATOM     25  O   UNL     1      48.178   8.635  15.789  0.00  0.00    +0.000 OA
ATOM     26  H   UNL     1      49.635   6.386  14.119  0.00  0.00    +0.000 HD
BRANCH  24  27
ATOM     27  C   UNL     1      49.097   6.632  16.626  0.00  0.00    +0.000 A 
ATOM     28  C   UNL     1      50.048   7.009  17.564  0.00  0.00    +0.000 A 
ATOM     29  S   UNL     1      50.317   5.832  18.772  0.00  0.00    +0.000 S 
ATOM     30  C   UNL     1      49.212   4.757  18.047  0.00  0.00    +0.000 A 
ATOM     31  N   UNL     1      48.987   3.523  18.576  0.00  0.00    +0.000 NA
ATOM     32  C   UNL     1      48.145   2.805  17.910  0.00  0.00    +0.000 A 
ATOM     33  N   UNL     1      47.505   3.209  16.766  0.00  0.00    +0.000 N 
ATOM     34  C   UNL     1      47.676   4.456  16.218  0.00  0.00    +0.000 A 
ATOM     35  O   UNL     1      47.046   4.808  15.225  0.00  0.00    +0.000 OA
ATOM     36  C   UNL     1      48.628   5.298  16.921  0.00  0.00    +0.000 A 
ATOM     37  H   UNL     1      46.847   2.604  16.298  0.00  0.00    +0.000 HD
ENDBRANCH  24  27
ENDBRANCH  22  23
ENDBRANCH   4  22
TORSDOF 9
ENDMDL
MODEL 2
REMARK VINA RESULT:    -7.980      2.702      3.416
REMARK INTER + INTRA:         -13.346
REMARK INTER:                 -12.163
REMARK INTRA:                  -1.183
REMARK UNBOUND:                -1.401
REMARK  Name = 
REMARK  9 active torsions:
REMARK  status: ('A' for Active; 'I' for Inactive)
REMARK    1  A    between atoms: N_1  and  C_2
REMARK    2  A    between atoms: C_2  and  C_3
REMARK    3  A    between atoms: C_2  and  C_24
REMARK    4  A    between atoms: C_3  and  C_4
REMARK    5  A    between atoms: C_7  and  C_8
REMARK    6  A    between atoms: C_8  and  N_9
REMARK    7  A    between atoms: C_10  and  C_12
REMARK    8  A    between atoms: N_26  and  C_27
REMARK    9  A    between atoms: C_27  and  C_28
REMARK                            x       y       z     vdW  Elec       q    Type
REMARK                         _______ _______ _______ _____ _____    ______ ____
ROOT
ATOM      1  C   UNL     1      46.764   4.919  13.773  0.00  0.00    +0.000 A 
ATOM      2  C   UNL     1      46.967   4.431  15.070  0.00  0.00    +0.000 A 
ATOM      3  C   UNL     1      47.888   5.037  15.933  0.00  0.00    +0.000 A 
ATOM      4  C   UNL     1      48.624   6.154  15.517  0.00  0.00    +0.000 A 
ATOM      5  C   UNL     1      48.435   6.632  14.212  0.00  0.00    +0.000 A 
ATOM      6  C   UNL     1      47.508   6.029  13.353  0.00  0.00    +0.000 A 
ENDROOT
BRANCH   1   7
ATOM      7  C   UNL     1      45.803   4.217  12.838  0.00  0.00    +0.000 C 
BRANCH   7   8
ATOM      8  C   UNL     1      44.863   5.121  12.006  0.00  0.00    +0.000 C 
BRANCH   8   9
ATOM      9  C   UNL     1      44.314   4.312  10.803  0.00  0.00    +0.000 C 
ATOM     10  O   UNL     1      43.453   4.745  10.040  0.00  0.00    +0.000 OA
ATOM     11  N   UNL     1      44.862   3.057  10.664  0.00  0.00    +0.000 N 
ATOM     12  H   UNL     1      45.751   2.885  11.126  0.00  0.00    +0.000 HD
BRANCH  11  13
ATOM     13  C   UNL     1      44.487   2.204   9.560  0.00  0.00    +0.000 C 
BRANCH  13  14
ATOM     14  C   UNL     1      45.550   2.234   8.527  0.00  0.00    +0.000 A 
ATOM     15  C   UNL     1      46.027   3.228   7.695  0.00  0.00    +0.000 A 
ATOM     16  C   UNL     1      47.068   2.646   6.934  0.00  0.00    +0.000 A 
ATOM     17  C   UNL     1      47.164   1.340   7.350  0.00  0.00    +0.000 A 
ATOM     18  O   UNL     1      46.248   1.079   8.319  0.00  0.00    +0.000 OA
ENDBRANCH  13  14
ENDBRANCH  11  13
ENDBRANCH   8   9
BRANCH   8  19
ATOM     19  N   UNL     1      43.711   5.656  12.773  0.00  0.00    +0.000 NA
ATOM     20  H   UNL     1      42.998   5.954  12.104  0.00  0.00    +0.000 HD
ATOM     21  H   UNL     1      44.008   6.510  13.248  0.00  0.00    +0.000 HD
ENDBRANCH   8  19
ENDBRANCH   7   8
ENDBRANCH   1   7
BRANCH   4  22
ATOM     22  C   UNL     1      49.628   6.816  16.429  0.00  0.00    +0.000 C 
BRANCH  22  23
ATOM     23  N   UNL     1      50.643   5.890  16.862  0.00  0.00    +0.000 N 
ATOM     24  C   UNL     1      50.752   5.508  18.177  0.00  0.00    +0.000 C 
ATOM     25  O   UNL     1      49.986   5.916  19.045  0.00  0.00    +0.000 OA
ATOM     26  H   UNL     1      51.435   5.757  16.243  0.00  0.00    +0.000 HD
BRANCH  24  27
ATOM     27  C   UNL     1      51.802   4.524  18.475  0.00  0.00    +0.000 A 
ATOM     28  C   UNL     1      52.916   4.903  19.211  0.00  0.00    +0.000 A 
ATOM     29  S   UNL     1      54.002   3.621  19.513  0.00  0.00    +0.000 S 
ATOM     30  C   UNL     1      53.046   2.530  18.621  0.00  0.00    +0.000 A 
ATOM     31  N   UNL     1      53.432   1.235  18.457  0.00  0.00    +0.000 NA
ATOM     32  C   UNL     1      52.626   0.527  17.737  0.00  0.00    +0.000 A 
ATOM     33  N   UNL     1      51.468   0.994  17.170  0.00  0.00    +0.000 N 
ATOM     34  C   UNL     1      51.025   2.283  17.337  0.00  0.00    +0.000 A 
ATOM     35  O   UNL     1      49.955   2.656  16.863  0.00  0.00    +0.000 OA
ATOM     36  C   UNL     1      51.906   3.126  18.127  0.00  0.00    +0.000 A 
ATOM     37  H   UNL     1      50.873   0.387  16.627  0.00  0.00    +0.000 HD
ENDBRANCH  24  27
ENDBRANCH  22  23
ENDBRANCH   4  22
TORSDOF 9
ENDMDL
MODEL 3
REMARK VINA RESULT:    -7.705      1.866      2.336
REMARK INTER + INTRA:         -12.934
REMARK INTER:                 -11.945
REMARK INTRA:                  -0.990
REMARK UNBOUND:                -1.401
REMARK  Name = 
REMARK  9 active torsions:
REMARK  status: ('A' for Active; 'I' for Inactive)
REMARK    1  A    between atoms: N_1  and  C_2
REMARK    2  A    between atoms: C_2  and  C_3
REMARK    3  A    between atoms: C_2  and  C_24
REMARK    4  A    between atoms: C_3  and  C_4
REMARK    5  A    between atoms: C_7  and  C_8
REMARK    6  A    between atoms: C_8  and  N_9
REMARK    7  A    between atoms: C_10  and  C_12
REMARK    8  A    between atoms: N_26  and  C_27
REMARK    9  A    between atoms: C_27  and  C_28
REMARK                            x       y       z     vdW  Elec       q    Type
REMARK                         _______ _______ _______ _____ _____    ______ ____
ROOT
ATOM      1  C   UNL     1      46.492   6.586  12.330  0.00  0.00    +0.000 A 
ATOM      2  C   UNL     1      47.237   5.699  13.118  0.00  0.00    +0.000 A 
ATOM      3  C   UNL     1      48.009   6.163  14.189  0.00  0.00    +0.000 A 
ATOM      4  C   UNL     1      48.050   7.528  14.500  0.00  0.00    +0.000 A 
ATOM      5  C   UNL     1      47.320   8.418  13.699  0.00  0.00    +0.000 A 
ATOM      6  C   UNL     1      46.541   7.953  12.633  0.00  0.00    +0.000 A 
ENDROOT
BRANCH   1   7
ATOM      7  C   UNL     1      45.705   6.071  11.143  0.00  0.00    +0.000 C 
BRANCH   7   8
ATOM      8  C   UNL     1      44.204   5.782  11.382  0.00  0.00    +0.000 C 
BRANCH   8   9
ATOM      9  C   UNL     1      43.881   4.345  10.898  0.00  0.00    +0.000 C 
ATOM     10  O   UNL     1      42.916   3.701  11.304  0.00  0.00    +0.000 OA
ATOM     11  N   UNL     1      44.773   3.840   9.980  0.00  0.00    +0.000 N 
ATOM     12  H   UNL     1      45.351   4.508   9.478  0.00  0.00    +0.000 HD
BRANCH  11  13
ATOM     13  C   UNL     1      44.576   2.532   9.398  0.00  0.00    +0.000 C 
BRANCH  13  14
ATOM     14  C   UNL     1      45.625   2.278   8.383  0.00  0.00    +0.000 A 
ATOM     15  C   UNL     1      46.220   3.074   7.424  0.00  0.00    +0.000 A 
ATOM     16  C   UNL     1      47.171   2.261   6.763  0.00  0.00    +0.000 A 
ATOM     17  C   UNL     1      47.100   1.025   7.360  0.00  0.00    +0.000 A 
ATOM     18  O   UNL     1      46.166   1.025   8.347  0.00  0.00    +0.000 OA
ENDBRANCH  13  14
ENDBRANCH  11  13
ENDBRANCH   8   9
BRANCH   8  19
ATOM     19  N   UNL     1      43.789   5.900  12.801  0.00  0.00    +0.000 NA
ATOM     20  H   UNL     1      43.668   6.892  13.013  0.00  0.00    +0.000 HD
ATOM     21  H   UNL     1      44.562   5.591  13.392  0.00  0.00    +0.000 HD
ENDBRANCH   8  19
ENDBRANCH   7   8
ENDBRANCH   1   7
BRANCH   4  22
ATOM     22  C   UNL     1      48.884   8.047  15.645  0.00  0.00    +0.000 C 
BRANCH  22  23
ATOM     23  N   UNL     1      49.876   7.088  16.058  0.00  0.00    +0.000 N 
ATOM     24  C   UNL     1      49.766   6.408  17.247  0.00  0.00    +0.000 C 
ATOM     25  O   UNL     1      48.816   6.565  18.007  0.00  0.00    +0.000 OA
ATOM     26  H   UNL     1      50.780   7.139  15.602  0.00  0.00    +0.000 HD
BRANCH  24  27
ATOM     27  C   UNL     1      50.823   5.425  17.525  0.00  0.00    +0.000 A 
ATOM     28  C   UNL     1      52.067   5.855  17.965  0.00  0.00    +0.000 A 
ATOM     29  S   UNL     1      53.151   4.578  18.294  0.00  0.00    +0.000 S 
ATOM     30  C   UNL     1      52.011   3.411  17.804  0.00  0.00    +0.000 A 
ATOM     31  N   UNL     1      52.319   2.085  17.812  0.00  0.00    +0.000 NA
ATOM     32  C   UNL     1      51.370   1.316  17.392  0.00  0.00    +0.000 A 
ATOM     33  N   UNL     1      50.140   1.751  16.967  0.00  0.00    +0.000 N 
ATOM     34  C   UNL     1      49.776   3.075  16.974  0.00  0.00    +0.000 A 
ATOM     35  O   UNL     1      48.648   3.428  16.641  0.00  0.00    +0.000 OA
ATOM     36  C   UNL     1      50.816   3.984  17.424  0.00  0.00    +0.000 A 
ATOM     37  H   UNL     1      49.435   1.098  16.661  0.00  0.00    +0.000 HD
ENDBRANCH  24  27
ENDBRANCH  22  23
ENDBRANCH   4  22
TORSDOF 9
ENDMDL
MODEL 4
REMARK VINA RESULT:    -7.571      2.892      4.361
REMARK INTER + INTRA:         -12.734
REMARK INTER:                 -11.780
REMARK INTRA:                  -0.954
REMARK UNBOUND:                -1.401
REMARK  Name = 
REMARK  9 active torsions:
REMARK  status: ('A' for Active; 'I' for Inactive)
REMARK    1  A    between atoms: N_1  and  C_2
REMARK    2  A    between atoms: C_2  and  C_3
REMARK    3  A    between atoms: C_2  and  C_24
REMARK    4  A    between atoms: C_3  and  C_4
REMARK    5  A    between atoms: C_7  and  C_8
REMARK    6  A    between atoms: C_8  and  N_9
REMARK    7  A    between atoms: C_10  and  C_12
REMARK    8  A    between atoms: N_26  and  C_27
REMARK    9  A    between atoms: C_27  and  C_28
REMARK                            x       y       z     vdW  Elec       q    Type
REMARK                         _______ _______ _______ _____ _____    ______ ____
ROOT
ATOM      1  C   UNL     1      47.224   5.631  13.440  0.00  0.00    +0.000 A 
ATOM      2  C   UNL     1      46.680   4.349  13.598  0.00  0.00    +0.000 A 
ATOM      3  C   UNL     1      46.800   3.661  14.810  0.00  0.00    +0.000 A 
ATOM      4  C   UNL     1      47.462   4.244  15.898  0.00  0.00    +0.000 A 
ATOM      5  C   UNL     1      48.022   5.519  15.734  0.00  0.00    +0.000 A 
ATOM      6  C   UNL     1      47.896   6.210  14.523  0.00  0.00    +0.000 A 
ENDROOT
BRANCH   1   7
ATOM      7  C   UNL     1      47.130   6.336  12.103  0.00  0.00    +0.000 C 
BRANCH   7   8
ATOM      8  C   UNL     1      45.755   6.944  11.737  0.00  0.00    +0.000 C 
BRANCH   8   9
ATOM      9  C   UNL     1      44.874   5.847  11.085  0.00  0.00    +0.000 C 
ATOM     10  O   UNL     1      43.865   5.392  11.620  0.00  0.00    +0.000 OA
ATOM     11  N   UNL     1      45.320   5.414   9.858  0.00  0.00    +0.000 N 
ATOM     12  H   UNL     1      45.961   6.021   9.355  0.00  0.00    +0.000 HD
BRANCH  11  13
ATOM     13  C   UNL     1      44.576   4.431   9.105  0.00  0.00    +0.000 C 
BRANCH  13  14
ATOM     14  C   UNL     1      45.517   3.551   8.372  0.00  0.00    +0.000 A 
ATOM     15  C   UNL     1      45.790   2.199   8.442  0.00  0.00    +0.000 A 
ATOM     16  C   UNL     1      46.787   1.942   7.471  0.00  0.00    +0.000 A 
ATOM     17  C   UNL     1      47.056   3.148   6.869  0.00  0.00    +0.000 A 
ATOM     18  O   UNL     1      46.289   4.132   7.407  0.00  0.00    +0.000 OA
ENDBRANCH  13  14
ENDBRANCH  11  13
ENDBRANCH   8   9
BRANCH   8  19
ATOM     19  N   UNL     1      45.019   7.506  12.895  0.00  0.00    +0.000 NA
ATOM     20  H   UNL     1      45.037   6.814  13.647  0.00  0.00    +0.000 HD
ATOM     21  H   UNL     1      44.035   7.601  12.639  0.00  0.00    +0.000 HD
ENDBRANCH   8  19
ENDBRANCH   7   8
ENDBRANCH   1   7
BRANCH   4  22
ATOM     22  C   UNL     1      47.608   3.514  17.211  0.00  0.00    +0.000 C 
BRANCH  22  23
ATOM     23  N   UNL     1      48.993   3.326  17.562  0.00  0.00    +0.000 N 
ATOM     24  C   UNL     1      49.770   2.382  16.937  0.00  0.00    +0.000 C 
ATOM     25  O   UNL     1      49.338   1.666  16.039  0.00  0.00    +0.000 OA
ATOM     26  H   UNL     1      49.292   3.695  18.458  0.00  0.00    +0.000 HD
BRANCH  24  27
ATOM     27  C   UNL     1      51.177   2.326  17.359  0.00  0.00    +0.000 A 
ATOM     28  C   UNL     1      51.782   1.097  17.585  0.00  0.00    +0.000 A 
ATOM     29  S   UNL     1      53.431   1.217  18.010  0.00  0.00    +0.000 S 
ATOM     30  C   UNL     1      53.375   2.919  17.963  0.00  0.00    +0.000 A 
ATOM     31  N   UNL     1      54.474   3.663  18.264  0.00  0.00    +0.000 NA
ATOM     32  C   UNL     1      54.281   4.940  18.213  0.00  0.00    +0.000 A 
ATOM     33  N   UNL     1      53.092   5.539  17.886  0.00  0.00    +0.000 N 
ATOM     34  C   UNL     1      51.968   4.827  17.544  0.00  0.00    +0.000 A 
ATOM     35  O   UNL     1      50.934   5.394  17.201  0.00  0.00    +0.000 OA
ATOM     36  C   UNL     1      52.128   3.385  17.602  0.00  0.00    +0.000 A 
ATOM     37  H   UNL     1      53.008   6.544  17.851  0.00  0.00    +0.000 HD
ENDBRANCH  24  27
ENDBRANCH  22  23
ENDBRANCH   4  22
TORSDOF 9
ENDMDL
MODEL 5
REMARK VINA RESULT:    -7.519      2.007      2.598
REMARK INTER + INTRA:         -12.656
REMARK INTER:                 -11.952
REMARK INTRA:                  -0.704
REMARK UNBOUND:                -1.401
REMARK  Name = 
REMARK  9 active torsions:
REMARK  status: ('A' for Active; 'I' for Inactive)
REMARK    1  A    between atoms: N_1  and  C_2
REMARK    2  A    between atoms: C_2  and  C_3
REMARK    3  A    between atoms: C_2  and  C_24
REMARK    4  A    between atoms: C_3  and  C_4
REMARK    5  A    between atoms: C_7  and  C_8
REMARK    6  A    between atoms: C_8  and  N_9
REMARK    7  A    between atoms: C_10  and  C_12
REMARK    8  A    between atoms: N_26  and  C_27
REMARK    9  A    between atoms: C_27  and  C_28
REMARK                            x       y       z     vdW  Elec       q    Type
REMARK                         _______ _______ _______ _____ _____    ______ ____
ROOT
ATOM      1  C   UNL     1      46.002   4.391  12.763  0.00  0.00    +0.000 A 
ATOM      2  C   UNL     1      46.717   4.359  13.967  0.00  0.00    +0.000 A 
ATOM      3  C   UNL     1      47.431   5.478  14.411  0.00  0.00    +0.000 A 
ATOM      4  C   UNL     1      47.440   6.661  13.661  0.00  0.00    +0.000 A 
ATOM      5  C   UNL     1      46.740   6.687  12.447  0.00  0.00    +0.000 A 
ATOM      6  C   UNL     1      46.020   5.570  12.007  0.00  0.00    +0.000 A 
ENDROOT
BRANCH   1   7
ATOM      7  C   UNL     1      45.281   3.153  12.274  0.00  0.00    +0.000 C 
BRANCH   7   8
ATOM      8  C   UNL     1      43.835   3.354  11.761  0.00  0.00    +0.000 C 
BRANCH   8   9
ATOM      9  C   UNL     1      43.882   3.971  10.340  0.00  0.00    +0.000 C 
ATOM     10  O   UNL     1      43.288   5.004  10.037  0.00  0.00    +0.000 OA
ATOM     11  N   UNL     1      44.637   3.259   9.435  0.00  0.00    +0.000 N 
ATOM     12  H   UNL     1      45.321   2.609   9.811  0.00  0.00    +0.000 HD
BRANCH  11  13
ATOM     13  C   UNL     1      44.816   3.737   8.084  0.00  0.00    +0.000 C 
BRANCH  13  14
ATOM     14  C   UNL     1      45.944   3.015   7.449  0.00  0.00    +0.000 A 
ATOM     15  C   UNL     1      46.785   3.320   6.396  0.00  0.00    +0.000 A 
ATOM     16  C   UNL     1      47.679   2.231   6.270  0.00  0.00    +0.000 A 
ATOM     17  C   UNL     1      47.332   1.334   7.252  0.00  0.00    +0.000 A 
ATOM     18  O   UNL     1      46.282   1.801   7.975  0.00  0.00    +0.000 OA
ENDBRANCH  13  14
ENDBRANCH  11  13
ENDBRANCH   8   9
BRANCH   8  19
ATOM     19  N   UNL     1      43.040   2.103  11.700  0.00  0.00    +0.000 NA
ATOM     20  H   UNL     1      42.239   2.207  12.325  0.00  0.00    +0.000 HD
ATOM     21  H   UNL     1      43.597   1.346  12.101  0.00  0.00    +0.000 HD
ENDBRANCH   8  19
ENDBRANCH   7   8
ENDBRANCH   1   7
BRANCH   4  22
ATOM     22  C   UNL     1      48.211   7.874  14.119  0.00  0.00    +0.000 C 
BRANCH  22  23
ATOM     23  N   UNL     1      48.481   7.830  15.533  0.00  0.00    +0.000 N 
ATOM     24  C   UNL     1      49.730   7.526  16.017  0.00  0.00    +0.000 C 
ATOM     25  O   UNL     1      50.682   7.298  15.278  0.00  0.00    +0.000 OA
ATOM     26  H   UNL     1      47.679   7.743  16.149  0.00  0.00    +0.000 HD
BRANCH  24  27
ATOM     27  C   UNL     1      49.879   7.561  17.479  0.00  0.00    +0.000 A 
ATOM     28  C   UNL     1      49.949   8.781  18.137  0.00  0.00    +0.000 A 
ATOM     29  S   UNL     1      50.060   8.634  19.834  0.00  0.00    +0.000 S 
ATOM     30  C   UNL     1      50.076   6.933  19.740  0.00  0.00    +0.000 A 
ATOM     31  N   UNL     1      50.187   6.171  20.863  0.00  0.00    +0.000 NA
ATOM     32  C   UNL     1      50.212   4.899  20.641  0.00  0.00    +0.000 A 
ATOM     33  N   UNL     1      50.133   4.319  19.401  0.00  0.00    +0.000 N 
ATOM     34  C   UNL     1      49.986   5.047  18.247  0.00  0.00    +0.000 A 
ATOM     35  O   UNL     1      49.861   4.496  17.156  0.00  0.00    +0.000 OA
ATOM     36  C   UNL     1      49.970   6.487  18.440  0.00  0.00    +0.000 A 
ATOM     37  H   UNL     1      50.145   3.316  19.295  0.00  0.00    +0.000 HD
ENDBRANCH  24  27
ENDBRANCH  22  23
ENDBRANCH   4  22
TORSDOF 9
ENDMDL
MODEL 6
REMARK VINA RESULT:    -7.321      2.657      3.703
REMARK INTER + INTRA:         -12.360
REMARK INTER:                 -11.611
REMARK INTRA:                  -0.749
REMARK UNBOUND:                -1.401
REMARK  Name = 
REMARK  9 active torsions:
REMARK  status: ('A' for Active; 'I' for Inactive)
REMARK    1  A    between atoms: N_1  and  C_2
REMARK    2  A    between atoms: C_2  and  C_3
REMARK    3  A    between atoms: C_2  and  C_24
REMARK    4  A    between atoms: C_3  and  C_4
REMARK    5  A    between atoms: C_7  and  C_8
REMARK    6  A    between atoms: C_8  and  N_9
REMARK    7  A    between atoms: C_10  and  C_12
REMARK    8  A    between atoms: N_26  and  C_27
REMARK    9  A    between atoms: C_27  and  C_28
REMARK                            x       y       z     vdW  Elec       q    Type
REMARK                         _______ _______ _______ _____ _____    ______ ____
ROOT
ATOM      1  C   UNL     1      46.077   5.644  12.407  0.00  0.00    +0.000 A 
ATOM      2  C   UNL     1      46.789   6.638  13.091  0.00  0.00    +0.000 A 
ATOM      3  C   UNL     1      47.454   6.351  14.289  0.00  0.00    +0.000 A 
ATOM      4  C   UNL     1      47.428   5.058  14.827  0.00  0.00    +0.000 A 
ATOM      5  C   UNL     1      46.700   4.068  14.152  0.00  0.00    +0.000 A 
ATOM      6  C   UNL     1      46.040   4.354  12.950  0.00  0.00    +0.000 A 
ENDROOT
BRANCH   1   7
ATOM      7  C   UNL     1      45.319   5.987  11.142  0.00  0.00    +0.000 C 
BRANCH   7   8
ATOM      8  C   UNL     1      43.834   5.556  11.087  0.00  0.00    +0.000 C 
BRANCH   8   9
ATOM      9  C   UNL     1      43.756   4.052  10.717  0.00  0.00    +0.000 C 
ATOM     10  O   UNL     1      43.026   3.254  11.302  0.00  0.00    +0.000 OA
ATOM     11  N   UNL     1      44.582   3.677   9.683  0.00  0.00    +0.000 N 
ATOM     12  H   UNL     1      44.919   4.412   9.067  0.00  0.00    +0.000 HD
BRANCH  11  13
ATOM     13  C   UNL     1      44.583   2.318   9.192  0.00  0.00    +0.000 C 
BRANCH  13  14
ATOM     14  C   UNL     1      45.716   2.131   8.254  0.00  0.00    +0.000 A 
ATOM     15  C   UNL     1      46.337   2.969   7.348  0.00  0.00    +0.000 A 
ATOM     16  C   UNL     1      47.374   2.214   6.752  0.00  0.00    +0.000 A 
ATOM     17  C   UNL     1      47.324   0.969   7.331  0.00  0.00    +0.000 A 
ATOM     18  O   UNL     1      46.322   0.908   8.246  0.00  0.00    +0.000 OA
ENDBRANCH  13  14
ENDBRANCH  11  13
ENDBRANCH   8   9
BRANCH   8  19
ATOM     19  N   UNL     1      43.102   5.761  12.360  0.00  0.00    +0.000 NA
ATOM     20  H   UNL     1      42.119   5.530  12.200  0.00  0.00    +0.000 HD
ATOM     21  H   UNL     1      43.111   6.759  12.582  0.00  0.00    +0.000 HD
ENDBRANCH   8  19
ENDBRANCH   7   8
ENDBRANCH   1   7
BRANCH   4  22
ATOM     22  C   UNL     1      48.132   4.732  16.121  0.00  0.00    +0.000 C 
BRANCH  22  23
ATOM     23  N   UNL     1      47.795   5.671  17.160  0.00  0.00    +0.000 N 
ATOM     24  C   UNL     1      48.710   6.583  17.628  0.00  0.00    +0.000 C 
ATOM     25  O   UNL     1      49.848   6.660  17.178  0.00  0.00    +0.000 OA
ATOM     26  H   UNL     1      46.981   5.456  17.725  0.00  0.00    +0.000 HD
BRANCH  24  27
ATOM     27  C   UNL     1      48.222   7.512  18.657  0.00  0.00    +0.000 A 
ATOM     28  C   UNL     1      48.006   7.059  19.951  0.00  0.00    +0.000 A 
ATOM     29  S   UNL     1      47.498   8.283  21.026  0.00  0.00    +0.000 S 
ATOM     30  C   UNL     1      47.493   9.448  19.783  0.00  0.00    +0.000 A 
ATOM     31  N   UNL     1      47.117  10.733  20.030  0.00  0.00    +0.000 NA
ATOM     32  C   UNL     1      47.136  11.501  18.991  0.00  0.00    +0.000 A 
ATOM     33  N   UNL     1      47.501  11.103  17.730  0.00  0.00    +0.000 N 
ATOM     34  C   UNL     1      47.920   9.827  17.444  0.00  0.00    +0.000 A 
ATOM     35  O   UNL     1      48.294   9.516  16.317  0.00  0.00    +0.000 OA
ATOM     36  C   UNL     1      47.900   8.918  18.577  0.00  0.00    +0.000 A 
ATOM     37  H   UNL     1      47.508  11.755  16.961  0.00  0.00    +0.000 HD
ENDBRANCH  24  27
ENDBRANCH  22  23
ENDBRANCH   4  22
TORSDOF 9
ENDMDL
MODEL 7
REMARK VINA RESULT:    -7.126      5.345      6.991
REMARK INTER + INTRA:         -12.067
REMARK INTER:                 -10.851
REMARK INTRA:                  -1.216
REMARK UNBOUND:                -1.401
REMARK  Name = 
REMARK  9 active torsions:
REMARK  status: ('A' for Active; 'I' for Inactive)
REMARK    1  A    between atoms: N_1  and  C_2
REMARK    2  A    between atoms: C_2  and  C_3
REMARK    3  A    between atoms: C_2  and  C_24
REMARK    4  A    between atoms: C_3  and  C_4
REMARK    5  A    between atoms: C_7  and  C_8
REMARK    6  A    between atoms: C_8  and  N_9
REMARK    7  A    between atoms: C_10  and  C_12
REMARK    8  A    between atoms: N_26  and  C_27
REMARK    9  A    between atoms: C_27  and  C_28
REMARK                            x       y       z     vdW  Elec       q    Type
REMARK                         _______ _______ _______ _____ _____    ______ ____
ROOT
ATOM      1  C   UNL     1      47.091   7.911  12.419  0.00  0.00    +0.000 A 
ATOM      2  C   UNL     1      47.958   6.838  12.667  0.00  0.00    +0.000 A 
ATOM      3  C   UNL     1      49.336   6.963  12.461  0.00  0.00    +0.000 A 
ATOM      4  C   UNL     1      49.882   8.170  12.007  0.00  0.00    +0.000 A 
ATOM      5  C   UNL     1      49.013   9.238  11.740  0.00  0.00    +0.000 A 
ATOM      6  C   UNL     1      47.635   9.115  11.953  0.00  0.00    +0.000 A 
ENDROOT
BRANCH   1   7
ATOM      7  C   UNL     1      45.598   7.739  12.597  0.00  0.00    +0.000 C 
BRANCH   7   8
ATOM      8  C   UNL     1      44.786   7.388  11.327  0.00  0.00    +0.000 C 
BRANCH   8   9
ATOM      9  C   UNL     1      44.579   5.853  11.265  0.00  0.00    +0.000 C 
ATOM     10  O   UNL     1      44.432   5.155  12.267  0.00  0.00    +0.000 OA
ATOM     11  N   UNL     1      44.582   5.329   9.993  0.00  0.00    +0.000 N 
ATOM     12  H   UNL     1      44.408   5.972   9.225  0.00  0.00    +0.000 HD
BRANCH  11  13
ATOM     13  C   UNL     1      44.349   3.921   9.772  0.00  0.00    +0.000 C 
BRANCH  13  14
ATOM     14  C   UNL     1      45.310   3.412   8.765  0.00  0.00    +0.000 A 
ATOM     15  C   UNL     1      45.750   2.144   8.440  0.00  0.00    +0.000 A 
ATOM     16  C   UNL     1      46.668   2.300   7.374  0.00  0.00    +0.000 A 
ATOM     17  C   UNL     1      46.728   3.648   7.114  0.00  0.00    +0.000 A 
ATOM     18  O   UNL     1      45.906   4.333   7.951  0.00  0.00    +0.000 OA
ENDBRANCH  13  14
ENDBRANCH  11  13
ENDBRANCH   8   9
BRANCH   8  19
ATOM     19  N   UNL     1      43.456   8.041  11.265  0.00  0.00    +0.000 NA
ATOM     20  H   UNL     1      43.383   8.684  12.056  0.00  0.00    +0.000 HD
ATOM     21  H   UNL     1      42.739   7.332  11.426  0.00  0.00    +0.000 HD
ENDBRANCH   8  19
ENDBRANCH   7   8
ENDBRANCH   1   7
BRANCH   4  22
ATOM     22  C   UNL     1      51.364   8.321  11.770  0.00  0.00    +0.000 C 
BRANCH  22  23
ATOM     23  N   UNL     1      51.725   7.970  10.420  0.00  0.00    +0.000 N 
ATOM     24  C   UNL     1      52.756   8.599   9.766  0.00  0.00    +0.000 C 
ATOM     25  O   UNL     1      53.434   9.473  10.296  0.00  0.00    +0.000 OA
ATOM     26  H   UNL     1      51.031   7.467   9.877  0.00  0.00    +0.000 HD
BRANCH  24  27
ATOM     27  C   UNL     1      53.048   8.113   8.409  0.00  0.00    +0.000 A 
ATOM     28  C   UNL     1      52.968   8.985   7.332  0.00  0.00    +0.000 A 
ATOM     29  S   UNL     1      53.397   8.267   5.843  0.00  0.00    +0.000 S 
ATOM     30  C   UNL     1      53.646   6.753   6.582  0.00  0.00    +0.000 A 
ATOM     31  N   UNL     1      54.009   5.667   5.847  0.00  0.00    +0.000 NA
ATOM     32  C   UNL     1      54.138   4.580   6.532  0.00  0.00    +0.000 A 
ATOM     33  N   UNL     1      53.942   4.480   7.886  0.00  0.00    +0.000 N 
ATOM     34  C   UNL     1      53.609   5.557   8.671  0.00  0.00    +0.000 A 
ATOM     35  O   UNL     1      53.495   5.447   9.889  0.00  0.00    +0.000 OA
ATOM     36  C   UNL     1      53.434   6.802   7.944  0.00  0.00    +0.000 A 
ATOM     37  H   UNL     1      54.071   3.603   8.367  0.00  0.00    +0.000 HD
ENDBRANCH  24  27
ENDBRANCH  22  23
ENDBRANCH   4  22
TORSDOF 9
ENDMDL
MODEL 8
REMARK VINA RESULT:    -6.964      3.998      5.037
REMARK INTER + INTRA:         -11.826
REMARK INTER:                 -10.728
REMARK INTRA:                  -1.098
REMARK UNBOUND:                -1.401
REMARK  Name = 
REMARK  9 active torsions:
REMARK  status: ('A' for Active; 'I' for Inactive)
REMARK    1  A    between atoms: N_1  and  C_2
REMARK    2  A    between atoms: C_2  and  C_3
REMARK    3  A    between atoms: C_2  and  C_24
REMARK    4  A    between atoms: C_3  and  C_4
REMARK    5  A    between atoms: C_7  and  C_8
REMARK    6  A    between atoms: C_8  and  N_9
REMARK    7  A    between atoms: C_10  and  C_12
REMARK    8  A    between atoms: N_26  and  C_27
REMARK    9  A    between atoms: C_27  and  C_28
REMARK                            x       y       z     vdW  Elec       q    Type
REMARK                         _______ _______ _______ _____ _____    ______ ____
ROOT
ATOM      1  C   UNL     1      45.572   5.327  12.706  0.00  0.00    +0.000 A 
ATOM      2  C   UNL     1      46.893   5.558  12.303  0.00  0.00    +0.000 A 
ATOM      3  C   UNL     1      47.374   6.860  12.121  0.00  0.00    +0.000 A 
ATOM      4  C   UNL     1      46.541   7.964  12.344  0.00  0.00    +0.000 A 
ATOM      5  C   UNL     1      45.213   7.733  12.728  0.00  0.00    +0.000 A 
ATOM      6  C   UNL     1      44.735   6.431  12.918  0.00  0.00    +0.000 A 
ENDROOT
BRANCH   1   7
ATOM      7  C   UNL     1      45.056   3.911  12.846  0.00  0.00    +0.000 C 
BRANCH   7   8
ATOM      8  C   UNL     1      43.730   3.583  12.120  0.00  0.00    +0.000 C 
BRANCH   8   9
ATOM      9  C   UNL     1      43.800   4.120  10.667  0.00  0.00    +0.000 C 
ATOM     10  O   UNL     1      43.144   5.083  10.276  0.00  0.00    +0.000 OA
ATOM     11  N   UNL     1      44.653   3.422   9.844  0.00  0.00    +0.000 N 
ATOM     12  H   UNL     1      45.366   2.851  10.289  0.00  0.00    +0.000 HD
BRANCH  11  13
ATOM     13  C   UNL     1      44.863   3.835   8.475  0.00  0.00    +0.000 C 
BRANCH  13  14
ATOM     14  C   UNL     1      45.841   2.928   7.829  0.00  0.00    +0.000 A 
ATOM     15  C   UNL     1      46.712   3.085   6.768  0.00  0.00    +0.000 A 
ATOM     16  C   UNL     1      47.401   1.856   6.631  0.00  0.00    +0.000 A 
ATOM     17  C   UNL     1      46.913   1.032   7.617  0.00  0.00    +0.000 A 
ATOM     18  O   UNL     1      45.967   1.673   8.350  0.00  0.00    +0.000 OA
ENDBRANCH  13  14
ENDBRANCH  11  13
ENDBRANCH   8   9
BRANCH   8  19
ATOM     19  N   UNL     1      43.416   2.134  12.067  0.00  0.00    +0.000 NA
ATOM     20  H   UNL     1      42.704   1.939  12.773  0.00  0.00    +0.000 HD
ATOM     21  H   UNL     1      44.242   1.613  12.365  0.00  0.00    +0.000 HD
ENDBRANCH   8  19
ENDBRANCH   7   8
ENDBRANCH   1   7
BRANCH   4  22
ATOM     22  C   UNL     1      47.038   9.375  12.143  0.00  0.00    +0.000 C 
BRANCH  22  23
ATOM     23  N   UNL     1      48.471   9.455  12.261  0.00  0.00    +0.000 N 
ATOM     24  C   UNL     1      49.203  10.353  11.523  0.00  0.00    +0.000 C 
ATOM     25  O   UNL     1      48.681  11.143  10.744  0.00  0.00    +0.000 OA
ATOM     26  H   UNL     1      48.942   8.656  12.673  0.00  0.00    +0.000 HD
BRANCH  24  27
ATOM     27  C   UNL     1      50.652  10.361  11.774  0.00  0.00    +0.000 A 
ATOM     28  C   UNL     1      51.266  11.516  12.239  0.00  0.00    +0.000 A 
ATOM     29  S   UNL     1      52.937  11.328  12.532  0.00  0.00    +0.000 S 
ATOM     30  C   UNL     1      52.906   9.713  11.991  0.00  0.00    +0.000 A 
ATOM     31  N   UNL     1      54.043   8.966  11.955  0.00  0.00    +0.000 NA
ATOM     32  C   UNL     1      53.877   7.768  11.499  0.00  0.00    +0.000 A 
ATOM     33  N   UNL     1      52.678   7.249  11.081  0.00  0.00    +0.000 N 
ATOM     34  C   UNL     1      51.502   7.956  11.132  0.00  0.00    +0.000 A 
ATOM     35  O   UNL     1      50.436   7.444  10.803  0.00  0.00    +0.000 OA
ATOM     36  C   UNL     1      51.638   9.317  11.622  0.00  0.00    +0.000 A 
ATOM     37  H   UNL     1      52.612   6.300  10.746  0.00  0.00    +0.000 HD
ENDBRANCH  24  27
ENDBRANCH  22  23
ENDBRANCH   4  22
TORSDOF 9
ENDMDL
MODEL 9
REMARK VINA RESULT:    -6.889      4.687      6.344
REMARK INTER + INTRA:         -11.713
REMARK INTER:                 -10.991
REMARK INTRA:                  -0.722
REMARK UNBOUND:                -1.401
REMARK  Name = 
REMARK  9 active torsions:
REMARK  status: ('A' for Active; 'I' for Inactive)
REMARK    1  A    between atoms: N_1  and  C_2
REMARK    2  A    between atoms: C_2  and  C_3
REMARK    3  A    between atoms: C_2  and  C_24
REMARK    4  A    between atoms: C_3  and  C_4
REMARK    5  A    between atoms: C_7  and  C_8
REMARK    6  A    between atoms: C_8  and  N_9
REMARK    7  A    between atoms: C_10  and  C_12
REMARK    8  A    between atoms: N_26  and  C_27
REMARK    9  A    between atoms: C_27  and  C_28
REMARK                            x       y       z     vdW  Elec       q    Type
REMARK                         _______ _______ _______ _____ _____    ______ ____
ROOT
ATOM      1  C   UNL     1      46.235   6.103  12.514  0.00  0.00    +0.000 A 
ATOM      2  C   UNL     1      46.950   6.082  13.719  0.00  0.00    +0.000 A 
ATOM      3  C   UNL     1      48.230   6.640  13.807  0.00  0.00    +0.000 A 
ATOM      4  C   UNL     1      48.825   7.239  12.689  0.00  0.00    +0.000 A 
ATOM      5  C   UNL     1      48.117   7.244  11.478  0.00  0.00    +0.000 A 
ATOM      6  C   UNL     1      46.833   6.693  11.393  0.00  0.00    +0.000 A 
ENDROOT
BRANCH   1   7
ATOM      7  C   UNL     1      44.874   5.447  12.426  0.00  0.00    +0.000 C 
BRANCH   7   8
ATOM      8  C   UNL     1      44.819   3.928  12.712  0.00  0.00    +0.000 C 
BRANCH   8   9
ATOM      9  C   UNL     1      44.180   3.206  11.497  0.00  0.00    +0.000 C 
ATOM     10  O   UNL     1      42.970   3.017  11.390  0.00  0.00    +0.000 OA
ATOM     11  N   UNL     1      45.082   2.783  10.548  0.00  0.00    +0.000 N 
ATOM     12  H   UNL     1      45.999   3.222  10.549  0.00  0.00    +0.000 HD
BRANCH  11  13
ATOM     13  C   UNL     1      44.633   2.139   9.336  0.00  0.00    +0.000 C 
BRANCH  13  14
ATOM     14  C   UNL     1      45.728   2.143   8.337  0.00  0.00    +0.000 A 
ATOM     15  C   UNL     1      46.243   3.120   7.509  0.00  0.00    +0.000 A 
ATOM     16  C   UNL     1      47.301   2.517   6.788  0.00  0.00    +0.000 A 
ATOM     17  C   UNL     1      47.367   1.215   7.223  0.00  0.00    +0.000 A 
ATOM     18  O   UNL     1      46.418   0.977   8.165  0.00  0.00    +0.000 OA
ENDBRANCH  13  14
ENDBRANCH  11  13
ENDBRANCH   8   9
BRANCH   8  19
ATOM     19  N   UNL     1      46.145   3.318  12.972  0.00  0.00    +0.000 NA
ATOM     20  H   UNL     1      46.601   3.157  12.071  0.00  0.00    +0.000 HD
ATOM     21  H   UNL     1      46.002   2.388  13.371  0.00  0.00    +0.000 HD
ENDBRANCH   8  19
ENDBRANCH   7   8
ENDBRANCH   1   7
BRANCH   4  22
ATOM     22  C   UNL     1      50.208   7.838  12.762  0.00  0.00    +0.000 C 
BRANCH  22  23
ATOM     23  N   UNL     1      50.738   8.112  11.451  0.00  0.00    +0.000 N 
ATOM     24  C   UNL     1      51.876   8.861  11.279  0.00  0.00    +0.000 C 
ATOM     25  O   UNL     1      52.510   9.318  12.224  0.00  0.00    +0.000 OA
ATOM     26  H   UNL     1      50.105   7.989  10.667  0.00  0.00    +0.000 HD
BRANCH  24  27
ATOM     27  C   UNL     1      52.332   9.026   9.891  0.00  0.00    +0.000 A 
ATOM     28  C   UNL     1      52.279  10.277   9.291  0.00  0.00    +0.000 A 
ATOM     29  S   UNL     1      52.903  10.296   7.702  0.00  0.00    +0.000 S 
ATOM     30  C   UNL     1      53.212   8.622   7.744  0.00  0.00    +0.000 A 
ATOM     31  N   UNL     1      53.733   7.979   6.664  0.00  0.00    +0.000 NA
ATOM     32  C   UNL     1      53.891   6.707   6.827  0.00  0.00    +0.000 A 
ATOM     33  N   UNL     1      53.580   6.020   7.972  0.00  0.00    +0.000 N 
ATOM     34  C   UNL     1      53.084   6.634   9.097  0.00  0.00    +0.000 A 
ATOM     35  O   UNL     1      52.867   6.000  10.126  0.00  0.00    +0.000 OA
ATOM     36  C   UNL     1      52.872   8.064   8.959  0.00  0.00    +0.000 A 
ATOM     37  H   UNL     1      53.739   5.027   8.042  0.00  0.00    +0.000 HD
ENDBRANCH  24  27
ENDBRANCH  22  23
ENDBRANCH   4  22
TORSDOF 9
ENDMDL
