MODEL 1
REMARK VINA RESULT:    -7.423      0.000      0.000
REMARK INTER + INTRA:         -10.823
REMARK INTER:                  -9.809
REMARK INTRA:                  -1.014
REMARK UNBOUND:                -1.014
REMARK  Name = 
REMARK  6 active torsions:
REMARK  status: ('A' for Active; 'I' for Inactive)
REMARK    1  A    between atoms: N_1  and  C_2
REMARK    2  A    between atoms: C_2  and  C_18
REMARK    3  A    between atoms: C_3  and  C_4
REMARK    4  A    between atoms: C_7  and  C_8
REMARK    5  A    between atoms: C_8  and  N_9
REMARK    6  A    between atoms: N_9  and  C_10
REMARK                            x       y       z     vdW  Elec       q    Type
REMARK                         _______ _______ _______ _____ _____    ______ ____
ROOT
ATOM      1  C   UNL     1      47.753   4.442  16.613  0.00  0.00    +0.000 C 
ATOM      2  C   UNL     1      47.662   5.060  15.418  0.00  0.00    +0.000 C 
ENDROOT
BRANCH   1   3
ATOM      3  C   UNL     1      48.553   5.017  17.662  0.00  0.00    +0.000 A 
ATOM      4  C   UNL     1      48.129   6.117  18.380  0.00  0.00    +0.000 A 
ATOM      5  S   UNL     1      49.258   6.575  19.582  0.00  0.00    +0.000 S 
ATOM      6  C   UNL     1      50.311   5.299  19.164  0.00  0.00    +0.000 A 
ATOM      7  N   UNL     1      51.487   5.108  19.825  0.00  0.00    +0.000 NA
ATOM      8  C   UNL     1      52.170   4.097  19.400  0.00  0.00    +0.000 A 
ATOM      9  N   UNL     1      51.792   3.259  18.382  0.00  0.00    +0.000 N 
ATOM     10  C   UNL     1      50.609   3.404  17.693  0.00  0.00    +0.000 A 
ATOM     11  O   UNL     1      50.292   2.623  16.802  0.00  0.00    +0.000 OA
ATOM     12  C   UNL     1      49.813   4.534  18.127  0.00  0.00    +0.000 A 
ATOM     13  H   UNL     1      52.371   2.481  18.105  0.00  0.00    +0.000 HD
ENDBRANCH   1   3
BRANCH   2  14
ATOM     14  C   UNL     1      46.853   4.613  14.275  0.00  0.00    +0.000 A 
ATOM     15  C   UNL     1      45.983   5.490  13.642  0.00  0.00    +0.000 A 
ATOM     16  N   UNL     1      45.187   5.121  12.614  0.00  0.00    +0.000 NA
ATOM     17  C   UNL     1      45.280   3.825  12.208  0.00  0.00    +0.000 A 
ATOM     18  C   UNL     1      46.162   2.952  12.834  0.00  0.00    +0.000 A 
ATOM     19  N   UNL     1      46.961   3.319  13.869  0.00  0.00    +0.000 NA
BRANCH  17  20
ATOM     20  C   UNL     1      44.383   3.344  11.076  0.00  0.00    +0.000 C 
BRANCH  20  21
ATOM     21  N   UNL     1      45.129   2.513  10.139  0.00  0.00    +0.000 NA
ATOM     22  H   UNL     1      45.235   1.572  10.510  0.00  0.00    +0.000 HD
BRANCH  21  23
ATOM     23  C   UNL     1      44.781   2.565   8.728  0.00  0.00    +0.000 C 
ATOM     24  C   UNL     1      45.765   1.898   7.752  0.00  0.00    +0.000 C 
ATOM     25  C   UNL     1      47.061   2.684   7.561  0.00  0.00    +0.000 C 
ATOM     26  N   UNL     1      46.820   4.083   7.200  0.00  0.00    +0.000 NA
ATOM     27  C   UNL     1      45.992   4.743   8.211  0.00  0.00    +0.000 C 
ATOM     28  C   UNL     1      44.635   4.051   8.353  0.00  0.00    +0.000 C 
ATOM     29  H   UNL     1      46.335   4.120   6.302  0.00  0.00    +0.000 HD
ENDBRANCH  21  23
ENDBRANCH  20  21
ENDBRANCH  17  20
ENDBRANCH   2  14
BRANCH   1  30
ATOM     30  N   UNL     1      47.076   3.276  16.923  0.00  0.00    +0.000 N 
ATOM     31  H   UNL     1      47.322   2.545  16.244  0.00  0.00    +0.000 HD
ATOM     32  H   UNL     1      47.268   2.965  17.872  0.00  0.00    +0.000 HD
ENDBRANCH   1  30
TORSDOF 6
ENDMDL
MODEL 2
REMARK VINA RESULT:    -6.749      2.179      3.126
REMARK INTER + INTRA:          -9.932
REMARK INTER:                  -8.738
REMARK INTRA:                  -1.194
REMARK UNBOUND:                -1.014
REMARK  Name = 
REMARK  6 active torsions:
REMARK  status: ('A' for Active; 'I' for Inactive)
REMARK    1  A    between atoms: N_1  and  C_2
REMARK    2  A    between atoms: C_2  and  C_18
REMARK    3  A    between atoms: C_3  and  C_4
REMARK    4  A    between atoms: C_7  and  C_8
REMARK    5  A    between atoms: C_8  and  N_9
REMARK    6  A    between atoms: N_9  and  C_10
REMARK                            x       y       z     vdW  Elec       q    Type
REMARK                         _______ _______ _______ _____ _____    ______ ____
ROOT
ATOM      1  C   UNL     1      49.056   6.048  16.528  0.00  0.00    +0.000 C 
ATOM      2  C   UNL     1      49.152   6.630  15.316  0.00  0.00    +0.000 C 
ENDROOT
BRANCH   1   3
ATOM      3  C   UNL     1      50.171   6.088  17.437  0.00  0.00    +0.000 A 
ATOM      4  C   UNL     1      50.578   7.263  18.037  0.00  0.00    +0.000 A 
ATOM      5  S   UNL     1      51.907   7.021  19.089  0.00  0.00    +0.000 S 
ATOM      6  C   UNL     1      51.936   5.346  18.764  0.00  0.00    +0.000 A 
ATOM      7  N   UNL     1      52.847   4.527  19.360  0.00  0.00    +0.000 NA
ATOM      8  C   UNL     1      52.738   3.285  19.020  0.00  0.00    +0.000 A 
ATOM      9  N   UNL     1      51.808   2.783  18.147  0.00  0.00    +0.000 N 
ATOM     10  C   UNL     1      50.860   3.569  17.529  0.00  0.00    +0.000 A 
ATOM     11  O   UNL     1      50.028   3.083  16.769  0.00  0.00    +0.000 OA
ATOM     12  C   UNL     1      50.951   4.974  17.870  0.00  0.00    +0.000 A 
ATOM     13  H   UNL     1      51.773   1.799  17.930  0.00  0.00    +0.000 HD
ENDBRANCH   1   3
BRANCH   2  14
ATOM     14  C   UNL     1      48.085   6.703  14.307  0.00  0.00    +0.000 A 
ATOM     15  C   UNL     1      47.532   7.927  13.955  0.00  0.00    +0.000 A 
ATOM     16  N   UNL     1      46.522   8.048  13.065  0.00  0.00    +0.000 NA
ATOM     17  C   UNL     1      46.063   6.894  12.507  0.00  0.00    +0.000 A 
ATOM     18  C   UNL     1      46.627   5.671  12.851  0.00  0.00    +0.000 A 
ATOM     19  N   UNL     1      47.640   5.547  13.747  0.00  0.00    +0.000 NA
BRANCH  17  20
ATOM     20  C   UNL     1      44.905   6.965  11.522  0.00  0.00    +0.000 C 
BRANCH  20  21
ATOM     21  N   UNL     1      44.884   5.792  10.658  0.00  0.00    +0.000 NA
ATOM     22  H   UNL     1      45.735   5.247  10.782  0.00  0.00    +0.000 HD
BRANCH  21  23
ATOM     23  C   UNL     1      43.669   4.995  10.589  0.00  0.00    +0.000 C 
ATOM     24  C   UNL     1      42.801   4.951  11.858  0.00  0.00    +0.000 C 
ATOM     25  C   UNL     1      43.405   4.110  12.980  0.00  0.00    +0.000 C 
ATOM     26  N   UNL     1      43.767   2.761  12.538  0.00  0.00    +0.000 NA
ATOM     27  C   UNL     1      44.702   2.820  11.413  0.00  0.00    +0.000 C 
ATOM     28  C   UNL     1      44.091   3.560  10.222  0.00  0.00    +0.000 C 
ATOM     29  H   UNL     1      42.925   2.268  12.239  0.00  0.00    +0.000 HD
ENDBRANCH  21  23
ENDBRANCH  20  21
ENDBRANCH  17  20
ENDBRANCH   2  14
BRANCH   1  30
ATOM     30  N   UNL     1      47.908   5.428  16.990  0.00  0.00    +0.000 N 
ATOM     31  H   UNL     1      47.717   5.730  17.953  0.00  0.00    +0.000 HD
ATOM     32  H   UNL     1      47.108   5.610  16.389  0.00  0.00    +0.000 HD
ENDBRANCH   1  30
TORSDOF 6
ENDMDL
MODEL 3
REMARK VINA RESULT:    -6.610      1.557      1.589
REMARK INTER + INTRA:          -9.748
REMARK INTER:                  -8.705
REMARK INTRA:                  -1.043
REMARK UNBOUND:                -1.014
REMARK  Name = 
REMARK  6 active torsions:
REMARK  status: ('A' for Active; 'I' for Inactive)
REMARK    1  A    between atoms: N_1  and  C_2
REMARK    2  A    between atoms: C_2  and  C_18
REMARK    3  A    between atoms: C_3  and  C_4
REMARK    4  A    between atoms: C_7  and  C_8
REMARK    5  A    between atoms: C_8  and  N_9
REMARK    6  A    between atoms: N_9  and  C_10
REMARK                            x       y       z     vdW  Elec       q    Type
REMARK                         _______ _______ _______ _____ _____    ______ ____
ROOT
ATOM      1  C   UNL     1      48.536   6.047  16.209  0.00  0.00    +0.000 C 
ATOM      2  C   UNL     1      48.398   6.292  14.890  0.00  0.00    +0.000 C 
ENDROOT
BRANCH   1   3
ATOM      3  C   UNL     1      49.516   6.769  16.977  0.00  0.00    +0.000 A 
ATOM      4  C   UNL     1      49.378   8.115  17.251  0.00  0.00    +0.000 A 
ATOM      5  S   UNL     1      50.669   8.713  18.202  0.00  0.00    +0.000 S 
ATOM      6  C   UNL     1      51.411   7.178  18.268  0.00  0.00    +0.000 A 
ATOM      7  N   UNL     1      52.575   6.985  18.949  0.00  0.00    +0.000 NA
ATOM      8  C   UNL     1      53.008   5.768  18.914  0.00  0.00    +0.000 A 
ATOM      9  N   UNL     1      52.391   4.727  18.270  0.00  0.00    +0.000 N 
ATOM     10  C   UNL     1      51.208   4.870  17.579  0.00  0.00    +0.000 A 
ATOM     11  O   UNL     1      50.671   3.912  17.032  0.00  0.00    +0.000 OA
ATOM     12  C   UNL     1      50.689   6.223  17.579  0.00  0.00    +0.000 A 
ATOM     13  H   UNL     1      52.780   3.797  18.289  0.00  0.00    +0.000 HD
ENDBRANCH   1   3
BRANCH   2  14
ATOM     14  C   UNL     1      47.416   5.664  13.995  0.00  0.00    +0.000 A 
ATOM     15  C   UNL     1      46.646   6.440  13.139  0.00  0.00    +0.000 A 
ATOM     16  N   UNL     1      45.701   5.920  12.325  0.00  0.00    +0.000 NA
ATOM     17  C   UNL     1      45.535   4.569  12.372  0.00  0.00    +0.000 A 
ATOM     18  C   UNL     1      46.316   3.793  13.220  0.00  0.00    +0.000 A 
ATOM     19  N   UNL     1      47.265   4.313  14.040  0.00  0.00    +0.000 NA
BRANCH  17  20
ATOM     20  C   UNL     1      44.462   3.930  11.502  0.00  0.00    +0.000 C 
BRANCH  20  21
ATOM     21  N   UNL     1      45.015   2.835  10.716  0.00  0.00    +0.000 NA
ATOM     22  H   UNL     1      45.159   2.017  11.303  0.00  0.00    +0.000 HD
BRANCH  21  23
ATOM     23  C   UNL     1      44.432   2.542   9.416  0.00  0.00    +0.000 C 
ATOM     24  C   UNL     1      45.071   1.394   8.617  0.00  0.00    +0.000 C 
ATOM     25  C   UNL     1      46.438   1.746   8.034  0.00  0.00    +0.000 C 
ATOM     26  N   UNL     1      46.413   2.985   7.254  0.00  0.00    +0.000 NA
ATOM     27  C   UNL     1      45.929   4.100   8.070  0.00  0.00    +0.000 C 
ATOM     28  C   UNL     1      44.513   3.836   8.584  0.00  0.00    +0.000 C 
ATOM     29  H   UNL     1      45.789   2.868   6.455  0.00  0.00    +0.000 HD
ENDBRANCH  21  23
ENDBRANCH  20  21
ENDBRANCH  17  20
ENDBRANCH   2  14
BRANCH   1  30
ATOM     30  N   UNL     1      47.748   5.148  16.906  0.00  0.00    +0.000 N 
ATOM     31  H   UNL     1      46.801   5.139  16.507  0.00  0.00    +0.000 HD
ATOM     32  H   UNL     1      48.146   4.213  16.908  0.00  0.00    +0.000 HD
ENDBRANCH   1  30
TORSDOF 6
ENDMDL
MODEL 4
REMARK VINA RESULT:    -6.172      3.434      4.010
REMARK INTER + INTRA:          -9.170
REMARK INTER:                  -8.100
REMARK INTRA:                  -1.069
REMARK UNBOUND:                -1.014
REMARK  Name = 
REMARK  6 active torsions:
REMARK  status: ('A' for Active; 'I' for Inactive)
REMARK    1  A    between atoms: N_1  and  C_2
REMARK    2  A    between atoms: C_2  and  C_18
REMARK    3  A    between atoms: C_3  and  C_4
REMARK    4  A    between atoms: C_7  and  C_8
REMARK    5  A    between atoms: C_8  and  N_9
REMARK    6  A    between atoms: N_9  and  C_10
REMARK                            x       y       z     vdW  Elec       q    Type
REMARK                         _______ _______ _______ _____ _____    ______ ____
ROOT
ATOM      1  C   UNL     1      48.927   6.802  14.391  0.00  0.00    +0.000 C 
ATOM      2  C   UNL     1      47.824   6.091  14.698  0.00  0.00    +0.000 C 
ENDROOT
BRANCH   1   3
ATOM      3  C   UNL     1      49.730   7.374  15.438  0.00  0.00    +0.000 A 
ATOM      4  C   UNL     1      50.490   6.590  16.283  0.00  0.00    +0.000 A 
ATOM      5  S   UNL     1      51.366   7.527  17.416  0.00  0.00    +0.000 S 
ATOM      6  C   UNL     1      50.751   8.984  16.778  0.00  0.00    +0.000 A 
ATOM      7  N   UNL     1      51.115  10.191  17.294  0.00  0.00    +0.000 NA
ATOM      8  C   UNL     1      50.573  11.202  16.700  0.00  0.00    +0.000 A 
ATOM      9  N   UNL     1      49.707  11.125  15.639  0.00  0.00    +0.000 N 
ATOM     10  C   UNL     1      49.320   9.930  15.074  0.00  0.00    +0.000 A 
ATOM     11  O   UNL     1      48.561   9.898  14.111  0.00  0.00    +0.000 OA
ATOM     12  C   UNL     1      49.893   8.764  15.717  0.00  0.00    +0.000 A 
ATOM     13  H   UNL     1      49.325  11.956  15.215  0.00  0.00    +0.000 HD
ENDBRANCH   1   3
BRANCH   2  14
ATOM     14  C   UNL     1      46.937   5.417  13.739  0.00  0.00    +0.000 A 
ATOM     15  C   UNL     1      46.732   4.046  13.812  0.00  0.00    +0.000 A 
ATOM     16  N   UNL     1      45.960   3.370  12.932  0.00  0.00    +0.000 NA
ATOM     17  C   UNL     1      45.370   4.107  11.951  0.00  0.00    +0.000 A 
ATOM     18  C   UNL     1      45.566   5.481  11.887  0.00  0.00    +0.000 A 
ATOM     19  N   UNL     1      46.343   6.162  12.769  0.00  0.00    +0.000 NA
BRANCH  17  20
ATOM     20  C   UNL     1      44.516   3.395  10.912  0.00  0.00    +0.000 C 
BRANCH  20  21
ATOM     21  N   UNL     1      45.305   2.421  10.170  0.00  0.00    +0.000 NA
ATOM     22  H   UNL     1      45.551   1.636  10.768  0.00  0.00    +0.000 HD
BRANCH  21  23
ATOM     23  C   UNL     1      44.873   2.041   8.833  0.00  0.00    +0.000 C 
ATOM     24  C   UNL     1      45.757   1.029   8.086  0.00  0.00    +0.000 C 
ATOM     25  C   UNL     1      47.078   1.619   7.596  0.00  0.00    +0.000 C 
ATOM     26  N   UNL     1      46.890   2.841   6.812  0.00  0.00    +0.000 NA
ATOM     27  C   UNL     1      46.164   3.847   7.588  0.00  0.00    +0.000 C 
ATOM     28  C   UNL     1      44.783   3.335   8.004  0.00  0.00    +0.000 C 
ATOM     29  H   UNL     1      46.352   2.623   5.972  0.00  0.00    +0.000 HD
ENDBRANCH  21  23
ENDBRANCH  20  21
ENDBRANCH  17  20
ENDBRANCH   2  14
BRANCH   1  30
ATOM     30  N   UNL     1      49.376   6.994  13.096  0.00  0.00    +0.000 N 
ATOM     31  H   UNL     1      50.276   6.515  12.969  0.00  0.00    +0.000 HD
ATOM     32  H   UNL     1      48.700   6.679  12.407  0.00  0.00    +0.000 HD
ENDBRANCH   1  30
TORSDOF 6
ENDMDL
MODEL 5
REMARK VINA RESULT:    -5.963      3.318      9.685
REMARK INTER + INTRA:          -8.893
REMARK INTER:                  -7.889
REMARK INTRA:                  -1.004
REMARK UNBOUND:                -1.014
REMARK  Name = 
REMARK  6 active torsions:
REMARK  status: ('A' for Active; 'I' for Inactive)
REMARK    1  A    between atoms: N_1  and  C_2
REMARK    2  A    between atoms: C_2  and  C_18
REMARK    3  A    between atoms: C_3  and  C_4
REMARK    4  A    between atoms: C_7  and  C_8
REMARK    5  A    between atoms: C_8  and  N_9
REMARK    6  A    between atoms: N_9  and  C_10
REMARK                            x       y       z     vdW  Elec       q    Type
REMARK                         _______ _______ _______ _____ _____    ______ ____
ROOT
ATOM      1  C   UNL     1      45.842   5.020  13.256  0.00  0.00    +0.000 C 
ATOM      2  C   UNL     1      46.805   4.443  14.003  0.00  0.00    +0.000 C 
ENDROOT
BRANCH   1   3
ATOM      3  C   UNL     1      45.070   4.225  12.338  0.00  0.00    +0.000 A 
ATOM      4  C   UNL     1      44.177   3.268  12.777  0.00  0.00    +0.000 A 
ATOM      5  S   UNL     1      43.376   2.492  11.479  0.00  0.00    +0.000 S 
ATOM      6  C   UNL     1      44.201   3.439  10.324  0.00  0.00    +0.000 A 
ATOM      7  N   UNL     1      43.971   3.286   8.990  0.00  0.00    +0.000 NA
ATOM      8  C   UNL     1      44.665   4.079   8.243  0.00  0.00    +0.000 A 
ATOM      9  N   UNL     1      45.562   5.011   8.698  0.00  0.00    +0.000 N 
ATOM     10  C   UNL     1      45.819   5.211  10.037  0.00  0.00    +0.000 A 
ATOM     11  O   UNL     1      46.613   6.069  10.410  0.00  0.00    +0.000 OA
ATOM     12  C   UNL     1      45.073   4.333  10.915  0.00  0.00    +0.000 A 
ATOM     13  H   UNL     1      46.066   5.606   8.059  0.00  0.00    +0.000 HD
ENDBRANCH   1   3
BRANCH   2  14
ATOM     14  C   UNL     1      47.639   5.119  15.007  0.00  0.00    +0.000 A 
ATOM     15  C   UNL     1      47.703   4.640  16.308  0.00  0.00    +0.000 A 
ATOM     16  N   UNL     1      48.420   5.245  17.280  0.00  0.00    +0.000 NA
ATOM     17  C   UNL     1      49.102   6.368  16.922  0.00  0.00    +0.000 A 
ATOM     18  C   UNL     1      49.047   6.839  15.616  0.00  0.00    +0.000 A 
ATOM     19  N   UNL     1      48.325   6.234  14.638  0.00  0.00    +0.000 NA
BRANCH  17  20
ATOM     20  C   UNL     1      49.901   7.112  17.983  0.00  0.00    +0.000 C 
BRANCH  20  21
ATOM     21  N   UNL     1      49.026   7.621  19.031  0.00  0.00    +0.000 NA
ATOM     22  H   UNL     1      48.051   7.507  18.763  0.00  0.00    +0.000 HD
BRANCH  21  23
ATOM     23  C   UNL     1      49.310   7.269  20.413  0.00  0.00    +0.000 C 
ATOM     24  C   UNL     1      50.105   5.973  20.644  0.00  0.00    +0.000 C 
ATOM     25  C   UNL     1      49.292   4.706  20.386  0.00  0.00    +0.000 C 
ATOM     26  N   UNL     1      48.027   4.692  21.125  0.00  0.00    +0.000 NA
ATOM     27  C   UNL     1      47.220   5.866  20.791  0.00  0.00    +0.000 C 
ATOM     28  C   UNL     1      47.957   7.162  21.139  0.00  0.00    +0.000 C 
ATOM     29  H   UNL     1      48.222   4.701  22.127  0.00  0.00    +0.000 HD
ENDBRANCH  21  23
ENDBRANCH  20  21
ENDBRANCH  17  20
ENDBRANCH   2  14
BRANCH   1  30
ATOM     30  N   UNL     1      45.508   6.360  13.342  0.00  0.00    +0.000 N 
ATOM     31  H   UNL     1      44.508   6.479  13.137  0.00  0.00    +0.000 HD
ATOM     32  H   UNL     1      45.739   6.753  14.250  0.00  0.00    +0.000 HD
ENDBRANCH   1  30
TORSDOF 6
ENDMDL
MODEL 6
REMARK VINA RESULT:    -5.927      3.121      8.977
REMARK INTER + INTRA:          -8.846
REMARK INTER:                  -8.272
REMARK INTRA:                  -0.574
REMARK UNBOUND:                -1.014
REMARK  Name = 
REMARK  6 active torsions:
REMARK  status: ('A' for Active; 'I' for Inactive)
REMARK    1  A    between atoms: N_1  and  C_2
REMARK    2  A    between atoms: C_2  and  C_18
REMARK    3  A    between atoms: C_3  and  C_4
REMARK    4  A    between atoms: C_7  and  C_8
REMARK    5  A    between atoms: C_8  and  N_9
REMARK    6  A    between atoms: N_9  and  C_10
REMARK                            x       y       z     vdW  Elec       q    Type
REMARK                         _______ _______ _______ _____ _____    ______ ____
ROOT
ATOM      1  C   UNL     1      47.314   5.838  13.773  0.00  0.00    +0.000 C 
ATOM      2  C   UNL     1      47.132   5.380  15.028  0.00  0.00    +0.000 C 
ENDROOT
BRANCH   1   3
ATOM      3  C   UNL     1      46.187   5.996  12.892  0.00  0.00    +0.000 A 
ATOM      4  C   UNL     1      45.781   7.237  12.444  0.00  0.00    +0.000 A 
ATOM      5  S   UNL     1      44.436   7.134  11.392  0.00  0.00    +0.000 S 
ATOM      6  C   UNL     1      44.396   5.432  11.513  0.00  0.00    +0.000 A 
ATOM      7  N   UNL     1      43.470   4.697  10.836  0.00  0.00    +0.000 NA
ATOM      8  C   UNL     1      43.573   3.423  11.022  0.00  0.00    +0.000 A 
ATOM      9  N   UNL     1      44.511   2.812  11.814  0.00  0.00    +0.000 N 
ATOM     10  C   UNL     1      45.474   3.511  12.508  0.00  0.00    +0.000 A 
ATOM     11  O   UNL     1      46.312   2.931  13.191  0.00  0.00    +0.000 OA
ATOM     12  C   UNL     1      45.391   4.948  12.340  0.00  0.00    +0.000 A 
ATOM     13  H   UNL     1      44.540   1.809  11.910  0.00  0.00    +0.000 HD
ENDBRANCH   1   3
BRANCH   2  14
ATOM     14  C   UNL     1      48.179   5.210  16.044  0.00  0.00    +0.000 A 
ATOM     15  C   UNL     1      48.046   4.251  17.039  0.00  0.00    +0.000 A 
ATOM     16  N   UNL     1      48.958   4.079  18.022  0.00  0.00    +0.000 NA
ATOM     17  C   UNL     1      50.045   4.899  17.991  0.00  0.00    +0.000 A 
ATOM     18  C   UNL     1      50.183   5.849  16.987  0.00  0.00    +0.000 A 
ATOM     19  N   UNL     1      49.267   6.025  16.000  0.00  0.00    +0.000 NA
BRANCH  17  20
ATOM     20  C   UNL     1      51.090   4.774  19.091  0.00  0.00    +0.000 C 
BRANCH  20  21
ATOM     21  N   UNL     1      51.724   3.462  19.059  0.00  0.00    +0.000 NA
ATOM     22  H   UNL     1      51.181   2.794  19.601  0.00  0.00    +0.000 HD
BRANCH  21  23
ATOM     23  C   UNL     1      52.205   2.949  17.786  0.00  0.00    +0.000 C 
ATOM     24  C   UNL     1      51.590   1.625  17.301  0.00  0.00    +0.000 C 
ATOM     25  C   UNL     1      52.071   0.406  18.086  0.00  0.00    +0.000 C 
ATOM     26  N   UNL     1      53.532   0.321  18.149  0.00  0.00    +0.000 NA
ATOM     27  C   UNL     1      54.096   1.537  18.739  0.00  0.00    +0.000 C 
ATOM     28  C   UNL     1      53.729   2.774  17.917  0.00  0.00    +0.000 C 
ATOM     29  H   UNL     1      53.904   0.212  17.204  0.00  0.00    +0.000 HD
ENDBRANCH  21  23
ENDBRANCH  20  21
ENDBRANCH  17  20
ENDBRANCH   2  14
BRANCH   1  30
ATOM     30  N   UNL     1      48.546   6.217  13.269  0.00  0.00    +0.000 N 
ATOM     31  H   UNL     1      48.564   6.063  12.253  0.00  0.00    +0.000 HD
ATOM     32  H   UNL     1      48.769   7.183  13.491  0.00  0.00    +0.000 HD
ENDBRANCH   1  30
TORSDOF 6
ENDMDL
MODEL 7
REMARK VINA RESULT:    -5.855      3.038      9.506
REMARK INTER + INTRA:          -8.751
REMARK INTER:                  -7.685
REMARK INTRA:                  -1.066
REMARK UNBOUND:                -1.014
REMARK  Name = 
REMARK  6 active torsions:
REMARK  status: ('A' for Active; 'I' for Inactive)
REMARK    1  A    between atoms: N_1  and  C_2
REMARK    2  A    between atoms: C_2  and  C_18
REMARK    3  A    between atoms: C_3  and  C_4
REMARK    4  A    between atoms: C_7  and  C_8
REMARK    5  A    between atoms: C_8  and  N_9
REMARK    6  A    between atoms: N_9  and  C_10
REMARK                            x       y       z     vdW  Elec       q    Type
REMARK                         _______ _______ _______ _____ _____    ______ ____
ROOT
ATOM      1  C   UNL     1      45.845   5.015  13.499  0.00  0.00    +0.000 C 
ATOM      2  C   UNL     1      46.759   4.404  14.278  0.00  0.00    +0.000 C 
ENDROOT
BRANCH   1   3
ATOM      3  C   UNL     1      45.096   4.254  12.534  0.00  0.00    +0.000 A 
ATOM      4  C   UNL     1      44.203   3.273  12.917  0.00  0.00    +0.000 A 
ATOM      5  S   UNL     1      43.432   2.545  11.574  0.00  0.00    +0.000 S 
ATOM      6  C   UNL     1      44.271   3.544  10.474  0.00  0.00    +0.000 A 
ATOM      7  N   UNL     1      44.067   3.445   9.131  0.00  0.00    +0.000 NA
ATOM      8  C   UNL     1      44.768   4.273   8.430  0.00  0.00    +0.000 A 
ATOM      9  N   UNL     1      45.649   5.192   8.940  0.00  0.00    +0.000 N 
ATOM     10  C   UNL     1      45.880   5.339  10.290  0.00  0.00    +0.000 A 
ATOM     11  O   UNL     1      46.660   6.186  10.713  0.00  0.00    +0.000 OA
ATOM     12  C   UNL     1      45.125   4.420  11.118  0.00  0.00    +0.000 A 
ATOM     13  H   UNL     1      46.161   5.816   8.335  0.00  0.00    +0.000 HD
ENDBRANCH   1   3
BRANCH   2  14
ATOM     14  C   UNL     1      47.563   5.045  15.329  0.00  0.00    +0.000 A 
ATOM     15  C   UNL     1      47.497   4.594  16.640  0.00  0.00    +0.000 A 
ATOM     16  N   UNL     1      48.182   5.171  17.652  0.00  0.00    +0.000 NA
ATOM     17  C   UNL     1      48.967   6.235  17.325  0.00  0.00    +0.000 A 
ATOM     18  C   UNL     1      49.041   6.677  16.009  0.00  0.00    +0.000 A 
ATOM     19  N   UNL     1      48.352   6.100  14.991  0.00  0.00    +0.000 NA
BRANCH  17  20
ATOM     20  C   UNL     1      49.736   6.947  18.429  0.00  0.00    +0.000 C 
BRANCH  20  21
ATOM     21  N   UNL     1      50.630   6.024  19.116  0.00  0.00    +0.000 NA
ATOM     22  H   UNL     1      50.144   5.158  19.334  0.00  0.00    +0.000 HD
BRANCH  21  23
ATOM     23  C   UNL     1      51.978   5.840  18.600  0.00  0.00    +0.000 C 
ATOM     24  C   UNL     1      52.180   4.691  17.598  0.00  0.00    +0.000 C 
ATOM     25  C   UNL     1      52.132   3.306  18.243  0.00  0.00    +0.000 C 
ATOM     26  N   UNL     1      53.046   3.186  19.381  0.00  0.00    +0.000 NA
ATOM     27  C   UNL     1      52.752   4.205  20.390  0.00  0.00    +0.000 C 
ATOM     28  C   UNL     1      52.898   5.614  19.813  0.00  0.00    +0.000 C 
ATOM     29  H   UNL     1      54.006   3.312  19.057  0.00  0.00    +0.000 HD
ENDBRANCH  21  23
ENDBRANCH  20  21
ENDBRANCH  17  20
ENDBRANCH   2  14
BRANCH   1  30
ATOM     30  N   UNL     1      45.538   6.362  13.591  0.00  0.00    +0.000 N 
ATOM     31  H   UNL     1      45.599   6.662  14.572  0.00  0.00    +0.000 HD
ATOM     32  H   UNL     1      46.140   6.931  13.003  0.00  0.00    +0.000 HD
ENDBRANCH   1  30
TORSDOF 6
ENDMDL
MODEL 8
REMARK VINA RESULT:    -5.796      3.580      9.426
REMARK INTER + INTRA:          -8.673
REMARK INTER:                  -7.687
REMARK INTRA:                  -0.987
REMARK UNBOUND:                -1.014
REMARK  Name = 
REMARK  6 active torsions:
REMARK  status: ('A' for Active; 'I' for Inactive)
REMARK    1  A    between atoms: N_1  and  C_2
REMARK    2  A    between atoms: C_2  and  C_18
REMARK    3  A    between atoms: C_3  and  C_4
REMARK    4  A    between atoms: C_7  and  C_8
REMARK    5  A    between atoms: C_8  and  N_9
REMARK    6  A    between atoms: N_9  and  C_10
REMARK                            x       y       z     vdW  Elec       q    Type
REMARK                         _______ _______ _______ _____ _____    ______ ____
ROOT
ATOM      1  C   UNL     1      46.838   4.728  13.783  0.00  0.00    +0.000 C 
ATOM      2  C   UNL     1      46.800   4.234  15.037  0.00  0.00    +0.000 C 
ENDROOT
BRANCH   1   3
ATOM      3  C   UNL     1      45.715   4.543  12.902  0.00  0.00    +0.000 A 
ATOM      4  C   UNL     1      45.281   3.286  12.530  0.00  0.00    +0.000 A 
ATOM      5  S   UNL     1      43.915   3.355  11.501  0.00  0.00    +0.000 S 
ATOM      6  C   UNL     1      43.882   5.060  11.559  0.00  0.00    +0.000 A 
ATOM      7  N   UNL     1      42.934   5.772  10.889  0.00  0.00    +0.000 NA
ATOM      8  C   UNL     1      43.035   7.052  11.036  0.00  0.00    +0.000 A 
ATOM      9  N   UNL     1      43.988   7.688  11.790  0.00  0.00    +0.000 N 
ATOM     10  C   UNL     1      44.959   7.012  12.495  0.00  0.00    +0.000 A 
ATOM     11  O   UNL     1      45.783   7.612  13.177  0.00  0.00    +0.000 OA
ATOM     12  C   UNL     1      44.894   5.571  12.350  0.00  0.00    +0.000 A 
ATOM     13  H   UNL     1      44.005   8.693  11.869  0.00  0.00    +0.000 HD
ENDBRANCH   1   3
BRANCH   2  14
ATOM     14  C   UNL     1      47.851   4.383  16.054  0.00  0.00    +0.000 A 
ATOM     15  C   UNL     1      48.075   3.380  16.987  0.00  0.00    +0.000 A 
ATOM     16  N   UNL     1      48.999   3.481  17.968  0.00  0.00    +0.000 NA
ATOM     17  C   UNL     1      49.727   4.631  18.000  0.00  0.00    +0.000 A 
ATOM     18  C   UNL     1      49.511   5.628  17.056  0.00  0.00    +0.000 A 
ATOM     19  N   UNL     1      48.581   5.530  16.071  0.00  0.00    +0.000 NA
BRANCH  17  20
ATOM     20  C   UNL     1      50.760   4.815  19.102  0.00  0.00    +0.000 C 
BRANCH  20  21
ATOM     21  N   UNL     1      51.673   3.681  19.154  0.00  0.00    +0.000 NA
ATOM     22  H   UNL     1      51.214   2.877  19.574  0.00  0.00    +0.000 HD
BRANCH  21  23
ATOM     23  C   UNL     1      52.467   3.368  17.975  0.00  0.00    +0.000 C 
ATOM     24  C   UNL     1      53.111   1.972  17.930  0.00  0.00    +0.000 C 
ATOM     25  C   UNL     1      54.291   1.815  18.887  0.00  0.00    +0.000 C 
ATOM     26  N   UNL     1      55.294   2.868  18.718  0.00  0.00    +0.000 NA
ATOM     27  C   UNL     1      54.692   4.190  18.898  0.00  0.00    +0.000 C 
ATOM     28  C   UNL     1      53.574   4.433  17.882  0.00  0.00    +0.000 C 
ATOM     29  H   UNL     1      55.687   2.812  17.777  0.00  0.00    +0.000 HD
ENDBRANCH  21  23
ENDBRANCH  20  21
ENDBRANCH  17  20
ENDBRANCH   2  14
BRANCH   1  30
ATOM     30  N   UNL     1      47.901   5.457  13.280  0.00  0.00    +0.000 N 
ATOM     31  H   UNL     1      48.678   5.440  13.952  0.00  0.00    +0.000 HD
ATOM     32  H   UNL     1      48.202   5.114  12.372  0.00  0.00    +0.000 HD
ENDBRANCH   1  30
TORSDOF 6
ENDMDL
MODEL 9
REMARK VINA RESULT:    -5.761      5.746      8.636
REMARK INTER + INTRA:          -8.627
REMARK INTER:                  -7.670
REMARK INTRA:                  -0.957
REMARK UNBOUND:                -1.014
REMARK  Name = 
REMARK  6 active torsions:
REMARK  status: ('A' for Active; 'I' for Inactive)
REMARK    1  A    between atoms: N_1  and  C_2
REMARK    2  A    between atoms: C_2  and  C_18
REMARK    3  A    between atoms: C_3  and  C_4
REMARK    4  A    between atoms: C_7  and  C_8
REMARK    5  A    between atoms: C_8  and  N_9
REMARK    6  A    between atoms: N_9  and  C_10
REMARK                            x       y       z     vdW  Elec       q    Type
REMARK                         _______ _______ _______ _____ _____    ______ ____
ROOT
ATOM      1  C   UNL     1      46.703   6.579  12.741  0.00  0.00    +0.000 C 
ATOM      2  C   UNL     1      47.565   7.264  11.963  0.00  0.00    +0.000 C 
ENDROOT
BRANCH   1   3
ATOM      3  C   UNL     1      45.420   6.185  12.221  0.00  0.00    +0.000 A 
ATOM      4  C   UNL     1      44.561   7.096  11.637  0.00  0.00    +0.000 A 
ATOM      5  S   UNL     1      43.121   6.357  11.083  0.00  0.00    +0.000 S 
ATOM      6  C   UNL     1      43.640   4.816  11.601  0.00  0.00    +0.000 A 
ATOM      7  N   UNL     1      42.865   3.711  11.417  0.00  0.00    +0.000 NA
ATOM      8  C   UNL     1      43.397   2.618  11.855  0.00  0.00    +0.000 A 
ATOM      9  N   UNL     1      44.627   2.522  12.454  0.00  0.00    +0.000 N 
ATOM     10  C   UNL     1      45.451   3.608  12.651  0.00  0.00    +0.000 A 
ATOM     11  O   UNL     1      46.555   3.482  13.171  0.00  0.00    +0.000 OA
ATOM     12  C   UNL     1      44.890   4.861  12.187  0.00  0.00    +0.000 A 
ATOM     13  H   UNL     1      44.987   1.633  12.767  0.00  0.00    +0.000 HD
ENDBRANCH   1   3
BRANCH   2  14
ATOM     14  C   UNL     1      48.918   7.692  12.346  0.00  0.00    +0.000 A 
ATOM     15  C   UNL     1      49.950   7.678  11.417  0.00  0.00    +0.000 A 
ATOM     16  N   UNL     1      51.220   8.022  11.725  0.00  0.00    +0.000 NA
ATOM     17  C   UNL     1      51.452   8.401  13.012  0.00  0.00    +0.000 A 
ATOM     18  C   UNL     1      50.415   8.427  13.936  0.00  0.00    +0.000 A 
ATOM     19  N   UNL     1      49.138   8.080  13.630  0.00  0.00    +0.000 NA
BRANCH  17  20
ATOM     20  C   UNL     1      52.871   8.768  13.425  0.00  0.00    +0.000 C 
BRANCH  20  21
ATOM     21  N   UNL     1      53.771   7.635  13.252  0.00  0.00    +0.000 NA
ATOM     22  H   UNL     1      53.259   6.826  12.910  0.00  0.00    +0.000 HD
BRANCH  21  23
ATOM     23  C   UNL     1      55.052   7.853  12.598  0.00  0.00    +0.000 C 
ATOM     24  C   UNL     1      55.036   8.710  11.321  0.00  0.00    +0.000 C 
ATOM     25  C   UNL     1      54.430   7.995  10.115  0.00  0.00    +0.000 C 
ATOM     26  N   UNL     1      55.046   6.689   9.870  0.00  0.00    +0.000 NA
ATOM     27  C   UNL     1      54.933   5.834  11.052  0.00  0.00    +0.000 C 
ATOM     28  C   UNL     1      55.627   6.465  12.261  0.00  0.00    +0.000 C 
ATOM     29  H   UNL     1      56.035   6.819   9.651  0.00  0.00    +0.000 HD
ENDBRANCH  21  23
ENDBRANCH  20  21
ENDBRANCH  17  20
ENDBRANCH   2  14
BRANCH   1  30
ATOM     30  N   UNL     1      46.991   6.181  14.035  0.00  0.00    +0.000 N 
ATOM     31  H   UNL     1      47.752   5.491  14.021  0.00  0.00    +0.000 HD
ATOM     32  H   UNL     1      47.228   6.968  14.632  0.00  0.00    +0.000 HD
ENDBRANCH   1  30
TORSDOF 6
ENDMDL
