MODEL 1
REMARK VINA RESULT:    -7.414      0.000      0.000
REMARK INTER + INTRA:         -12.701
REMARK INTER:                 -11.099
REMARK INTRA:                  -1.602
REMARK UNBOUND:                -1.602
REMARK  Name = 
REMARK  11 active torsions:
REMARK  status: ('A' for Active; 'I' for Inactive)
REMARK    1  A    between atoms: C_1  and  C_2
REMARK    2  A    between atoms: C_2  and  N_3
REMARK    3  A    between atoms: C_2  and  C_20
REMARK    4  A    between atoms: N_3  and  C_4
REMARK    5  A    between atoms: C_4  and  C_5
REMARK    6  A    between atoms: C_8  and  C_9
REMARK    7  A    between atoms: C_9  and  O_10
REMARK    8  A    between atoms: C_9  and  C_11
REMARK    9  A    between atoms: C_11  and  N_12
REMARK   10  A    between atoms: N_12  and  C_13
REMARK   11  A    between atoms: N_26  and  C_27
REMARK                            x       y       z     vdW  Elec       q    Type
REMARK                         _______ _______ _______ _____ _____    ______ ____
ROOT
ATOM      1  C   UNL     1      47.334   6.544  12.987  0.00  0.00    +0.000 A 
ATOM      2  C   UNL     1      47.170   5.332  13.669  0.00  0.00    +0.000 A 
ATOM      3  C   UNL     1      45.943   4.674  13.662  0.00  0.00    +0.000 A 
ATOM      4  C   UNL     1      44.848   5.210  12.967  0.00  0.00    +0.000 A 
ATOM      5  C   UNL     1      45.013   6.430  12.294  0.00  0.00    +0.000 A 
ATOM      6  C   UNL     1      46.241   7.093  12.306  0.00  0.00    +0.000 A 
ENDROOT
BRANCH   1   7
ATOM      7  C   UNL     1      48.632   7.305  13.084  0.00  0.00    +0.000 C 
BRANCH   7   8
ATOM      8  N   UNL     1      49.594   6.671  13.994  0.00  0.00    +0.000 NA
ATOM      9  H   UNL     1      50.314   6.242  13.399  0.00  0.00    +0.000 HD
BRANCH   8  11
ATOM     10  C   UNL     1      50.667   8.908  14.063  0.00  0.00    +0.000 C 
ATOM     11  C   UNL     1      50.264   7.650  14.861  0.00  0.00    +0.000 C 
BRANCH  11  12
ATOM     12  C   UNL     1      49.342   7.988  16.036  0.00  0.00    +0.000 A 
ATOM     13  C   UNL     1      48.841   9.256  16.297  0.00  0.00    +0.000 A 
ATOM     14  S   UNL     1      47.949   9.371  17.742  0.00  0.00    +0.000 S 
ATOM     15  C   UNL     1      48.154   7.717  18.064  0.00  0.00    +0.000 A 
ATOM     16  N   UNL     1      47.621   7.166  19.182  0.00  0.00    +0.000 NA
ATOM     17  C   UNL     1      47.812   5.892  19.289  0.00  0.00    +0.000 A 
ATOM     18  N   UNL     1      48.500   5.102  18.383  0.00  0.00    +0.000 N 
ATOM     19  C   UNL     1      48.585   3.676  18.604  0.00  0.00    +0.000 C 
ATOM     20  C   UNL     1      49.094   5.645  17.241  0.00  0.00    +0.000 A 
ATOM     21  O   UNL     1      49.730   4.975  16.429  0.00  0.00    +0.000 OA
ATOM     22  C   UNL     1      48.890   7.080  17.081  0.00  0.00    +0.000 A 
ENDBRANCH  11  12
ENDBRANCH   8  11
ENDBRANCH   7   8
ENDBRANCH   1   7
BRANCH   4  23
ATOM     23  C   UNL     1      43.532   4.459  12.938  0.00  0.00    +0.000 C 
BRANCH  23  24
ATOM     24  O   UNL     1      42.465   5.312  13.371  0.00  0.00    +0.000 OA
ATOM     25  H   UNL     1      42.192   5.018  14.256  0.00  0.00    +0.000 HD
ENDBRANCH  23  24
BRANCH  23  26
ATOM     26  C   UNL     1      43.169   3.909  11.536  0.00  0.00    +0.000 C 
BRANCH  26  27
ATOM     27  N   UNL     1      43.961   2.744  11.120  0.00  0.00    +0.000 NA
ATOM     28  H   UNL     1      43.340   2.001  10.800  0.00  0.00    +0.000 HD
BRANCH  27  29
ATOM     29  C   UNL     1      44.932   3.080  10.083  0.00  0.00    +0.000 C 
ATOM     30  C   UNL     1      45.102   2.011   9.020  0.00  0.00    +0.000 C 
ATOM     31  C   UNL     1      45.711   2.792   7.877  0.00  0.00    +0.000 C 
ATOM     32  O   UNL     1      45.209   4.132   7.961  0.00  0.00    +0.000 OA
ATOM     33  C   UNL     1      44.528   4.277   9.219  0.00  0.00    +0.000 C 
ENDBRANCH  27  29
ENDBRANCH  26  27
ENDBRANCH  23  26
ENDBRANCH   4  23
TORSDOF 9
ENDMDL
MODEL 2
REMARK VINA RESULT:    -7.344      1.937      2.516
REMARK INTER + INTRA:         -12.596
REMARK INTER:                 -11.395
REMARK INTRA:                  -1.200
REMARK UNBOUND:                -1.602
REMARK  Name = 
REMARK  11 active torsions:
REMARK  status: ('A' for Active; 'I' for Inactive)
REMARK    1  A    between atoms: C_1  and  C_2
REMARK    2  A    between atoms: C_2  and  N_3
REMARK    3  A    between atoms: C_2  and  C_20
REMARK    4  A    between atoms: N_3  and  C_4
REMARK    5  A    between atoms: C_4  and  C_5
REMARK    6  A    between atoms: C_8  and  C_9
REMARK    7  A    between atoms: C_9  and  O_10
REMARK    8  A    between atoms: C_9  and  C_11
REMARK    9  A    between atoms: C_11  and  N_12
REMARK   10  A    between atoms: N_12  and  C_13
REMARK   11  A    between atoms: N_26  and  C_27
REMARK                            x       y       z     vdW  Elec       q    Type
REMARK                         _______ _______ _______ _____ _____    ______ ____
ROOT
ATOM      1  C   UNL     1      45.805   6.753  12.313  0.00  0.00    +0.000 A 
ATOM      2  C   UNL     1      45.982   6.271  11.010  0.00  0.00    +0.000 A 
ATOM      3  C   UNL     1      45.483   5.025  10.639  0.00  0.00    +0.000 A 
ATOM      4  C   UNL     1      44.788   4.230  11.564  0.00  0.00    +0.000 A 
ATOM      5  C   UNL     1      44.622   4.711  12.872  0.00  0.00    +0.000 A 
ATOM      6  C   UNL     1      45.127   5.958  13.244  0.00  0.00    +0.000 A 
ENDROOT
BRANCH   1   7
ATOM      7  C   UNL     1      46.437   8.054  12.738  0.00  0.00    +0.000 C 
BRANCH   7   8
ATOM      8  N   UNL     1      47.145   7.948  14.020  0.00  0.00    +0.000 NA
ATOM      9  H   UNL     1      46.528   7.416  14.646  0.00  0.00    +0.000 HD
BRANCH   8  11
ATOM     10  C   UNL     1      49.313   7.820  12.818  0.00  0.00    +0.000 C 
ATOM     11  C   UNL     1      48.403   7.197  13.897  0.00  0.00    +0.000 C 
BRANCH  11  12
ATOM     12  C   UNL     1      49.088   7.147  15.266  0.00  0.00    +0.000 A 
ATOM     13  C   UNL     1      49.963   8.116  15.738  0.00  0.00    +0.000 A 
ATOM     14  S   UNL     1      50.680   7.741  17.235  0.00  0.00    +0.000 S 
ATOM     15  C   UNL     1      49.817   6.283  17.343  0.00  0.00    +0.000 A 
ATOM     16  N   UNL     1      49.982   5.467  18.415  0.00  0.00    +0.000 NA
ATOM     17  C   UNL     1      49.238   4.411  18.397  0.00  0.00    +0.000 A 
ATOM     18  N   UNL     1      48.338   4.076  17.400  0.00  0.00    +0.000 N 
ATOM     19  C   UNL     1      47.527   2.888  17.542  0.00  0.00    +0.000 C 
ATOM     20  C   UNL     1      48.171   4.875  16.265  0.00  0.00    +0.000 A 
ATOM     21  O   UNL     1      47.396   4.595  15.352  0.00  0.00    +0.000 OA
ATOM     22  C   UNL     1      48.988   6.083  16.255  0.00  0.00    +0.000 A 
ENDBRANCH  11  12
ENDBRANCH   8  11
ENDBRANCH   7   8
ENDBRANCH   1   7
BRANCH   4  23
ATOM     23  C   UNL     1      44.217   2.894  11.131  0.00  0.00    +0.000 C 
BRANCH  23  24
ATOM     24  O   UNL     1      42.808   2.850  11.388  0.00  0.00    +0.000 OA
ATOM     25  H   UNL     1      42.452   3.741  11.232  0.00  0.00    +0.000 HD
ENDBRANCH  23  24
BRANCH  23  26
ATOM     26  C   UNL     1      44.441   2.588   9.629  0.00  0.00    +0.000 C 
BRANCH  26  27
ATOM     27  N   UNL     1      45.627   1.767   9.350  0.00  0.00    +0.000 NA
ATOM     28  H   UNL     1      45.462   0.807   9.651  0.00  0.00    +0.000 HD
BRANCH  27  29
ATOM     29  C   UNL     1      46.001   1.802   7.939  0.00  0.00    +0.000 C 
ATOM     30  C   UNL     1      46.573   3.130   7.480  0.00  0.00    +0.000 C 
ATOM     31  C   UNL     1      47.315   2.740   6.221  0.00  0.00    +0.000 C 
ATOM     32  O   UNL     1      47.772   1.393   6.397  0.00  0.00    +0.000 OA
ATOM     33  C   UNL     1      47.149   0.858   7.577  0.00  0.00    +0.000 C 
ENDBRANCH  27  29
ENDBRANCH  26  27
ENDBRANCH  23  26
ENDBRANCH   4  23
TORSDOF 9
ENDMDL
MODEL 3
REMARK VINA RESULT:    -6.972      2.446      3.434
REMARK INTER + INTRA:         -12.038
REMARK INTER:                 -11.218
REMARK INTRA:                  -0.820
REMARK UNBOUND:                -1.602
REMARK  Name = 
REMARK  11 active torsions:
REMARK  status: ('A' for Active; 'I' for Inactive)
REMARK    1  A    between atoms: C_1  and  C_2
REMARK    2  A    between atoms: C_2  and  N_3
REMARK    3  A    between atoms: C_2  and  C_20
REMARK    4  A    between atoms: N_3  and  C_4
REMARK    5  A    between atoms: C_4  and  C_5
REMARK    6  A    between atoms: C_8  and  C_9
REMARK    7  A    between atoms: C_9  and  O_10
REMARK    8  A    between atoms: C_9  and  C_11
REMARK    9  A    between atoms: C_11  and  N_12
REMARK   10  A    between atoms: N_12  and  C_13
REMARK   11  A    between atoms: N_26  and  C_27
REMARK                            x       y       z     vdW  Elec       q    Type
REMARK                         _______ _______ _______ _____ _____    ______ ____
ROOT
ATOM      1  C   UNL     1      47.084   5.568  13.649  0.00  0.00    +0.000 A 
ATOM      2  C   UNL     1      46.420   4.346  13.811  0.00  0.00    +0.000 A 
ATOM      3  C   UNL     1      45.496   3.909  12.865  0.00  0.00    +0.000 A 
ATOM      4  C   UNL     1      45.217   4.683  11.728  0.00  0.00    +0.000 A 
ATOM      5  C   UNL     1      45.877   5.912  11.574  0.00  0.00    +0.000 A 
ATOM      6  C   UNL     1      46.798   6.352  12.526  0.00  0.00    +0.000 A 
ENDROOT
BRANCH   1   7
ATOM      7  C   UNL     1      48.004   6.086  14.726  0.00  0.00    +0.000 C 
BRANCH   7   8
ATOM      8  N   UNL     1      48.477   5.026  15.625  0.00  0.00    +0.000 NA
ATOM      9  H   UNL     1      49.502   5.088  15.629  0.00  0.00    +0.000 HD
BRANCH   8  11
ATOM     10  C   UNL     1      47.095   4.073  17.454  0.00  0.00    +0.000 C 
ATOM     11  C   UNL     1      48.017   5.226  17.007  0.00  0.00    +0.000 C 
BRANCH  11  12
ATOM     12  C   UNL     1      49.238   5.372  17.921  0.00  0.00    +0.000 A 
ATOM     13  C   UNL     1      49.481   6.474  18.730  0.00  0.00    +0.000 A 
ATOM     14  S   UNL     1      50.977   6.429  19.540  0.00  0.00    +0.000 S 
ATOM     15  C   UNL     1      51.350   4.910  18.880  0.00  0.00    +0.000 A 
ATOM     16  N   UNL     1      52.523   4.301  19.184  0.00  0.00    +0.000 NA
ATOM     17  C   UNL     1      52.668   3.133  18.651  0.00  0.00    +0.000 A 
ATOM     18  N   UNL     1      51.750   2.504  17.826  0.00  0.00    +0.000 N 
ATOM     19  C   UNL     1      52.021   1.168  17.348  0.00  0.00    +0.000 C 
ATOM     20  C   UNL     1      50.549   3.121  17.463  0.00  0.00    +0.000 A 
ATOM     21  O   UNL     1      49.724   2.598  16.715  0.00  0.00    +0.000 OA
ATOM     22  C   UNL     1      50.346   4.438  18.054  0.00  0.00    +0.000 A 
ENDBRANCH  11  12
ENDBRANCH   8  11
ENDBRANCH   7   8
ENDBRANCH   1   7
BRANCH   4  23
ATOM     23  C   UNL     1      44.238   4.171  10.689  0.00  0.00    +0.000 C 
BRANCH  23  24
ATOM     24  O   UNL     1      43.794   5.248   9.855  0.00  0.00    +0.000 OA
ATOM     25  H   UNL     1      44.232   5.153   8.992  0.00  0.00    +0.000 HD
ENDBRANCH  23  24
BRANCH  23  26
ATOM     26  C   UNL     1      44.831   3.069   9.777  0.00  0.00    +0.000 C 
BRANCH  26  27
ATOM     27  N   UNL     1      44.484   3.209   8.356  0.00  0.00    +0.000 NA
ATOM     28  H   UNL     1      44.293   4.187   8.142  0.00  0.00    +0.000 HD
BRANCH  27  29
ATOM     29  C   UNL     1      45.531   2.689   7.480  0.00  0.00    +0.000 C 
ATOM     30  C   UNL     1      46.717   3.620   7.310  0.00  0.00    +0.000 C 
ATOM     31  C   UNL     1      47.797   2.675   6.831  0.00  0.00    +0.000 C 
ATOM     32  O   UNL     1      47.530   1.393   7.414  0.00  0.00    +0.000 OA
ATOM     33  C   UNL     1      46.227   1.437   8.019  0.00  0.00    +0.000 C 
ENDBRANCH  27  29
ENDBRANCH  26  27
ENDBRANCH  23  26
ENDBRANCH   4  23
TORSDOF 9
ENDMDL
MODEL 4
REMARK VINA RESULT:    -6.158      1.848      2.096
REMARK INTER + INTRA:         -10.821
REMARK INTER:                  -9.903
REMARK INTRA:                  -0.918
REMARK UNBOUND:                -1.602
REMARK  Name = 
REMARK  11 active torsions:
REMARK  status: ('A' for Active; 'I' for Inactive)
REMARK    1  A    between atoms: C_1  and  C_2
REMARK    2  A    between atoms: C_2  and  N_3
REMARK    3  A    between atoms: C_2  and  C_20
REMARK    4  A    between atoms: N_3  and  C_4
REMARK    5  A    between atoms: C_4  and  C_5
REMARK    6  A    between atoms: C_8  and  C_9
REMARK    7  A    between atoms: C_9  and  O_10
REMARK    8  A    between atoms: C_9  and  C_11
REMARK    9  A    between atoms: C_11  and  N_12
REMARK   10  A    between atoms: N_12  and  C_13
REMARK   11  A    between atoms: N_26  and  C_27
REMARK                            x       y       z     vdW  Elec       q    Type
REMARK                         _______ _______ _______ _____ _____    ______ ____
ROOT
ATOM      1  C   UNL     1      47.322   8.464  12.926  0.00  0.00    +0.000 A 
ATOM      2  C   UNL     1      47.815   7.513  12.024  0.00  0.00    +0.000 A 
ATOM      3  C   UNL     1      46.960   6.590  11.428  0.00  0.00    +0.000 A 
ATOM      4  C   UNL     1      45.586   6.598  11.716  0.00  0.00    +0.000 A 
ATOM      5  C   UNL     1      45.098   7.546  12.629  0.00  0.00    +0.000 A 
ATOM      6  C   UNL     1      45.956   8.467  13.231  0.00  0.00    +0.000 A 
ENDROOT
BRANCH   1   7
ATOM      7  C   UNL     1      48.266   9.392  13.648  0.00  0.00    +0.000 C 
BRANCH   7   8
ATOM      8  N   UNL     1      49.649   9.281  13.167  0.00  0.00    +0.000 NA
ATOM      9  H   UNL     1      50.080  10.202  13.313  0.00  0.00    +0.000 HD
BRANCH   8  11
ATOM     10  C   UNL     1      51.935   8.444  13.650  0.00  0.00    +0.000 C 
ATOM     11  C   UNL     1      50.427   8.302  13.941  0.00  0.00    +0.000 C 
BRANCH  11  12
ATOM     12  C   UNL     1      50.110   8.480  15.429  0.00  0.00    +0.000 A 
ATOM     13  C   UNL     1      50.516   9.568  16.189  0.00  0.00    +0.000 A 
ATOM     14  S   UNL     1      50.139   9.443  17.845  0.00  0.00    +0.000 S 
ATOM     15  C   UNL     1      49.375   7.944  17.612  0.00  0.00    +0.000 A 
ATOM     16  N   UNL     1      48.826   7.286  18.663  0.00  0.00    +0.000 NA
ATOM     17  C   UNL     1      48.240   6.178  18.347  0.00  0.00    +0.000 A 
ATOM     18  N   UNL     1      48.151   5.649  17.070  0.00  0.00    +0.000 N 
ATOM     19  C   UNL     1      47.411   4.427  16.857  0.00  0.00    +0.000 C 
ATOM     20  C   UNL     1      48.739   6.284  15.972  0.00  0.00    +0.000 A 
ATOM     21  O   UNL     1      48.696   5.829  14.830  0.00  0.00    +0.000 OA
ATOM     22  C   UNL     1      49.401   7.543  16.289  0.00  0.00    +0.000 A 
ENDBRANCH  11  12
ENDBRANCH   8  11
ENDBRANCH   7   8
ENDBRANCH   1   7
BRANCH   4  23
ATOM     23  C   UNL     1      44.665   5.611  11.027  0.00  0.00    +0.000 C 
BRANCH  23  24
ATOM     24  O   UNL     1      43.414   6.237  10.713  0.00  0.00    +0.000 OA
ATOM     25  H   UNL     1      42.802   5.542  10.418  0.00  0.00    +0.000 HD
ENDBRANCH  23  24
BRANCH  23  26
ATOM     26  C   UNL     1      45.255   5.032   9.718  0.00  0.00    +0.000 C 
BRANCH  26  27
ATOM     27  N   UNL     1      44.289   4.290   8.896  0.00  0.00    +0.000 NA
ATOM     28  H   UNL     1      43.804   4.932   8.269  0.00  0.00    +0.000 HD
BRANCH  27  29
ATOM     29  C   UNL     1      44.923   3.215   8.137  0.00  0.00    +0.000 C 
ATOM     30  C   UNL     1      46.317   3.545   7.639  0.00  0.00    +0.000 C 
ATOM     31  C   UNL     1      46.895   2.172   7.377  0.00  0.00    +0.000 C 
ATOM     32  O   UNL     1      46.288   1.270   8.312  0.00  0.00    +0.000 OA
ATOM     33  C   UNL     1      45.205   1.957   8.960  0.00  0.00    +0.000 C 
ENDBRANCH  27  29
ENDBRANCH  26  27
ENDBRANCH  23  26
ENDBRANCH   4  23
TORSDOF 9
ENDMDL
MODEL 5
REMARK VINA RESULT:    -5.992      1.915      2.792
REMARK INTER + INTRA:         -10.572
REMARK INTER:                  -8.963
REMARK INTRA:                  -1.608
REMARK UNBOUND:                -1.602
REMARK  Name = 
REMARK  11 active torsions:
REMARK  status: ('A' for Active; 'I' for Inactive)
REMARK    1  A    between atoms: C_1  and  C_2
REMARK    2  A    between atoms: C_2  and  N_3
REMARK    3  A    between atoms: C_2  and  C_20
REMARK    4  A    between atoms: N_3  and  C_4
REMARK    5  A    between atoms: C_4  and  C_5
REMARK    6  A    between atoms: C_8  and  C_9
REMARK    7  A    between atoms: C_9  and  O_10
REMARK    8  A    between atoms: C_9  and  C_11
REMARK    9  A    between atoms: C_11  and  N_12
REMARK   10  A    between atoms: N_12  and  C_13
REMARK   11  A    between atoms: N_26  and  C_27
REMARK                            x       y       z     vdW  Elec       q    Type
REMARK                         _______ _______ _______ _____ _____    ______ ____
ROOT
ATOM      1  C   UNL     1      48.844   8.069  13.168  0.00  0.00    +0.000 A 
ATOM      2  C   UNL     1      48.286   9.215  12.589  0.00  0.00    +0.000 A 
ATOM      3  C   UNL     1      46.958   9.225  12.172  0.00  0.00    +0.000 A 
ATOM      4  C   UNL     1      46.151   8.087  12.330  0.00  0.00    +0.000 A 
ATOM      5  C   UNL     1      46.716   6.937  12.901  0.00  0.00    +0.000 A 
ATOM      6  C   UNL     1      48.050   6.926  13.313  0.00  0.00    +0.000 A 
ENDROOT
BRANCH   1   7
ATOM      7  C   UNL     1      50.310   8.028  13.520  0.00  0.00    +0.000 C 
BRANCH   7   8
ATOM      8  N   UNL     1      50.605   7.090  14.610  0.00  0.00    +0.000 NA
ATOM      9  H   UNL     1      51.384   6.505  14.284  0.00  0.00    +0.000 HD
BRANCH   8  11
ATOM     10  C   UNL     1      51.751   9.112  15.482  0.00  0.00    +0.000 C 
ATOM     11  C   UNL     1      51.053   7.780  15.828  0.00  0.00    +0.000 C 
BRANCH  11  12
ATOM     12  C   UNL     1      49.850   7.986  16.755  0.00  0.00    +0.000 A 
ATOM     13  C   UNL     1      49.340   9.227  17.108  0.00  0.00    +0.000 A 
ATOM     14  S   UNL     1      48.083   9.165  18.254  0.00  0.00    +0.000 S 
ATOM     15  C   UNL     1      48.134   7.469  18.298  0.00  0.00    +0.000 A 
ATOM     16  N   UNL     1      47.290   6.779  19.105  0.00  0.00    +0.000 NA
ATOM     17  C   UNL     1      47.401   5.495  19.015  0.00  0.00    +0.000 A 
ATOM     18  N   UNL     1      48.288   4.818  18.194  0.00  0.00    +0.000 N 
ATOM     19  C   UNL     1      48.260   3.374  18.153  0.00  0.00    +0.000 C 
ATOM     20  C   UNL     1      49.197   5.499  17.379  0.00  0.00    +0.000 A 
ATOM     21  O   UNL     1      50.010   4.928  16.655  0.00  0.00    +0.000 OA
ATOM     22  C   UNL     1      49.094   6.952  17.446  0.00  0.00    +0.000 A 
ENDBRANCH  11  12
ENDBRANCH   8  11
ENDBRANCH   7   8
ENDBRANCH   1   7
BRANCH   4  23
ATOM     23  C   UNL     1      44.695   8.130  11.907  0.00  0.00    +0.000 C 
BRANCH  23  24
ATOM     24  O   UNL     1      44.455   9.271  11.074  0.00  0.00    +0.000 OA
ATOM     25  H   UNL     1      43.656   9.091  10.550  0.00  0.00    +0.000 HD
ENDBRANCH  23  24
BRANCH  23  26
ATOM     26  C   UNL     1      44.243   6.867  11.135  0.00  0.00    +0.000 C 
BRANCH  26  27
ATOM     27  N   UNL     1      42.829   6.515  11.326  0.00  0.00    +0.000 NA
ATOM     28  H   UNL     1      42.304   6.723  10.478  0.00  0.00    +0.000 HD
BRANCH  27  29
ATOM     29  C   UNL     1      42.657   5.115  11.703  0.00  0.00    +0.000 C 
ATOM     30  C   UNL     1      43.454   4.141  10.858  0.00  0.00    +0.000 C 
ATOM     31  C   UNL     1      43.504   2.916  11.744  0.00  0.00    +0.000 C 
ATOM     32  O   UNL     1      43.486   3.373  13.103  0.00  0.00    +0.000 OA
ATOM     33  C   UNL     1      43.184   4.778  13.100  0.00  0.00    +0.000 C 
ENDBRANCH  27  29
ENDBRANCH  26  27
ENDBRANCH  23  26
ENDBRANCH   4  23
TORSDOF 9
ENDMDL
MODEL 6
REMARK VINA RESULT:    -5.954      2.703      4.943
REMARK INTER + INTRA:         -10.515
REMARK INTER:                  -8.809
REMARK INTRA:                  -1.707
REMARK UNBOUND:                -1.602
REMARK  Name = 
REMARK  11 active torsions:
REMARK  status: ('A' for Active; 'I' for Inactive)
REMARK    1  A    between atoms: C_1  and  C_2
REMARK    2  A    between atoms: C_2  and  N_3
REMARK    3  A    between atoms: C_2  and  C_20
REMARK    4  A    between atoms: N_3  and  C_4
REMARK    5  A    between atoms: C_4  and  C_5
REMARK    6  A    between atoms: C_8  and  C_9
REMARK    7  A    between atoms: C_9  and  O_10
REMARK    8  A    between atoms: C_9  and  C_11
REMARK    9  A    between atoms: C_11  and  N_12
REMARK   10  A    between atoms: N_12  and  C_13
REMARK   11  A    between atoms: N_26  and  C_27
REMARK                            x       y       z     vdW  Elec       q    Type
REMARK                         _______ _______ _______ _____ _____    ______ ____
ROOT
ATOM      1  C   UNL     1      49.083   7.915  16.451  0.00  0.00    +0.000 A 
ATOM      2  C   UNL     1      48.276   8.953  15.970  0.00  0.00    +0.000 A 
ATOM      3  C   UNL     1      47.928   9.018  14.624  0.00  0.00    +0.000 A 
ATOM      4  C   UNL     1      48.377   8.040  13.722  0.00  0.00    +0.000 A 
ATOM      5  C   UNL     1      49.195   7.007  14.205  0.00  0.00    +0.000 A 
ATOM      6  C   UNL     1      49.548   6.946  15.554  0.00  0.00    +0.000 A 
ENDROOT
BRANCH   1   7
ATOM      7  C   UNL     1      49.542   7.907  17.887  0.00  0.00    +0.000 C 
BRANCH   7   8
ATOM      8  N   UNL     1      48.508   7.423  18.810  0.00  0.00    +0.000 NA
ATOM      9  H   UNL     1      47.678   7.228  18.237  0.00  0.00    +0.000 HD
BRANCH   8  11
ATOM     10  C   UNL     1      48.135   5.979  20.794  0.00  0.00    +0.000 C 
ATOM     11  C   UNL     1      48.896   6.165  19.465  0.00  0.00    +0.000 C 
BRANCH  11  12
ATOM     12  C   UNL     1      48.652   5.004  18.496  0.00  0.00    +0.000 A 
ATOM     13  C   UNL     1      47.426   4.720  17.911  0.00  0.00    +0.000 A 
ATOM     14  S   UNL     1      47.409   3.294  16.980  0.00  0.00    +0.000 S 
ATOM     15  C   UNL     1      49.056   3.015  17.282  0.00  0.00    +0.000 A 
ATOM     16  N   UNL     1      49.673   1.926  16.759  0.00  0.00    +0.000 NA
ATOM     17  C   UNL     1      50.935   1.851  17.028  0.00  0.00    +0.000 A 
ATOM     18  N   UNL     1      51.653   2.761  17.785  0.00  0.00    +0.000 N 
ATOM     19  C   UNL     1      53.077   2.579  17.954  0.00  0.00    +0.000 C 
ATOM     20  C   UNL     1      51.040   3.873  18.370  0.00  0.00    +0.000 A 
ATOM     21  O   UNL     1      51.645   4.687  19.064  0.00  0.00    +0.000 OA
ATOM     22  C   UNL     1      49.616   3.997  18.079  0.00  0.00    +0.000 A 
ENDBRANCH  11  12
ENDBRANCH   8  11
ENDBRANCH   7   8
ENDBRANCH   1   7
BRANCH   4  23
ATOM     23  C   UNL     1      47.956   8.106  12.267  0.00  0.00    +0.000 C 
BRANCH  23  24
ATOM     24  O   UNL     1      49.106   8.039  11.415  0.00  0.00    +0.000 OA
ATOM     25  H   UNL     1      49.727   7.401  11.807  0.00  0.00    +0.000 HD
ENDBRANCH  23  24
BRANCH  23  26
ATOM     26  C   UNL     1      46.987   6.969  11.857  0.00  0.00    +0.000 C 
BRANCH  26  27
ATOM     27  N   UNL     1      45.751   6.914  12.648  0.00  0.00    +0.000 NA
ATOM     28  H   UNL     1      45.013   7.435  12.173  0.00  0.00    +0.000 HD
BRANCH  27  29
ATOM     29  C   UNL     1      45.322   5.542  12.905  0.00  0.00    +0.000 C 
ATOM     30  C   UNL     1      45.071   4.724  11.653  0.00  0.00    +0.000 C 
ATOM     31  C   UNL     1      45.160   3.307  12.174  0.00  0.00    +0.000 C 
ATOM     32  O   UNL     1      46.087   3.313  13.268  0.00  0.00    +0.000 OA
ATOM     33  C   UNL     1      46.380   4.681  13.599  0.00  0.00    +0.000 C 
ENDBRANCH  27  29
ENDBRANCH  26  27
ENDBRANCH  23  26
ENDBRANCH   4  23
TORSDOF 9
ENDMDL
MODEL 7
REMARK VINA RESULT:    -5.564      4.385      8.568
REMARK INTER + INTRA:          -9.930
REMARK INTER:                  -8.984
REMARK INTRA:                  -0.947
REMARK UNBOUND:                -1.602
REMARK  Name = 
REMARK  11 active torsions:
REMARK  status: ('A' for Active; 'I' for Inactive)
REMARK    1  A    between atoms: C_1  and  C_2
REMARK    2  A    between atoms: C_2  and  N_3
REMARK    3  A    between atoms: C_2  and  C_20
REMARK    4  A    between atoms: N_3  and  C_4
REMARK    5  A    between atoms: C_4  and  C_5
REMARK    6  A    between atoms: C_8  and  C_9
REMARK    7  A    between atoms: C_9  and  O_10
REMARK    8  A    between atoms: C_9  and  C_11
REMARK    9  A    between atoms: C_11  and  N_12
REMARK   10  A    between atoms: N_12  and  C_13
REMARK   11  A    between atoms: N_26  and  C_27
REMARK                            x       y       z     vdW  Elec       q    Type
REMARK                         _______ _______ _______ _____ _____    ______ ____
ROOT
ATOM      1  C   UNL     1      48.332   8.153  12.256  0.00  0.00    +0.000 A 
ATOM      2  C   UNL     1      49.457   7.340  12.072  0.00  0.00    +0.000 A 
ATOM      3  C   UNL     1      50.618   7.853  11.500  0.00  0.00    +0.000 A 
ATOM      4  C   UNL     1      50.685   9.197  11.102  0.00  0.00    +0.000 A 
ATOM      5  C   UNL     1      49.552  10.007  11.278  0.00  0.00    +0.000 A 
ATOM      6  C   UNL     1      48.386   9.490  11.846  0.00  0.00    +0.000 A 
ENDROOT
BRANCH   1   7
ATOM      7  C   UNL     1      47.044   7.568  12.778  0.00  0.00    +0.000 C 
BRANCH   7   8
ATOM      8  N   UNL     1      46.429   6.623  11.838  0.00  0.00    +0.000 NA
ATOM      9  H   UNL     1      46.786   5.693  12.089  0.00  0.00    +0.000 HD
BRANCH   8  11
ATOM     10  C   UNL     1      44.302   7.644  11.067  0.00  0.00    +0.000 C 
ATOM     11  C   UNL     1      44.965   6.584  11.971  0.00  0.00    +0.000 C 
BRANCH  11  12
ATOM     12  C   UNL     1      44.474   5.169  11.651  0.00  0.00    +0.000 A 
ATOM     13  C   UNL     1      43.648   4.422  12.480  0.00  0.00    +0.000 A 
ATOM     14  S   UNL     1      43.367   2.833  11.940  0.00  0.00    +0.000 S 
ATOM     15  C   UNL     1      44.303   3.085  10.546  0.00  0.00    +0.000 A 
ATOM     16  N   UNL     1      44.468   2.087   9.642  0.00  0.00    +0.000 NA
ATOM     17  C   UNL     1      45.166   2.419   8.607  0.00  0.00    +0.000 A 
ATOM     18  N   UNL     1      45.732   3.662   8.381  0.00  0.00    +0.000 N 
ATOM     19  C   UNL     1      46.440   3.908   7.146  0.00  0.00    +0.000 C 
ATOM     20  C   UNL     1      45.613   4.700   9.309  0.00  0.00    +0.000 A 
ATOM     21  O   UNL     1      46.121   5.808   9.148  0.00  0.00    +0.000 OA
ATOM     22  C   UNL     1      44.821   4.366  10.488  0.00  0.00    +0.000 A 
ENDBRANCH  11  12
ENDBRANCH   8  11
ENDBRANCH   7   8
ENDBRANCH   1   7
BRANCH   4  23
ATOM     23  C   UNL     1      51.971   9.748  10.518  0.00  0.00    +0.000 C 
BRANCH  23  24
ATOM     24  O   UNL     1      52.161  11.107  10.931  0.00  0.00    +0.000 OA
ATOM     25  H   UNL     1      51.461  11.322  11.570  0.00  0.00    +0.000 HD
ENDBRANCH  23  24
BRANCH  23  26
ATOM     26  C   UNL     1      53.227   8.941  10.929  0.00  0.00    +0.000 C 
BRANCH  26  27
ATOM     27  N   UNL     1      53.827   8.159   9.839  0.00  0.00    +0.000 NA
ATOM     28  H   UNL     1      53.985   7.200  10.149  0.00  0.00    +0.000 HD
BRANCH  27  29
ATOM     29  C   UNL     1      53.005   8.176   8.632  0.00  0.00    +0.000 C 
ATOM     30  C   UNL     1      53.717   8.709   7.403  0.00  0.00    +0.000 C 
ATOM     31  C   UNL     1      52.873   8.150   6.279  0.00  0.00    +0.000 C 
ATOM     32  O   UNL     1      52.331   6.904   6.733  0.00  0.00    +0.000 OA
ATOM     33  C   UNL     1      52.591   6.787   8.142  0.00  0.00    +0.000 C 
ENDBRANCH  27  29
ENDBRANCH  26  27
ENDBRANCH  23  26
ENDBRANCH   4  23
TORSDOF 9
ENDMDL
MODEL 8
REMARK VINA RESULT:    -4.978      2.955      8.334
REMARK INTER + INTRA:          -9.054
REMARK INTER:                  -7.862
REMARK INTRA:                  -1.191
REMARK UNBOUND:                -1.602
REMARK  Name = 
REMARK  11 active torsions:
REMARK  status: ('A' for Active; 'I' for Inactive)
REMARK    1  A    between atoms: C_1  and  C_2
REMARK    2  A    between atoms: C_2  and  N_3
REMARK    3  A    between atoms: C_2  and  C_20
REMARK    4  A    between atoms: N_3  and  C_4
REMARK    5  A    between atoms: C_4  and  C_5
REMARK    6  A    between atoms: C_8  and  C_9
REMARK    7  A    between atoms: C_9  and  O_10
REMARK    8  A    between atoms: C_9  and  C_11
REMARK    9  A    between atoms: C_11  and  N_12
REMARK   10  A    between atoms: N_12  and  C_13
REMARK   11  A    between atoms: N_26  and  C_27
REMARK                            x       y       z     vdW  Elec       q    Type
REMARK                         _______ _______ _______ _____ _____    ______ ____
ROOT
ATOM      1  C   UNL     1      48.652   6.382  16.219  0.00  0.00    +0.000 A 
ATOM      2  C   UNL     1      48.256   5.074  16.525  0.00  0.00    +0.000 A 
ATOM      3  C   UNL     1      48.271   4.616  17.839  0.00  0.00    +0.000 A 
ATOM      4  C   UNL     1      48.679   5.458  18.885  0.00  0.00    +0.000 A 
ATOM      5  C   UNL     1      49.085   6.765  18.574  0.00  0.00    +0.000 A 
ATOM      6  C   UNL     1      49.076   7.222  17.255  0.00  0.00    +0.000 A 
ENDROOT
BRANCH   1   7
ATOM      7  C   UNL     1      48.735   6.839  14.785  0.00  0.00    +0.000 C 
BRANCH   7   8
ATOM      8  N   UNL     1      47.505   7.499  14.329  0.00  0.00    +0.000 NA
ATOM      9  H   UNL     1      47.313   8.249  15.004  0.00  0.00    +0.000 HD
BRANCH   8  11
ATOM     10  C   UNL     1      48.749   7.395  12.183  0.00  0.00    +0.000 C 
ATOM     11  C   UNL     1      47.670   8.126  13.010  0.00  0.00    +0.000 C 
BRANCH  11  12
ATOM     12  C   UNL     1      46.315   8.145  12.295  0.00  0.00    +0.000 A 
ATOM     13  C   UNL     1      45.705   9.292  11.807  0.00  0.00    +0.000 A 
ATOM     14  S   UNL     1      44.144   9.040  11.176  0.00  0.00    +0.000 S 
ATOM     15  C   UNL     1      44.231   7.373  11.486  0.00  0.00    +0.000 A 
ATOM     16  N   UNL     1      43.189   6.563  11.171  0.00  0.00    +0.000 NA
ATOM     17  C   UNL     1      43.397   5.312  11.418  0.00  0.00    +0.000 A 
ATOM     18  N   UNL     1      44.553   4.779  11.963  0.00  0.00    +0.000 N 
ATOM     19  C   UNL     1      44.667   3.348  12.129  0.00  0.00    +0.000 C 
ATOM     20  C   UNL     1      45.630   5.590  12.333  0.00  0.00    +0.000 A 
ATOM     21  O   UNL     1      46.661   5.150  12.838  0.00  0.00    +0.000 OA
ATOM     22  C   UNL     1      45.436   7.009  12.059  0.00  0.00    +0.000 A 
ENDBRANCH  11  12
ENDBRANCH   8  11
ENDBRANCH   7   8
ENDBRANCH   1   7
BRANCH   4  23
ATOM     23  C   UNL     1      48.650   4.954  20.314  0.00  0.00    +0.000 C 
BRANCH  23  24
ATOM     24  O   UNL     1      48.567   3.524  20.334  0.00  0.00    +0.000 OA
ATOM     25  H   UNL     1      48.755   3.205  19.435  0.00  0.00    +0.000 HD
ENDBRANCH  23  24
BRANCH  23  26
ATOM     26  C   UNL     1      49.892   5.375  21.139  0.00  0.00    +0.000 C 
BRANCH  26  27
ATOM     27  N   UNL     1      50.980   4.388  21.139  0.00  0.00    +0.000 NA
ATOM     28  H   UNL     1      50.644   3.503  20.760  0.00  0.00    +0.000 HD
BRANCH  27  29
ATOM     29  C   UNL     1      52.145   4.854  20.391  0.00  0.00    +0.000 C 
ATOM     30  C   UNL     1      52.128   4.486  18.920  0.00  0.00    +0.000 C 
ATOM     31  C   UNL     1      53.104   5.480  18.331  0.00  0.00    +0.000 C 
ATOM     32  O   UNL     1      53.032   6.670  19.127  0.00  0.00    +0.000 OA
ATOM     33  C   UNL     1      52.257   6.378  20.302  0.00  0.00    +0.000 C 
ENDBRANCH  27  29
ENDBRANCH  26  27
ENDBRANCH  23  26
ENDBRANCH   4  23
TORSDOF 9
ENDMDL
MODEL 9
REMARK VINA RESULT:    -4.866      4.887      8.014
REMARK INTER + INTRA:          -8.886
REMARK INTER:                  -7.985
REMARK INTRA:                  -0.901
REMARK UNBOUND:                -1.602
REMARK  Name = 
REMARK  11 active torsions:
REMARK  status: ('A' for Active; 'I' for Inactive)
REMARK    1  A    between atoms: C_1  and  C_2
REMARK    2  A    between atoms: C_2  and  N_3
REMARK    3  A    between atoms: C_2  and  C_20
REMARK    4  A    between atoms: N_3  and  C_4
REMARK    5  A    between atoms: C_4  and  C_5
REMARK    6  A    between atoms: C_8  and  C_9
REMARK    7  A    between atoms: C_9  and  O_10
REMARK    8  A    between atoms: C_9  and  C_11
REMARK    9  A    between atoms: C_11  and  N_12
REMARK   10  A    between atoms: N_12  and  C_13
REMARK   11  A    between atoms: N_26  and  C_27
REMARK                            x       y       z     vdW  Elec       q    Type
REMARK                         _______ _______ _______ _____ _____    ______ ____
ROOT
ATOM      1  C   UNL     1      50.220   9.023  11.231  0.00  0.00    +0.000 A 
ATOM      2  C   UNL     1      50.903   7.805  11.120  0.00  0.00    +0.000 A 
ATOM      3  C   UNL     1      52.252   7.776  10.779  0.00  0.00    +0.000 A 
ATOM      4  C   UNL     1      52.956   8.967  10.546  0.00  0.00    +0.000 A 
ATOM      5  C   UNL     1      52.267  10.185  10.647  0.00  0.00    +0.000 A 
ATOM      6  C   UNL     1      50.912  10.214  10.983  0.00  0.00    +0.000 A 
ENDROOT
BRANCH   1   7
ATOM      7  C   UNL     1      48.736   9.044  11.497  0.00  0.00    +0.000 C 
BRANCH   7   8
ATOM      8  N   UNL     1      48.209   7.727  11.875  0.00  0.00    +0.000 NA
ATOM      9  H   UNL     1      49.016   7.093  11.912  0.00  0.00    +0.000 HD
BRANCH   8  11
ATOM     10  C   UNL     1      46.386   8.696  13.253  0.00  0.00    +0.000 C 
ATOM     11  C   UNL     1      47.596   7.739  13.211  0.00  0.00    +0.000 C 
BRANCH  11  12
ATOM     12  C   UNL     1      47.208   6.307  13.594  0.00  0.00    +0.000 A 
ATOM     13  C   UNL     1      47.651   5.658  14.738  0.00  0.00    +0.000 A 
ATOM     14  S   UNL     1      47.171   4.028  14.846  0.00  0.00    +0.000 S 
ATOM     15  C   UNL     1      46.310   4.129  13.386  0.00  0.00    +0.000 A 
ATOM     16  N   UNL     1      45.653   3.046  12.902  0.00  0.00    +0.000 NA
ATOM     17  C   UNL     1      45.004   3.265  11.806  0.00  0.00    +0.000 A 
ATOM     18  N   UNL     1      44.949   4.472  11.129  0.00  0.00    +0.000 N 
ATOM     19  C   UNL     1      44.131   4.586   9.944  0.00  0.00    +0.000 C 
ATOM     20  C   UNL     1      45.645   5.596  11.581  0.00  0.00    +0.000 A 
ATOM     21  O   UNL     1      45.634   6.676  10.992  0.00  0.00    +0.000 OA
ATOM     22  C   UNL     1      46.382   5.390  12.822  0.00  0.00    +0.000 A 
ENDBRANCH  11  12
ENDBRANCH   8  11
ENDBRANCH   7   8
ENDBRANCH   1   7
BRANCH   4  23
ATOM     23  C   UNL     1      54.435   8.918  10.215  0.00  0.00    +0.000 C 
BRANCH  23  24
ATOM     24  O   UNL     1      55.214   9.012  11.414  0.00  0.00    +0.000 OA
ATOM     25  H   UNL     1      55.751   8.204  11.482  0.00  0.00    +0.000 HD
ENDBRANCH  23  24
BRANCH  23  26
ATOM     26  C   UNL     1      54.855   7.626   9.469  0.00  0.00    +0.000 C 
BRANCH  26  27
ATOM     27  N   UNL     1      54.630   7.666   8.018  0.00  0.00    +0.000 NA
ATOM     28  H   UNL     1      55.347   8.238   7.573  0.00  0.00    +0.000 HD
BRANCH  27  29
ATOM     29  C   UNL     1      54.603   6.330   7.429  0.00  0.00    +0.000 C 
ATOM     30  C   UNL     1      53.468   5.455   7.924  0.00  0.00    +0.000 C 
ATOM     31  C   UNL     1      53.372   4.410   6.834  0.00  0.00    +0.000 C 
ATOM     32  O   UNL     1      53.771   5.036   5.608  0.00  0.00    +0.000 OA
ATOM     33  C   UNL     1      54.333   6.321   5.923  0.00  0.00    +0.000 C 
ENDBRANCH  27  29
ENDBRANCH  26  27
ENDBRANCH  23  26
ENDBRANCH   4  23
TORSDOF 9
ENDMDL
