MODEL 1
REMARK VINA RESULT:    -8.427      0.000      0.000
REMARK INTER + INTRA:         -13.612
REMARK INTER:                 -12.368
REMARK INTRA:                  -1.244
REMARK UNBOUND:                -1.244
REMARK  Name = 
REMARK  10 active torsions:
REMARK  status: ('A' for Active; 'I' for Inactive)
REMARK    1  A    between atoms: C_1  and  O_2
REMARK    2  A    between atoms: O_2  and  C_3
REMARK    3  A    between atoms: C_10  and  C_11
REMARK    4  A    between atoms: N_13  and  C_14
REMARK    5  A    between atoms: C_14  and  C_15
REMARK    6  A    between atoms: C_18  and  C_19
REMARK    7  A    between atoms: C_19  and  N_20
REMARK    8  A    between atoms: N_20  and  C_21
REMARK    9  A    between atoms: C_21  and  C_22
REMARK   10  A    between atoms: C_21  and  C_23
REMARK                            x       y       z     vdW  Elec       q    Type
REMARK                         _______ _______ _______ _____ _____    ______ ____
ROOT
ATOM      1  C   UNL     1      47.539   6.122  14.148  0.00  0.00    +0.000 A 
ATOM      2  C   UNL     1      46.986   6.566  12.938  0.00  0.00    +0.000 A 
ATOM      3  C   UNL     1      46.054   5.782  12.241  0.00  0.00    +0.000 A 
ATOM      4  C   UNL     1      45.681   4.513  12.712  0.00  0.00    +0.000 A 
ATOM      5  C   UNL     1      46.266   4.060  13.901  0.00  0.00    +0.000 A 
ATOM      6  C   UNL     1      47.169   4.857  14.617  0.00  0.00    +0.000 A 
ENDROOT
BRANCH   1   7
ATOM      7  C   UNL     1      48.470   7.006  14.941  0.00  0.00    +0.000 C 
BRANCH   7  10
ATOM      8  C   UNL     1      49.581   5.958  16.876  0.00  0.00    +0.000 C 
ATOM      9  O   UNL     1      48.663   6.311  17.630  0.00  0.00    +0.000 OA
ATOM     10  N   UNL     1      49.555   6.261  15.541  0.00  0.00    +0.000 N 
ATOM     11  H   UNL     1      50.365   6.070  14.966  0.00  0.00    +0.000 HD
BRANCH   8  19
ATOM     12  C   UNL     1      50.299   2.605  17.048  0.00  0.00    +0.000 A 
ATOM     13  N   UNL     1      50.821   1.379  17.233  0.00  0.00    +0.000 NA
ATOM     14  C   UNL     1      52.011   1.278  17.816  0.00  0.00    +0.000 A 
ATOM     15  N   UNL     1      52.769   2.276  18.252  0.00  0.00    +0.000 NA
ATOM     16  C   UNL     1      52.217   3.487  18.040  0.00  0.00    +0.000 A 
ATOM     17  S   UNL     1      53.046   4.882  18.535  0.00  0.00    +0.000 S 
ATOM     18  C   UNL     1      51.797   5.885  17.966  0.00  0.00    +0.000 A 
ATOM     19  C   UNL     1      50.734   5.196  17.390  0.00  0.00    +0.000 A 
ATOM     20  C   UNL     1      50.992   3.758  17.441  0.00  0.00    +0.000 A 
BRANCH  12  22
ATOM     21  C   UNL     1      48.017   2.683  17.373  0.00  0.00    +0.000 C 
ATOM     22  O   UNL     1      49.078   2.675  16.417  0.00  0.00    +0.000 OA
ENDBRANCH  12  22
ENDBRANCH   8  19
ENDBRANCH   7  10
ENDBRANCH   1   7
BRANCH   4  23
ATOM     23  C   UNL     1      44.624   3.658  12.026  0.00  0.00    +0.000 C 
BRANCH  23  24
ATOM     24  N   UNL     1      45.182   2.836  10.952  0.00  0.00    +0.000 NA
ATOM     25  H   UNL     1      45.062   1.858  11.222  0.00  0.00    +0.000 HD
BRANCH  24  26
ATOM     26  C   UNL     1      44.535   3.004   9.636  0.00  0.00    +0.000 C 
ATOM     27  C   UNL     1      43.944   4.406   9.414  0.00  0.00    +0.000 C 
BRANCH  26  28
ATOM     28  C   UNL     1      45.550   2.698   8.531  0.00  0.00    +0.000 A 
ATOM     29  C   UNL     1      46.082   1.405   8.363  0.00  0.00    +0.000 A 
ATOM     30  C   UNL     1      46.972   1.126   7.318  0.00  0.00    +0.000 A 
ATOM     31  C   UNL     1      47.348   2.142   6.449  0.00  0.00    +0.000 A 
ATOM     32  F   UNL     1      48.194   1.876   5.445  0.00  0.00    +0.000 F 
ATOM     33  C   UNL     1      46.861   3.433   6.611  0.00  0.00    +0.000 A 
ATOM     34  C   UNL     1      45.965   3.709   7.643  0.00  0.00    +0.000 A 
ENDBRANCH  26  28
ENDBRANCH  24  26
ENDBRANCH  23  24
ENDBRANCH   4  23
TORSDOF 8
ENDMDL
MODEL 2
REMARK VINA RESULT:    -8.240      2.240      2.647
REMARK INTER + INTRA:         -13.338
REMARK INTER:                 -12.161
REMARK INTRA:                  -1.176
REMARK UNBOUND:                -1.244
REMARK  Name = 
REMARK  10 active torsions:
REMARK  status: ('A' for Active; 'I' for Inactive)
REMARK    1  A    between atoms: C_1  and  O_2
REMARK    2  A    between atoms: O_2  and  C_3
REMARK    3  A    between atoms: C_10  and  C_11
REMARK    4  A    between atoms: N_13  and  C_14
REMARK    5  A    between atoms: C_14  and  C_15
REMARK    6  A    between atoms: C_18  and  C_19
REMARK    7  A    between atoms: C_19  and  N_20
REMARK    8  A    between atoms: N_20  and  C_21
REMARK    9  A    between atoms: C_21  and  C_22
REMARK   10  A    between atoms: C_21  and  C_23
REMARK                            x       y       z     vdW  Elec       q    Type
REMARK                         _______ _______ _______ _____ _____    ______ ____
ROOT
ATOM      1  C   UNL     1      46.976   6.447  13.518  0.00  0.00    +0.000 A 
ATOM      2  C   UNL     1      47.275   5.090  13.699  0.00  0.00    +0.000 A 
ATOM      3  C   UNL     1      46.422   4.092  13.201  0.00  0.00    +0.000 A 
ATOM      4  C   UNL     1      45.226   4.424  12.545  0.00  0.00    +0.000 A 
ATOM      5  C   UNL     1      44.916   5.783  12.401  0.00  0.00    +0.000 A 
ATOM      6  C   UNL     1      45.784   6.780  12.865  0.00  0.00    +0.000 A 
ENDROOT
BRANCH   1   7
ATOM      7  C   UNL     1      47.940   7.517  13.973  0.00  0.00    +0.000 C 
BRANCH   7  10
ATOM      8  C   UNL     1      49.084   7.016  16.098  0.00  0.00    +0.000 C 
ATOM      9  O   UNL     1      49.992   6.421  15.502  0.00  0.00    +0.000 OA
ATOM     10  N   UNL     1      48.042   7.583  15.414  0.00  0.00    +0.000 N 
ATOM     11  H   UNL     1      47.252   7.959  15.922  0.00  0.00    +0.000 HD
BRANCH   8  19
ATOM     12  C   UNL     1      48.748   4.743  18.649  0.00  0.00    +0.000 A 
ATOM     13  N   UNL     1      48.651   4.077  19.814  0.00  0.00    +0.000 NA
ATOM     14  C   UNL     1      48.727   4.768  20.947  0.00  0.00    +0.000 A 
ATOM     15  N   UNL     1      48.893   6.078  21.068  0.00  0.00    +0.000 NA
ATOM     16  C   UNL     1      48.997   6.707  19.881  0.00  0.00    +0.000 A 
ATOM     17  S   UNL     1      49.213   8.390  19.842  0.00  0.00    +0.000 S 
ATOM     18  C   UNL     1      49.241   8.396  18.142  0.00  0.00    +0.000 A 
ATOM     19  C   UNL     1      49.093   7.137  17.568  0.00  0.00    +0.000 A 
ATOM     20  C   UNL     1      48.944   6.130  18.618  0.00  0.00    +0.000 A 
BRANCH  12  22
ATOM     21  C   UNL     1      47.337   3.708  17.146  0.00  0.00    +0.000 C 
ATOM     22  O   UNL     1      48.693   3.994  17.496  0.00  0.00    +0.000 OA
ENDBRANCH  12  22
ENDBRANCH   8  19
ENDBRANCH   7  10
ENDBRANCH   1   7
BRANCH   4  23
ATOM     23  C   UNL     1      44.307   3.379  11.929  0.00  0.00    +0.000 C 
BRANCH  23  24
ATOM     24  N   UNL     1      44.945   2.649  10.834  0.00  0.00    +0.000 NA
ATOM     25  H   UNL     1      44.803   1.652  11.007  0.00  0.00    +0.000 HD
BRANCH  24  26
ATOM     26  C   UNL     1      44.405   2.937   9.492  0.00  0.00    +0.000 C 
ATOM     27  C   UNL     1      43.909   4.383   9.324  0.00  0.00    +0.000 C 
BRANCH  26  28
ATOM     28  C   UNL     1      45.478   2.641   8.439  0.00  0.00    +0.000 A 
ATOM     29  C   UNL     1      46.066   1.366   8.331  0.00  0.00    +0.000 A 
ATOM     30  C   UNL     1      47.010   1.093   7.334  0.00  0.00    +0.000 A 
ATOM     31  C   UNL     1      47.386   2.100   6.454  0.00  0.00    +0.000 A 
ATOM     32  F   UNL     1      48.284   1.840   5.495  0.00  0.00    +0.000 F 
ATOM     33  C   UNL     1      46.843   3.374   6.557  0.00  0.00    +0.000 A 
ATOM     34  C   UNL     1      45.893   3.643   7.542  0.00  0.00    +0.000 A 
ENDBRANCH  26  28
ENDBRANCH  24  26
ENDBRANCH  23  24
ENDBRANCH   4  23
TORSDOF 8
ENDMDL
MODEL 3
REMARK VINA RESULT:    -7.968      2.659      4.040
REMARK INTER + INTRA:         -12.938
REMARK INTER:                 -11.597
REMARK INTRA:                  -1.341
REMARK UNBOUND:                -1.244
REMARK  Name = 
REMARK  10 active torsions:
REMARK  status: ('A' for Active; 'I' for Inactive)
REMARK    1  A    between atoms: C_1  and  O_2
REMARK    2  A    between atoms: O_2  and  C_3
REMARK    3  A    between atoms: C_10  and  C_11
REMARK    4  A    between atoms: N_13  and  C_14
REMARK    5  A    between atoms: C_14  and  C_15
REMARK    6  A    between atoms: C_18  and  C_19
REMARK    7  A    between atoms: C_19  and  N_20
REMARK    8  A    between atoms: N_20  and  C_21
REMARK    9  A    between atoms: C_21  and  C_22
REMARK   10  A    between atoms: C_21  and  C_23
REMARK                            x       y       z     vdW  Elec       q    Type
REMARK                         _______ _______ _______ _____ _____    ______ ____
ROOT
ATOM      1  C   UNL     1      47.162   6.301  13.023  0.00  0.00    +0.000 A 
ATOM      2  C   UNL     1      47.050   6.697  11.683  0.00  0.00    +0.000 A 
ATOM      3  C   UNL     1      45.936   6.329  10.913  0.00  0.00    +0.000 A 
ATOM      4  C   UNL     1      44.922   5.519  11.450  0.00  0.00    +0.000 A 
ATOM      5  C   UNL     1      45.060   5.096  12.779  0.00  0.00    +0.000 A 
ATOM      6  C   UNL     1      46.153   5.493  13.559  0.00  0.00    +0.000 A 
ENDROOT
BRANCH   1   7
ATOM      7  C   UNL     1      48.316   6.775  13.874  0.00  0.00    +0.000 C 
BRANCH   7  10
ATOM      8  C   UNL     1      49.085   6.384  16.182  0.00  0.00    +0.000 C 
ATOM      9  O   UNL     1      50.268   6.365  15.816  0.00  0.00    +0.000 OA
ATOM     10  N   UNL     1      48.070   6.583  15.286  0.00  0.00    +0.000 N 
ATOM     11  H   UNL     1      47.108   6.477  15.582  0.00  0.00    +0.000 HD
BRANCH   8  19
ATOM     12  C   UNL     1      47.801   8.473  18.585  0.00  0.00    +0.000 A 
ATOM     13  N   UNL     1      47.311   9.063  19.691  0.00  0.00    +0.000 NA
ATOM     14  C   UNL     1      47.210   8.342  20.803  0.00  0.00    +0.000 A 
ATOM     15  N   UNL     1      47.545   7.067  20.955  0.00  0.00    +0.000 NA
ATOM     16  C   UNL     1      48.020   6.509  19.824  0.00  0.00    +0.000 A 
ATOM     17  S   UNL     1      48.501   4.882  19.832  0.00  0.00    +0.000 S 
ATOM     18  C   UNL     1      48.936   4.952  18.191  0.00  0.00    +0.000 A 
ATOM     19  C   UNL     1      48.728   6.195  17.601  0.00  0.00    +0.000 A 
ATOM     20  C   UNL     1      48.181   7.124  18.588  0.00  0.00    +0.000 A 
BRANCH  12  22
ATOM     21  C   UNL     1      47.906  10.631  17.777  0.00  0.00    +0.000 C 
ATOM     22  O   UNL     1      47.866   9.241  17.446  0.00  0.00    +0.000 OA
ENDBRANCH  12  22
ENDBRANCH   8  19
ENDBRANCH   7  10
ENDBRANCH   1   7
BRANCH   4  23
ATOM     23  C   UNL     1      43.664   5.153  10.676  0.00  0.00    +0.000 C 
BRANCH  23  24
ATOM     24  N   UNL     1      43.951   4.331   9.500  0.00  0.00    +0.000 NA
ATOM     25  H   UNL     1      44.466   4.912   8.838  0.00  0.00    +0.000 HD
BRANCH  24  26
ATOM     26  C   UNL     1      44.776   3.135   9.759  0.00  0.00    +0.000 C 
ATOM     27  C   UNL     1      43.955   1.886  10.123  0.00  0.00    +0.000 C 
BRANCH  26  28
ATOM     28  C   UNL     1      45.638   2.838   8.528  0.00  0.00    +0.000 A 
ATOM     29  C   UNL     1      45.968   3.848   7.605  0.00  0.00    +0.000 A 
ATOM     30  C   UNL     1      46.797   3.576   6.510  0.00  0.00    +0.000 A 
ATOM     31  C   UNL     1      47.283   2.288   6.323  0.00  0.00    +0.000 A 
ATOM     32  F   UNL     1      48.081   2.026   5.279  0.00  0.00    +0.000 F 
ATOM     33  C   UNL     1      46.948   1.267   7.203  0.00  0.00    +0.000 A 
ATOM     34  C   UNL     1      46.133   1.540   8.301  0.00  0.00    +0.000 A 
ENDBRANCH  26  28
ENDBRANCH  24  26
ENDBRANCH  23  24
ENDBRANCH   4  23
TORSDOF 8
ENDMDL
MODEL 4
REMARK VINA RESULT:    -7.051      2.369      3.967
REMARK INTER + INTRA:         -11.593
REMARK INTER:                 -10.324
REMARK INTRA:                  -1.268
REMARK UNBOUND:                -1.244
REMARK  Name = 
REMARK  10 active torsions:
REMARK  status: ('A' for Active; 'I' for Inactive)
REMARK    1  A    between atoms: C_1  and  O_2
REMARK    2  A    between atoms: O_2  and  C_3
REMARK    3  A    between atoms: C_10  and  C_11
REMARK    4  A    between atoms: N_13  and  C_14
REMARK    5  A    between atoms: C_14  and  C_15
REMARK    6  A    between atoms: C_18  and  C_19
REMARK    7  A    between atoms: C_19  and  N_20
REMARK    8  A    between atoms: N_20  and  C_21
REMARK    9  A    between atoms: C_21  and  C_22
REMARK   10  A    between atoms: C_21  and  C_23
REMARK                            x       y       z     vdW  Elec       q    Type
REMARK                         _______ _______ _______ _____ _____    ______ ____
ROOT
ATOM      1  C   UNL     1      48.087   4.400  16.541  0.00  0.00    +0.000 A 
ATOM      2  C   UNL     1      48.781   5.618  16.561  0.00  0.00    +0.000 A 
ATOM      3  C   UNL     1      48.618   6.558  15.532  0.00  0.00    +0.000 A 
ATOM      4  C   UNL     1      47.789   6.287  14.431  0.00  0.00    +0.000 A 
ATOM      5  C   UNL     1      47.128   5.052  14.399  0.00  0.00    +0.000 A 
ATOM      6  C   UNL     1      47.262   4.128  15.445  0.00  0.00    +0.000 A 
ENDROOT
BRANCH   1   7
ATOM      7  C   UNL     1      48.194   3.432  17.695  0.00  0.00    +0.000 C 
BRANCH   7  10
ATOM      8  C   UNL     1      50.315   2.276  17.204  0.00  0.00    +0.000 C 
ATOM      9  O   UNL     1      49.842   1.786  16.169  0.00  0.00    +0.000 OA
ATOM     10  N   UNL     1      49.567   3.098  18.004  0.00  0.00    +0.000 N 
ATOM     11  H   UNL     1      49.929   3.391  18.902  0.00  0.00    +0.000 HD
BRANCH   8  19
ATOM     12  C   UNL     1      52.932   4.272  18.183  0.00  0.00    +0.000 A 
ATOM     13  N   UNL     1      54.096   4.809  18.592  0.00  0.00    +0.000 NA
ATOM     14  C   UNL     1      55.123   3.997  18.824  0.00  0.00    +0.000 A 
ATOM     15  N   UNL     1      55.135   2.677  18.695  0.00  0.00    +0.000 NA
ATOM     16  C   UNL     1      53.950   2.176  18.294  0.00  0.00    +0.000 A 
ATOM     17  S   UNL     1      53.781   0.502  18.075  0.00  0.00    +0.000 S 
ATOM     18  C   UNL     1      52.156   0.678  17.607  0.00  0.00    +0.000 A 
ATOM     19  C   UNL     1      51.705   1.995  17.609  0.00  0.00    +0.000 A 
ATOM     20  C   UNL     1      52.788   2.887  18.019  0.00  0.00    +0.000 A 
BRANCH  12  22
ATOM     21  C   UNL     1      51.590   5.864  19.175  0.00  0.00    +0.000 C 
ATOM     22  O   UNL     1      51.882   5.138  17.980  0.00  0.00    +0.000 OA
ENDBRANCH  12  22
ENDBRANCH   8  19
ENDBRANCH   7  10
ENDBRANCH   1   7
BRANCH   4  23
ATOM     23  C   UNL     1      47.528   7.302  13.327  0.00  0.00    +0.000 C 
BRANCH  23  24
ATOM     24  N   UNL     1      47.025   6.679  12.102  0.00  0.00    +0.000 NA
ATOM     25  H   UNL     1      47.407   5.733  12.061  0.00  0.00    +0.000 HD
BRANCH  24  26
ATOM     26  C   UNL     1      45.557   6.558  12.020  0.00  0.00    +0.000 C 
ATOM     27  C   UNL     1      44.863   7.819  11.477  0.00  0.00    +0.000 C 
BRANCH  26  28
ATOM     28  C   UNL     1      45.196   5.358  11.138  0.00  0.00    +0.000 A 
ATOM     29  C   UNL     1      44.475   4.263  11.651  0.00  0.00    +0.000 A 
ATOM     30  C   UNL     1      44.108   3.194  10.824  0.00  0.00    +0.000 A 
ATOM     31  C   UNL     1      44.479   3.207   9.486  0.00  0.00    +0.000 A 
ATOM     32  F   UNL     1      44.124   2.189   8.690  0.00  0.00    +0.000 F 
ATOM     33  C   UNL     1      45.216   4.261   8.961  0.00  0.00    +0.000 A 
ATOM     34  C   UNL     1      45.571   5.332   9.782  0.00  0.00    +0.000 A 
ENDBRANCH  26  28
ENDBRANCH  24  26
ENDBRANCH  23  24
ENDBRANCH   4  23
TORSDOF 8
ENDMDL
MODEL 5
REMARK VINA RESULT:    -6.806      5.566      7.201
REMARK INTER + INTRA:         -11.233
REMARK INTER:                  -9.701
REMARK INTRA:                  -1.531
REMARK UNBOUND:                -1.244
REMARK  Name = 
REMARK  10 active torsions:
REMARK  status: ('A' for Active; 'I' for Inactive)
REMARK    1  A    between atoms: C_1  and  O_2
REMARK    2  A    between atoms: O_2  and  C_3
REMARK    3  A    between atoms: C_10  and  C_11
REMARK    4  A    between atoms: N_13  and  C_14
REMARK    5  A    between atoms: C_14  and  C_15
REMARK    6  A    between atoms: C_18  and  C_19
REMARK    7  A    between atoms: C_19  and  N_20
REMARK    8  A    between atoms: N_20  and  C_21
REMARK    9  A    between atoms: C_21  and  C_22
REMARK   10  A    between atoms: C_21  and  C_23
REMARK                            x       y       z     vdW  Elec       q    Type
REMARK                         _______ _______ _______ _____ _____    ______ ____
ROOT
ATOM      1  C   UNL     1      48.671   7.365  12.503  0.00  0.00    +0.000 A 
ATOM      2  C   UNL     1      47.630   7.969  11.783  0.00  0.00    +0.000 A 
ATOM      3  C   UNL     1      46.310   7.508  11.902  0.00  0.00    +0.000 A 
ATOM      4  C   UNL     1      46.001   6.404  12.711  0.00  0.00    +0.000 A 
ATOM      5  C   UNL     1      47.052   5.782  13.398  0.00  0.00    +0.000 A 
ATOM      6  C   UNL     1      48.364   6.264  13.309  0.00  0.00    +0.000 A 
ENDROOT
BRANCH   1   7
ATOM      7  C   UNL     1      50.074   7.921  12.443  0.00  0.00    +0.000 C 
BRANCH   7  10
ATOM      8  C   UNL     1      52.107   7.784  11.056  0.00  0.00    +0.000 C 
ATOM      9  O   UNL     1      52.745   8.461  11.874  0.00  0.00    +0.000 OA
ATOM     10  N   UNL     1      50.790   7.475  11.268  0.00  0.00    +0.000 N 
ATOM     11  H   UNL     1      50.254   7.025  10.537  0.00  0.00    +0.000 HD
BRANCH   8  19
ATOM     12  C   UNL     1      52.866   9.239   8.041  0.00  0.00    +0.000 A 
ATOM     13  N   UNL     1      53.268   9.555   6.796  0.00  0.00    +0.000 NA
ATOM     14  C   UNL     1      53.829   8.608   6.051  0.00  0.00    +0.000 A 
ATOM     15  N   UNL     1      54.046   7.347   6.402  0.00  0.00    +0.000 NA
ATOM     16  C   UNL     1      53.640   7.073   7.657  0.00  0.00    +0.000 A 
ATOM     17  S   UNL     1      53.838   5.505   8.276  0.00  0.00    +0.000 S 
ATOM     18  C   UNL     1      53.138   5.950   9.760  0.00  0.00    +0.000 A 
ATOM     19  C   UNL     1      52.744   7.283   9.824  0.00  0.00    +0.000 A 
ATOM     20  C   UNL     1      53.047   7.949   8.558  0.00  0.00    +0.000 A 
BRANCH  12  22
ATOM     21  C   UNL     1      53.338  11.008   9.444  0.00  0.00    +0.000 C 
ATOM     22  O   UNL     1      52.315  10.250   8.794  0.00  0.00    +0.000 OA
ENDBRANCH  12  22
ENDBRANCH   8  19
ENDBRANCH   7  10
ENDBRANCH   1   7
BRANCH   4  23
ATOM     23  C   UNL     1      44.576   5.912  12.925  0.00  0.00    +0.000 C 
BRANCH  23  24
ATOM     24  N   UNL     1      44.026   5.259  11.736  0.00  0.00    +0.000 NA
ATOM     25  H   UNL     1      44.334   5.794  10.923  0.00  0.00    +0.000 HD
BRANCH  24  26
ATOM     26  C   UNL     1      44.464   3.865  11.530  0.00  0.00    +0.000 C 
ATOM     27  C   UNL     1      43.352   2.828  11.757  0.00  0.00    +0.000 C 
BRANCH  26  28
ATOM     28  C   UNL     1      45.020   3.714  10.111  0.00  0.00    +0.000 A 
ATOM     29  C   UNL     1      45.500   4.824   9.390  0.00  0.00    +0.000 A 
ATOM     30  C   UNL     1      46.050   4.666   8.112  0.00  0.00    +0.000 A 
ATOM     31  C   UNL     1      46.105   3.401   7.542  0.00  0.00    +0.000 A 
ATOM     32  F   UNL     1      46.637   3.246   6.322  0.00  0.00    +0.000 F 
ATOM     33  C   UNL     1      45.611   2.294   8.219  0.00  0.00    +0.000 A 
ATOM     34  C   UNL     1      45.074   2.448   9.497  0.00  0.00    +0.000 A 
ENDBRANCH  26  28
ENDBRANCH  24  26
ENDBRANCH  23  24
ENDBRANCH   4  23
TORSDOF 8
ENDMDL
MODEL 6
REMARK VINA RESULT:    -6.529      3.975      5.042
REMARK INTER + INTRA:         -10.826
REMARK INTER:                  -9.848
REMARK INTRA:                  -0.978
REMARK UNBOUND:                -1.244
REMARK  Name = 
REMARK  10 active torsions:
REMARK  status: ('A' for Active; 'I' for Inactive)
REMARK    1  A    between atoms: C_1  and  O_2
REMARK    2  A    between atoms: O_2  and  C_3
REMARK    3  A    between atoms: C_10  and  C_11
REMARK    4  A    between atoms: N_13  and  C_14
REMARK    5  A    between atoms: C_14  and  C_15
REMARK    6  A    between atoms: C_18  and  C_19
REMARK    7  A    between atoms: C_19  and  N_20
REMARK    8  A    between atoms: N_20  and  C_21
REMARK    9  A    between atoms: C_21  and  C_22
REMARK   10  A    between atoms: C_21  and  C_23
REMARK                            x       y       z     vdW  Elec       q    Type
REMARK                         _______ _______ _______ _____ _____    ______ ____
ROOT
ATOM      1  C   UNL     1      46.294   7.654  12.904  0.00  0.00    +0.000 A 
ATOM      2  C   UNL     1      45.393   8.265  12.021  0.00  0.00    +0.000 A 
ATOM      3  C   UNL     1      44.469   7.502  11.291  0.00  0.00    +0.000 A 
ATOM      4  C   UNL     1      44.449   6.102  11.392  0.00  0.00    +0.000 A 
ATOM      5  C   UNL     1      45.377   5.495  12.248  0.00  0.00    +0.000 A 
ATOM      6  C   UNL     1      46.275   6.258  13.005  0.00  0.00    +0.000 A 
ENDROOT
BRANCH   1   7
ATOM      7  C   UNL     1      47.224   8.484  13.755  0.00  0.00    +0.000 C 
BRANCH   7  10
ATOM      8  C   UNL     1      49.546   7.845  13.228  0.00  0.00    +0.000 C 
ATOM      9  O   UNL     1      49.443   6.808  13.898  0.00  0.00    +0.000 OA
ATOM     10  N   UNL     1      48.497   8.717  13.109  0.00  0.00    +0.000 N 
ATOM     11  H   UNL     1      48.636   9.613  12.659  0.00  0.00    +0.000 HD
BRANCH   8  19
ATOM     12  C   UNL     1      52.478   9.318  14.239  0.00  0.00    +0.000 A 
ATOM     13  N   UNL     1      53.705   9.853  14.368  0.00  0.00    +0.000 NA
ATOM     14  C   UNL     1      54.489   9.907  13.296  0.00  0.00    +0.000 A 
ATOM     15  N   UNL     1      54.194   9.481  12.075  0.00  0.00    +0.000 NA
ATOM     16  C   UNL     1      52.962   8.943  11.989  0.00  0.00    +0.000 A 
ATOM     17  S   UNL     1      52.412   8.346  10.498  0.00  0.00    +0.000 S 
ATOM     18  C   UNL     1      50.920   7.893  11.175  0.00  0.00    +0.000 A 
ATOM     19  C   UNL     1      50.803   8.176  12.533  0.00  0.00    +0.000 A 
ATOM     20  C   UNL     1      52.031   8.809  13.012  0.00  0.00    +0.000 A 
BRANCH  12  22
ATOM     21  C   UNL     1      51.974   8.051  16.099  0.00  0.00    +0.000 C 
ATOM     22  O   UNL     1      51.703   9.253  15.375  0.00  0.00    +0.000 OA
ENDBRANCH  12  22
ENDBRANCH   8  19
ENDBRANCH   7  10
ENDBRANCH   1   7
BRANCH   4  23
ATOM     23  C   UNL     1      43.420   5.239  10.674  0.00  0.00    +0.000 C 
BRANCH  23  24
ATOM     24  N   UNL     1      43.988   4.532   9.525  0.00  0.00    +0.000 NA
ATOM     25  H   UNL     1      44.580   5.194   9.020  0.00  0.00    +0.000 HD
BRANCH  24  26
ATOM     26  C   UNL     1      44.830   3.368   9.862  0.00  0.00    +0.000 C 
ATOM     27  C   UNL     1      44.027   2.138  10.318  0.00  0.00    +0.000 C 
BRANCH  26  28
ATOM     28  C   UNL     1      45.688   2.996   8.648  0.00  0.00    +0.000 A 
ATOM     29  C   UNL     1      46.111   1.670   8.430  0.00  0.00    +0.000 A 
ATOM     30  C   UNL     1      46.853   1.332   7.292  0.00  0.00    +0.000 A 
ATOM     31  C   UNL     1      47.192   2.322   6.378  0.00  0.00    +0.000 A 
ATOM     32  F   UNL     1      47.897   2.000   5.284  0.00  0.00    +0.000 F 
ATOM     33  C   UNL     1      46.812   3.642   6.584  0.00  0.00    +0.000 A 
ATOM     34  C   UNL     1      46.062   3.977   7.711  0.00  0.00    +0.000 A 
ENDBRANCH  26  28
ENDBRANCH  24  26
ENDBRANCH  23  24
ENDBRANCH   4  23
TORSDOF 8
ENDMDL
MODEL 7
REMARK VINA RESULT:    -6.386      2.023      3.264
REMARK INTER + INTRA:         -10.616
REMARK INTER:                  -9.748
REMARK INTRA:                  -0.868
REMARK UNBOUND:                -1.244
REMARK  Name = 
REMARK  10 active torsions:
REMARK  status: ('A' for Active; 'I' for Inactive)
REMARK    1  A    between atoms: C_1  and  O_2
REMARK    2  A    between atoms: O_2  and  C_3
REMARK    3  A    between atoms: C_10  and  C_11
REMARK    4  A    between atoms: N_13  and  C_14
REMARK    5  A    between atoms: C_14  and  C_15
REMARK    6  A    between atoms: C_18  and  C_19
REMARK    7  A    between atoms: C_19  and  N_20
REMARK    8  A    between atoms: N_20  and  C_21
REMARK    9  A    between atoms: C_21  and  C_22
REMARK   10  A    between atoms: C_21  and  C_23
REMARK                            x       y       z     vdW  Elec       q    Type
REMARK                         _______ _______ _______ _____ _____    ______ ____
ROOT
ATOM      1  C   UNL     1      47.848   5.049  15.905  0.00  0.00    +0.000 A 
ATOM      2  C   UNL     1      48.278   6.239  15.302  0.00  0.00    +0.000 A 
ATOM      3  C   UNL     1      47.900   6.560  13.990  0.00  0.00    +0.000 A 
ATOM      4  C   UNL     1      47.113   5.680  13.229  0.00  0.00    +0.000 A 
ATOM      5  C   UNL     1      46.718   4.476  13.825  0.00  0.00    +0.000 A 
ATOM      6  C   UNL     1      47.065   4.171  15.148  0.00  0.00    +0.000 A 
ENDROOT
BRANCH   1   7
ATOM      7  C   UNL     1      48.181   4.750  17.347  0.00  0.00    +0.000 C 
BRANCH   7  10
ATOM      8  C   UNL     1      50.364   3.607  17.368  0.00  0.00    +0.000 C 
ATOM      9  O   UNL     1      49.852   2.559  16.949  0.00  0.00    +0.000 OA
ATOM     10  N   UNL     1      49.608   4.726  17.586  0.00  0.00    +0.000 N 
ATOM     11  H   UNL     1      50.019   5.532  18.039  0.00  0.00    +0.000 HD
BRANCH   8  19
ATOM     12  C   UNL     1      52.721   6.060  16.905  0.00  0.00    +0.000 A 
ATOM     13  N   UNL     1      53.820   6.834  16.838  0.00  0.00    +0.000 NA
ATOM     14  C   UNL     1      54.975   6.333  17.264  0.00  0.00    +0.000 A 
ATOM     15  N   UNL     1      55.177   5.121  17.764  0.00  0.00    +0.000 NA
ATOM     16  C   UNL     1      54.053   4.381  17.825  0.00  0.00    +0.000 A 
ATOM     17  S   UNL     1      54.123   2.800  18.437  0.00  0.00    +0.000 S 
ATOM     18  C   UNL     1      52.456   2.578  18.189  0.00  0.00    +0.000 A 
ATOM     19  C   UNL     1      51.810   3.685  17.646  0.00  0.00    +0.000 A 
ATOM     20  C   UNL     1      52.776   4.761  17.427  0.00  0.00    +0.000 A 
BRANCH  12  22
ATOM     21  C   UNL     1      51.773   7.560  15.431  0.00  0.00    +0.000 C 
ATOM     22  O   UNL     1      51.537   6.620  16.481  0.00  0.00    +0.000 OA
ENDBRANCH  12  22
ENDBRANCH   8  19
ENDBRANCH   7  10
ENDBRANCH   1   7
BRANCH   4  23
ATOM     23  C   UNL     1      46.621   6.017  11.828  0.00  0.00    +0.000 C 
BRANCH  23  24
ATOM     24  N   UNL     1      45.182   6.277  11.789  0.00  0.00    +0.000 NA
ATOM     25  H   UNL     1      45.006   6.908  11.006  0.00  0.00    +0.000 HD
BRANCH  24  26
ATOM     26  C   UNL     1      44.337   5.085  11.582  0.00  0.00    +0.000 C 
ATOM     27  C   UNL     1      42.846   5.411  11.392  0.00  0.00    +0.000 C 
BRANCH  26  28
ATOM     28  C   UNL     1      44.847   4.308  10.365  0.00  0.00    +0.000 A 
ATOM     29  C   UNL     1      44.750   2.905  10.299  0.00  0.00    +0.000 A 
ATOM     30  C   UNL     1      45.175   2.208   9.161  0.00  0.00    +0.000 A 
ATOM     31  C   UNL     1      45.717   2.910   8.092  0.00  0.00    +0.000 A 
ATOM     32  F   UNL     1      46.118   2.247   6.999  0.00  0.00    +0.000 F 
ATOM     33  C   UNL     1      45.852   4.292   8.144  0.00  0.00    +0.000 A 
ATOM     34  C   UNL     1      45.417   4.987   9.272  0.00  0.00    +0.000 A 
ENDBRANCH  26  28
ENDBRANCH  24  26
ENDBRANCH  23  24
ENDBRANCH   4  23
TORSDOF 8
ENDMDL
MODEL 8
REMARK VINA RESULT:    -6.379      2.504      3.106
REMARK INTER + INTRA:         -10.606
REMARK INTER:                  -9.541
REMARK INTRA:                  -1.065
REMARK UNBOUND:                -1.244
REMARK  Name = 
REMARK  10 active torsions:
REMARK  status: ('A' for Active; 'I' for Inactive)
REMARK    1  A    between atoms: C_1  and  O_2
REMARK    2  A    between atoms: O_2  and  C_3
REMARK    3  A    between atoms: C_10  and  C_11
REMARK    4  A    between atoms: N_13  and  C_14
REMARK    5  A    between atoms: C_14  and  C_15
REMARK    6  A    between atoms: C_18  and  C_19
REMARK    7  A    between atoms: C_19  and  N_20
REMARK    8  A    between atoms: N_20  and  C_21
REMARK    9  A    between atoms: C_21  and  C_22
REMARK   10  A    between atoms: C_21  and  C_23
REMARK                            x       y       z     vdW  Elec       q    Type
REMARK                         _______ _______ _______ _____ _____    ______ ____
ROOT
ATOM      1  C   UNL     1      47.589   7.509  13.867  0.00  0.00    +0.000 A 
ATOM      2  C   UNL     1      46.463   7.591  13.035  0.00  0.00    +0.000 A 
ATOM      3  C   UNL     1      45.783   6.433  12.628  0.00  0.00    +0.000 A 
ATOM      4  C   UNL     1      46.234   5.159  13.007  0.00  0.00    +0.000 A 
ATOM      5  C   UNL     1      47.381   5.083  13.807  0.00  0.00    +0.000 A 
ATOM      6  C   UNL     1      48.040   6.240  14.245  0.00  0.00    +0.000 A 
ENDROOT
BRANCH   1   7
ATOM      7  C   UNL     1      48.263   8.760  14.378  0.00  0.00    +0.000 C 
BRANCH   7  10
ATOM      8  C   UNL     1      48.728   8.954  16.791  0.00  0.00    +0.000 C 
ATOM      9  O   UNL     1      47.686   9.599  16.969  0.00  0.00    +0.000 OA
ATOM     10  N   UNL     1      49.078   8.505  15.546  0.00  0.00    +0.000 N 
ATOM     11  H   UNL     1      49.987   8.085  15.398  0.00  0.00    +0.000 HD
BRANCH   8  19
ATOM     12  C   UNL     1      49.349   6.096  18.590  0.00  0.00    +0.000 A 
ATOM     13  N   UNL     1      49.777   5.139  19.434  0.00  0.00    +0.000 NA
ATOM     14  C   UNL     1      50.687   5.460  20.348  0.00  0.00    +0.000 A 
ATOM     15  N   UNL     1      51.241   6.652  20.533  0.00  0.00    +0.000 NA
ATOM     16  C   UNL     1      50.795   7.579  19.663  0.00  0.00    +0.000 A 
ATOM     17  S   UNL     1      51.394   9.165  19.752  0.00  0.00    +0.000 S 
ATOM     18  C   UNL     1      50.421   9.657  18.447  0.00  0.00    +0.000 A 
ATOM     19  C   UNL     1      49.630   8.643  17.916  0.00  0.00    +0.000 A 
ATOM     20  C   UNL     1      49.858   7.401  18.653  0.00  0.00    +0.000 A 
BRANCH  12  22
ATOM     21  C   UNL     1      47.672   4.597  18.087  0.00  0.00    +0.000 C 
ATOM     22  O   UNL     1      48.428   5.723  17.639  0.00  0.00    +0.000 OA
ENDBRANCH  12  22
ENDBRANCH   8  19
ENDBRANCH   7  10
ENDBRANCH   1   7
BRANCH   4  23
ATOM     23  C   UNL     1      45.489   3.881  12.646  0.00  0.00    +0.000 C 
BRANCH  23  24
ATOM     24  N   UNL     1      44.060   3.963  12.948  0.00  0.00    +0.000 NA
ATOM     25  H   UNL     1      43.906   4.827  13.469  0.00  0.00    +0.000 HD
BRANCH  24  26
ATOM     26  C   UNL     1      43.174   4.004  11.768  0.00  0.00    +0.000 C 
ATOM     27  C   UNL     1      42.486   5.364  11.561  0.00  0.00    +0.000 C 
BRANCH  26  28
ATOM     28  C   UNL     1      43.981   3.645  10.516  0.00  0.00    +0.000 A 
ATOM     29  C   UNL     1      44.226   2.304  10.163  0.00  0.00    +0.000 A 
ATOM     30  C   UNL     1      44.923   1.987   8.991  0.00  0.00    +0.000 A 
ATOM     31  C   UNL     1      45.393   3.010   8.177  0.00  0.00    +0.000 A 
ATOM     32  F   UNL     1      46.054   2.709   7.050  0.00  0.00    +0.000 F 
ATOM     33  C   UNL     1      45.190   4.341   8.517  0.00  0.00    +0.000 A 
ATOM     34  C   UNL     1      44.485   4.657   9.678  0.00  0.00    +0.000 A 
ENDBRANCH  26  28
ENDBRANCH  24  26
ENDBRANCH  23  24
ENDBRANCH   4  23
TORSDOF 8
ENDMDL
MODEL 9
REMARK VINA RESULT:    -6.177      4.580      5.968
REMARK INTER + INTRA:         -10.309
REMARK INTER:                  -9.225
REMARK INTRA:                  -1.084
REMARK UNBOUND:                -1.244
REMARK  Name = 
REMARK  10 active torsions:
REMARK  status: ('A' for Active; 'I' for Inactive)
REMARK    1  A    between atoms: C_1  and  O_2
REMARK    2  A    between atoms: O_2  and  C_3
REMARK    3  A    between atoms: C_10  and  C_11
REMARK    4  A    between atoms: N_13  and  C_14
REMARK    5  A    between atoms: C_14  and  C_15
REMARK    6  A    between atoms: C_18  and  C_19
REMARK    7  A    between atoms: C_19  and  N_20
REMARK    8  A    between atoms: N_20  and  C_21
REMARK    9  A    between atoms: C_21  and  C_22
REMARK   10  A    between atoms: C_21  and  C_23
REMARK                            x       y       z     vdW  Elec       q    Type
REMARK                         _______ _______ _______ _____ _____    ______ ____
ROOT
ATOM      1  C   UNL     1      48.373   7.825  13.529  0.00  0.00    +0.000 A 
ATOM      2  C   UNL     1      47.191   8.519  13.824  0.00  0.00    +0.000 A 
ATOM      3  C   UNL     1      46.009   8.263  13.113  0.00  0.00    +0.000 A 
ATOM      4  C   UNL     1      45.987   7.336  12.058  0.00  0.00    +0.000 A 
ATOM      5  C   UNL     1      47.181   6.674  11.745  0.00  0.00    +0.000 A 
ATOM      6  C   UNL     1      48.353   6.902  12.479  0.00  0.00    +0.000 A 
ENDROOT
BRANCH   1   7
ATOM      7  C   UNL     1      49.618   8.037  14.357  0.00  0.00    +0.000 C 
BRANCH   7  10
ATOM      8  C   UNL     1      51.852   8.747  13.593  0.00  0.00    +0.000 C 
ATOM      9  O   UNL     1      51.786   9.783  14.270  0.00  0.00    +0.000 OA
ATOM     10  N   UNL     1      50.827   7.840  13.587  0.00  0.00    +0.000 N 
ATOM     11  H   UNL     1      50.847   7.063  12.939  0.00  0.00    +0.000 HD
BRANCH   8  19
ATOM     12  C   UNL     1      52.571   9.168  10.263  0.00  0.00    +0.000 A 
ATOM     13  N   UNL     1      53.102   9.223   9.028  0.00  0.00    +0.000 NA
ATOM     14  C   UNL     1      54.335   8.760   8.847  0.00  0.00    +0.000 A 
ATOM     15  N   UNL     1      55.128   8.233   9.770  0.00  0.00    +0.000 NA
ATOM     16  C   UNL     1      54.565   8.205  10.994  0.00  0.00    +0.000 A 
ATOM     17  S   UNL     1      55.436   7.562  12.301  0.00  0.00    +0.000 S 
ATOM     18  C   UNL     1      54.148   7.863  13.370  0.00  0.00    +0.000 A 
ATOM     19  C   UNL     1      53.040   8.454  12.771  0.00  0.00    +0.000 A 
ATOM     20  C   UNL     1      53.297   8.653  11.345  0.00  0.00    +0.000 A 
BRANCH  12  22
ATOM     21  C   UNL     1      51.357  11.089  10.660  0.00  0.00    +0.000 C 
ATOM     22  O   UNL     1      51.304   9.681  10.420  0.00  0.00    +0.000 OA
ENDBRANCH  12  22
ENDBRANCH   8  19
ENDBRANCH   7  10
ENDBRANCH   1   7
BRANCH   4  23
ATOM     23  C   UNL     1      44.714   6.976  11.305  0.00  0.00    +0.000 C 
BRANCH  23  24
ATOM     24  N   UNL     1      44.963   6.059  10.192  0.00  0.00    +0.000 NA
ATOM     25  H   UNL     1      45.917   6.224   9.867  0.00  0.00    +0.000 HD
BRANCH  24  26
ATOM     26  C   UNL     1      44.862   4.626  10.528  0.00  0.00    +0.000 C 
ATOM     27  C   UNL     1      43.432   4.169  10.861  0.00  0.00    +0.000 C 
BRANCH  26  28
ATOM     28  C   UNL     1      45.403   3.793   9.361  0.00  0.00    +0.000 A 
ATOM     29  C   UNL     1      45.996   4.403   8.239  0.00  0.00    +0.000 A 
ATOM     30  C   UNL     1      46.531   3.630   7.201  0.00  0.00    +0.000 A 
ATOM     31  C   UNL     1      46.459   2.245   7.272  0.00  0.00    +0.000 A 
ATOM     32  F   UNL     1      46.976   1.503   6.284  0.00  0.00    +0.000 F 
ATOM     33  C   UNL     1      45.853   1.619   8.355  0.00  0.00    +0.000 A 
ATOM     34  C   UNL     1      45.331   2.388   9.394  0.00  0.00    +0.000 A 
ENDBRANCH  26  28
ENDBRANCH  24  26
ENDBRANCH  23  24
ENDBRANCH   4  23
TORSDOF 8
ENDMDL
