MODEL 1
REMARK VINA RESULT:    -8.279      0.000      0.000
REMARK INTER + INTRA:         -14.363
REMARK INTER:                 -12.877
REMARK INTRA:                  -1.485
REMARK UNBOUND:                -1.485
REMARK  Name = 
REMARK  10 active torsions:
REMARK  status: ('A' for Active; 'I' for Inactive)
REMARK    1  A    between atoms: C_2  and  C_23
REMARK    2  A    between atoms: N_3  and  C_4
REMARK    3  A    between atoms: C_4  and  C_5
REMARK    4  A    between atoms: C_8  and  C_9
REMARK    5  A    between atoms: C_9  and  CA_10
REMARK    6  A    between atoms: CA_10  and  C_11
REMARK    7  A    between atoms: CA_10  and  N_13
REMARK    8  A    between atoms: C_11  and  O_12
REMARK    9  A    between atoms: N_13  and  C_14
REMARK   10  A    between atoms: C_14  and  C_15
REMARK                            x       y       z     vdW  Elec       q    Type
REMARK                         _______ _______ _______ _____ _____    ______ ____
ROOT
ATOM      1  C   UNL     1      46.645   7.710  12.877  0.00  0.00    +0.000 A 
ATOM      2  C   UNL     1      47.141   6.641  12.134  0.00  0.00    +0.000 A 
ATOM      3  C   UNL     1      46.261   5.890  11.362  0.00  0.00    +0.000 A 
ATOM      4  C   UNL     1      44.898   6.193  11.373  0.00  0.00    +0.000 A 
ATOM      5  C   UNL     1      44.491   7.276  12.141  0.00  0.00    +0.000 A 
ATOM      6  N   UNL     1      45.325   8.026  12.895  0.00  0.00    +0.000 NA
ENDROOT
BRANCH   1   7
ATOM      7  C   UNL     1      47.568   8.517  13.759  0.00  0.00    +0.000 C 
BRANCH   7  10
ATOM      8  O   UNL     1      50.077   7.367  14.290  0.00  0.00    +0.000 OA
ATOM      9  C   UNL     1      49.166   7.201  15.090  0.00  0.00    +0.000 C 
ATOM     10  N   UNL     1      47.936   7.786  14.947  0.00  0.00    +0.000 N 
ATOM     11  H   UNL     1      47.196   7.591  15.609  0.00  0.00    +0.000 HD
BRANCH   9  12
ATOM     12  C   UNL     1      49.330   6.404  16.305  0.00  0.00    +0.000 A 
ATOM     13  C   UNL     1      50.239   6.783  17.283  0.00  0.00    +0.000 A 
ATOM     14  S   UNL     1      50.214   5.766  18.659  0.00  0.00    +0.000 S 
ATOM     15  C   UNL     1      49.031   4.757  17.962  0.00  0.00    +0.000 A 
ATOM     16  N   UNL     1      48.540   3.678  18.629  0.00  0.00    +0.000 NA
ATOM     17  C   UNL     1      47.663   2.998  17.965  0.00  0.00    +0.000 A 
ATOM     18  N   UNL     1      47.249   3.286  16.691  0.00  0.00    +0.000 N 
ATOM     19  C   UNL     1      47.733   4.351  15.971  0.00  0.00    +0.000 A 
ATOM     20  O   UNL     1      47.364   4.560  14.821  0.00  0.00    +0.000 OA
ATOM     21  C   UNL     1      48.679   5.179  16.694  0.00  0.00    +0.000 A 
ATOM     22  H   UNL     1      46.571   2.702  16.221  0.00  0.00    +0.000 HD
ENDBRANCH   9  12
ENDBRANCH   7  10
ENDBRANCH   1   7
BRANCH   4  23
ATOM     23  C   UNL     1      43.904   5.381  10.589  0.00  0.00    +0.000 C 
BRANCH  23  24
ATOM     24  CA  UNL     1      44.134   3.848  10.663  0.00  0.00    +0.000 C 
BRANCH  24  25
ATOM     25  N   UNL     1      43.858   3.164   9.374  0.00  0.00    +0.000 NA
ATOM     26  H   UNL     1      44.087   3.787   8.595  0.00  0.00    +0.000 HD
BRANCH  25  27
ATOM     27  C   UNL     1      44.662   1.939   9.205  0.00  0.00    +0.000 C 
BRANCH  27  28
ATOM     28  C   UNL     1      45.751   2.108   8.165  0.00  0.00    +0.000 A 
ATOM     29  C   UNL     1      45.862   3.297   7.453  0.00  0.00    +0.000 A 
ATOM     30  C   UNL     1      46.883   3.425   6.518  0.00  0.00    +0.000 A 
ATOM     31  C   UNL     1      47.757   2.364   6.315  0.00  0.00    +0.000 A 
ATOM     32  C   UNL     1      47.578   1.213   7.063  0.00  0.00    +0.000 A 
ATOM     33  N   UNL     1      46.603   1.064   7.986  0.00  0.00    +0.000 NA
ENDBRANCH  27  28
ENDBRANCH  25  27
ENDBRANCH  24  25
BRANCH  24  34
ATOM     34  C   UNL     1      43.235   3.218  11.761  0.00  0.00    +0.000 C 
BRANCH  34  35
ATOM     35  O   UNL     1      43.880   3.231  13.034  0.00  0.00    +0.000 OA
ATOM     36  H   UNL     1      43.679   2.365  13.435  0.00  0.00    +0.000 HD
ENDBRANCH  34  35
ENDBRANCH  24  34
ENDBRANCH  23  24
ENDBRANCH   4  23
TORSDOF 10
ENDMDL
MODEL 2
REMARK VINA RESULT:    -8.065      2.283      2.632
REMARK INTER + INTRA:         -14.029
REMARK INTER:                 -12.813
REMARK INTRA:                  -1.216
REMARK UNBOUND:                -1.485
REMARK  Name = 
REMARK  10 active torsions:
REMARK  status: ('A' for Active; 'I' for Inactive)
REMARK    1  A    between atoms: C_2  and  C_23
REMARK    2  A    between atoms: N_3  and  C_4
REMARK    3  A    between atoms: C_4  and  C_5
REMARK    4  A    between atoms: C_8  and  C_9
REMARK    5  A    between atoms: C_9  and  CA_10
REMARK    6  A    between atoms: CA_10  and  C_11
REMARK    7  A    between atoms: CA_10  and  N_13
REMARK    8  A    between atoms: C_11  and  O_12
REMARK    9  A    between atoms: N_13  and  C_14
REMARK   10  A    between atoms: C_14  and  C_15
REMARK                            x       y       z     vdW  Elec       q    Type
REMARK                         _______ _______ _______ _____ _____    ______ ____
ROOT
ATOM      1  C   UNL     1      47.983   6.932  14.351  0.00  0.00    +0.000 A 
ATOM      2  C   UNL     1      47.620   7.755  13.288  0.00  0.00    +0.000 A 
ATOM      3  C   UNL     1      46.873   7.218  12.244  0.00  0.00    +0.000 A 
ATOM      4  C   UNL     1      46.535   5.864  12.259  0.00  0.00    +0.000 A 
ATOM      5  C   UNL     1      46.937   5.117  13.359  0.00  0.00    +0.000 A 
ATOM      6  N   UNL     1      47.656   5.614  14.389  0.00  0.00    +0.000 NA
ENDROOT
BRANCH   1   7
ATOM      7  C   UNL     1      48.829   7.473  15.479  0.00  0.00    +0.000 C 
BRANCH   7  10
ATOM      8  O   UNL     1      48.969   6.158  17.960  0.00  0.00    +0.000 OA
ATOM      9  C   UNL     1      49.863   5.982  17.142  0.00  0.00    +0.000 C 
ATOM     10  N   UNL     1      49.837   6.523  15.884  0.00  0.00    +0.000 N 
ATOM     11  H   UNL     1      50.616   6.387  15.252  0.00  0.00    +0.000 HD
BRANCH   9  12
ATOM     12  C   UNL     1      51.016   5.127  17.420  0.00  0.00    +0.000 A 
ATOM     13  C   UNL     1      52.258   5.681  17.699  0.00  0.00    +0.000 A 
ATOM     14  S   UNL     1      53.449   4.513  18.080  0.00  0.00    +0.000 S 
ATOM     15  C   UNL     1      52.355   3.232  17.825  0.00  0.00    +0.000 A 
ATOM     16  N   UNL     1      52.731   1.936  17.998  0.00  0.00    +0.000 NA
ATOM     17  C   UNL     1      51.799   1.075  17.749  0.00  0.00    +0.000 A 
ATOM     18  N   UNL     1      50.534   1.390  17.326  0.00  0.00    +0.000 N 
ATOM     19  C   UNL     1      50.116   2.682  17.117  0.00  0.00    +0.000 A 
ATOM     20  O   UNL     1      48.988   2.926  16.706  0.00  0.00    +0.000 OA
ATOM     21  C   UNL     1      51.110   3.689  17.436  0.00  0.00    +0.000 A 
ATOM     22  H   UNL     1      49.856   0.666  17.131  0.00  0.00    +0.000 HD
ENDBRANCH   9  12
ENDBRANCH   7  10
ENDBRANCH   1   7
BRANCH   4  23
ATOM     23  C   UNL     1      45.768   5.231  11.130  0.00  0.00    +0.000 C 
BRANCH  23  24
ATOM     24  CA  UNL     1      44.755   4.144  11.577  0.00  0.00    +0.000 C 
BRANCH  24  25
ATOM     25  N   UNL     1      45.033   2.817  10.972  0.00  0.00    +0.000 NA
ATOM     26  H   UNL     1      44.653   2.077  11.568  0.00  0.00    +0.000 HD
BRANCH  25  27
ATOM     27  C   UNL     1      44.415   2.667   9.641  0.00  0.00    +0.000 C 
BRANCH  27  28
ATOM     28  C   UNL     1      45.447   2.474   8.549  0.00  0.00    +0.000 A 
ATOM     29  C   UNL     1      45.769   3.523   7.695  0.00  0.00    +0.000 A 
ATOM     30  C   UNL     1      46.733   3.317   6.714  0.00  0.00    +0.000 A 
ATOM     31  C   UNL     1      47.341   2.071   6.609  0.00  0.00    +0.000 A 
ATOM     32  C   UNL     1      46.963   1.078   7.496  0.00  0.00    +0.000 A 
ATOM     33  N   UNL     1      46.038   1.252   8.465  0.00  0.00    +0.000 NA
ENDBRANCH  27  28
ENDBRANCH  25  27
ENDBRANCH  24  25
BRANCH  24  34
ATOM     34  C   UNL     1      43.308   4.567  11.204  0.00  0.00    +0.000 C 
BRANCH  34  35
ATOM     35  O   UNL     1      43.274   5.886  10.660  0.00  0.00    +0.000 OA
ATOM     36  H   UNL     1      42.737   5.817   9.849  0.00  0.00    +0.000 HD
ENDBRANCH  34  35
ENDBRANCH  24  34
ENDBRANCH  23  24
ENDBRANCH   4  23
TORSDOF 10
ENDMDL
MODEL 3
REMARK VINA RESULT:    -7.424      1.785      2.068
REMARK INTER + INTRA:         -13.032
REMARK INTER:                 -12.092
REMARK INTRA:                  -0.940
REMARK UNBOUND:                -1.485
REMARK  Name = 
REMARK  10 active torsions:
REMARK  status: ('A' for Active; 'I' for Inactive)
REMARK    1  A    between atoms: C_2  and  C_23
REMARK    2  A    between atoms: N_3  and  C_4
REMARK    3  A    between atoms: C_4  and  C_5
REMARK    4  A    between atoms: C_8  and  C_9
REMARK    5  A    between atoms: C_9  and  CA_10
REMARK    6  A    between atoms: CA_10  and  C_11
REMARK    7  A    between atoms: CA_10  and  N_13
REMARK    8  A    between atoms: C_11  and  O_12
REMARK    9  A    between atoms: N_13  and  C_14
REMARK   10  A    between atoms: C_14  and  C_15
REMARK                            x       y       z     vdW  Elec       q    Type
REMARK                         _______ _______ _______ _____ _____    ______ ____
ROOT
ATOM      1  C   UNL     1      47.391   6.211  13.671  0.00  0.00    +0.000 A 
ATOM      2  C   UNL     1      47.374   4.839  13.910  0.00  0.00    +0.000 A 
ATOM      3  C   UNL     1      46.231   4.112  13.591  0.00  0.00    +0.000 A 
ATOM      4  C   UNL     1      45.113   4.771  13.075  0.00  0.00    +0.000 A 
ATOM      5  C   UNL     1      45.219   6.140  12.867  0.00  0.00    +0.000 A 
ATOM      6  N   UNL     1      46.318   6.868  13.161  0.00  0.00    +0.000 NA
ENDROOT
BRANCH   1   7
ATOM      7  C   UNL     1      48.600   7.035  14.046  0.00  0.00    +0.000 C 
BRANCH   7  10
ATOM      8  O   UNL     1      48.356   8.766  16.247  0.00  0.00    +0.000 OA
ATOM      9  C   UNL     1      48.928   7.693  16.394  0.00  0.00    +0.000 C 
ATOM     10  N   UNL     1      49.026   6.761  15.396  0.00  0.00    +0.000 N 
ATOM     11  H   UNL     1      49.544   5.904  15.546  0.00  0.00    +0.000 HD
BRANCH   9  12
ATOM     12  C   UNL     1      49.511   7.290  17.673  0.00  0.00    +0.000 A 
ATOM     13  C   UNL     1      50.620   7.949  18.185  0.00  0.00    +0.000 A 
ATOM     14  S   UNL     1      51.090   7.380  19.729  0.00  0.00    +0.000 S 
ATOM     15  C   UNL     1      49.862   6.199  19.730  0.00  0.00    +0.000 A 
ATOM     16  N   UNL     1      49.691   5.359  20.786  0.00  0.00    +0.000 NA
ATOM     17  C   UNL     1      48.732   4.504  20.635  0.00  0.00    +0.000 A 
ATOM     18  N   UNL     1      47.944   4.402  19.519  0.00  0.00    +0.000 N 
ATOM     19  C   UNL     1      48.094   5.213  18.420  0.00  0.00    +0.000 A 
ATOM     20  O   UNL     1      47.392   5.072  17.426  0.00  0.00    +0.000 OA
ATOM     21  C   UNL     1      49.122   6.226  18.564  0.00  0.00    +0.000 A 
ATOM     22  H   UNL     1      47.220   3.698  19.456  0.00  0.00    +0.000 HD
ENDBRANCH   9  12
ENDBRANCH   7  10
ENDBRANCH   1   7
BRANCH   4  23
ATOM     23  C   UNL     1      43.842   4.033  12.758  0.00  0.00    +0.000 C 
BRANCH  23  24
ATOM     24  CA  UNL     1      43.680   3.654  11.262  0.00  0.00    +0.000 C 
BRANCH  24  25
ATOM     25  N   UNL     1      44.786   2.796  10.765  0.00  0.00    +0.000 NA
ATOM     26  H   UNL     1      45.007   2.078  11.460  0.00  0.00    +0.000 HD
BRANCH  25  27
ATOM     27  C   UNL     1      44.435   2.099   9.513  0.00  0.00    +0.000 C 
BRANCH  27  28
ATOM     28  C   UNL     1      45.540   2.187   8.480  0.00  0.00    +0.000 A 
ATOM     29  C   UNL     1      45.802   3.390   7.834  0.00  0.00    +0.000 A 
ATOM     30  C   UNL     1      46.835   3.441   6.904  0.00  0.00    +0.000 A 
ATOM     31  C   UNL     1      47.570   2.291   6.641  0.00  0.00    +0.000 A 
ATOM     32  C   UNL     1      47.246   1.133   7.325  0.00  0.00    +0.000 A 
ATOM     33  N   UNL     1      46.256   1.056   8.241  0.00  0.00    +0.000 NA
ENDBRANCH  27  28
ENDBRANCH  25  27
ENDBRANCH  24  25
BRANCH  24  34
ATOM     34  C   UNL     1      43.609   4.932  10.385  0.00  0.00    +0.000 C 
BRANCH  34  35
ATOM     35  O   UNL     1      42.574   5.811  10.825  0.00  0.00    +0.000 OA
ATOM     36  H   UNL     1      42.443   5.603  11.768  0.00  0.00    +0.000 HD
ENDBRANCH  34  35
ENDBRANCH  24  34
ENDBRANCH  23  24
ENDBRANCH   4  23
TORSDOF 10
ENDMDL
MODEL 4
REMARK VINA RESULT:    -7.387      3.229      4.227
REMARK INTER + INTRA:         -12.974
REMARK INTER:                 -11.807
REMARK INTRA:                  -1.168
REMARK UNBOUND:                -1.485
REMARK  Name = 
REMARK  10 active torsions:
REMARK  status: ('A' for Active; 'I' for Inactive)
REMARK    1  A    between atoms: C_2  and  C_23
REMARK    2  A    between atoms: N_3  and  C_4
REMARK    3  A    between atoms: C_4  and  C_5
REMARK    4  A    between atoms: C_8  and  C_9
REMARK    5  A    between atoms: C_9  and  CA_10
REMARK    6  A    between atoms: CA_10  and  C_11
REMARK    7  A    between atoms: CA_10  and  N_13
REMARK    8  A    between atoms: C_11  and  O_12
REMARK    9  A    between atoms: N_13  and  C_14
REMARK   10  A    between atoms: C_14  and  C_15
REMARK                            x       y       z     vdW  Elec       q    Type
REMARK                         _______ _______ _______ _____ _____    ______ ____
ROOT
ATOM      1  C   UNL     1      47.609   4.779  15.827  0.00  0.00    +0.000 A 
ATOM      2  C   UNL     1      48.180   5.940  15.312  0.00  0.00    +0.000 A 
ATOM      3  C   UNL     1      47.833   6.350  14.028  0.00  0.00    +0.000 A 
ATOM      4  C   UNL     1      46.954   5.577  13.267  0.00  0.00    +0.000 A 
ATOM      5  C   UNL     1      46.432   4.435  13.861  0.00  0.00    +0.000 A 
ATOM      6  N   UNL     1      46.746   4.017  15.107  0.00  0.00    +0.000 NA
ENDROOT
BRANCH   1   7
ATOM      7  C   UNL     1      47.998   4.284  17.200  0.00  0.00    +0.000 C 
BRANCH   7  10
ATOM      8  O   UNL     1      49.694   4.581  19.421  0.00  0.00    +0.000 OA
ATOM      9  C   UNL     1      50.163   4.175  18.365  0.00  0.00    +0.000 C 
ATOM     10  N   UNL     1      49.396   3.931  17.257  0.00  0.00    +0.000 N 
ATOM     11  H   UNL     1      49.827   3.635  16.391  0.00  0.00    +0.000 HD
BRANCH   9  12
ATOM     12  C   UNL     1      51.582   3.860  18.212  0.00  0.00    +0.000 A 
ATOM     13  C   UNL     1      52.551   4.829  18.437  0.00  0.00    +0.000 A 
ATOM     14  S   UNL     1      54.148   4.233  18.289  0.00  0.00    +0.000 S 
ATOM     15  C   UNL     1      53.591   2.681  17.861  0.00  0.00    +0.000 A 
ATOM     16  N   UNL     1      54.457   1.664  17.607  0.00  0.00    +0.000 NA
ATOM     17  C   UNL     1      53.888   0.550  17.277  0.00  0.00    +0.000 A 
ATOM     18  N   UNL     1      52.534   0.368  17.160  0.00  0.00    +0.000 N 
ATOM     19  C   UNL     1      51.623   1.371  17.386  0.00  0.00    +0.000 A 
ATOM     20  O   UNL     1      50.421   1.181  17.240  0.00  0.00    +0.000 OA
ATOM     21  C   UNL     1      52.211   2.626  17.813  0.00  0.00    +0.000 A 
ATOM     22  H   UNL     1      52.153  -0.525  16.881  0.00  0.00    +0.000 HD
ENDBRANCH   9  12
ENDBRANCH   7  10
ENDBRANCH   1   7
BRANCH   4  23
ATOM     23  C   UNL     1      46.587   5.957  11.860  0.00  0.00    +0.000 C 
BRANCH  23  24
ATOM     24  CA  UNL     1      45.101   6.368  11.677  0.00  0.00    +0.000 C 
BRANCH  24  25
ATOM     25  N   UNL     1      44.547   5.942  10.367  0.00  0.00    +0.000 NA
ATOM     26  H   UNL     1      45.244   6.086   9.631  0.00  0.00    +0.000 HD
BRANCH  25  27
ATOM     27  C   UNL     1      44.182   4.512  10.350  0.00  0.00    +0.000 C 
BRANCH  27  28
ATOM     28  C   UNL     1      44.988   3.729   9.334  0.00  0.00    +0.000 A 
ATOM     29  C   UNL     1      45.679   4.391   8.325  0.00  0.00    +0.000 A 
ATOM     30  C   UNL     1      46.423   3.642   7.420  0.00  0.00    +0.000 A 
ATOM     31  C   UNL     1      46.450   2.258   7.541  0.00  0.00    +0.000 A 
ATOM     32  C   UNL     1      45.733   1.675   8.571  0.00  0.00    +0.000 A 
ATOM     33  N   UNL     1      45.011   2.376   9.472  0.00  0.00    +0.000 NA
ENDBRANCH  27  28
ENDBRANCH  25  27
ENDBRANCH  24  25
BRANCH  24  34
ATOM     34  C   UNL     1      44.945   7.906  11.807  0.00  0.00    +0.000 C 
BRANCH  34  35
ATOM     35  O   UNL     1      44.078   8.430  10.800  0.00  0.00    +0.000 OA
ATOM     36  H   UNL     1      43.859   7.671  10.228  0.00  0.00    +0.000 HD
ENDBRANCH  34  35
ENDBRANCH  24  34
ENDBRANCH  23  24
ENDBRANCH   4  23
TORSDOF 10
ENDMDL
MODEL 5
REMARK VINA RESULT:    -7.317      3.236      4.270
REMARK INTER + INTRA:         -12.866
REMARK INTER:                 -11.686
REMARK INTRA:                  -1.179
REMARK UNBOUND:                -1.485
REMARK  Name = 
REMARK  10 active torsions:
REMARK  status: ('A' for Active; 'I' for Inactive)
REMARK    1  A    between atoms: C_2  and  C_23
REMARK    2  A    between atoms: N_3  and  C_4
REMARK    3  A    between atoms: C_4  and  C_5
REMARK    4  A    between atoms: C_8  and  C_9
REMARK    5  A    between atoms: C_9  and  CA_10
REMARK    6  A    between atoms: CA_10  and  C_11
REMARK    7  A    between atoms: CA_10  and  N_13
REMARK    8  A    between atoms: C_11  and  O_12
REMARK    9  A    between atoms: N_13  and  C_14
REMARK   10  A    between atoms: C_14  and  C_15
REMARK                            x       y       z     vdW  Elec       q    Type
REMARK                         _______ _______ _______ _____ _____    ______ ____
ROOT
ATOM      1  C   UNL     1      48.280   5.708  15.747  0.00  0.00    +0.000 A 
ATOM      2  C   UNL     1      48.326   6.639  14.712  0.00  0.00    +0.000 A 
ATOM      3  C   UNL     1      47.540   6.431  13.583  0.00  0.00    +0.000 A 
ATOM      4  C   UNL     1      46.753   5.282  13.488  0.00  0.00    +0.000 A 
ATOM      5  C   UNL     1      46.767   4.408  14.568  0.00  0.00    +0.000 A 
ATOM      6  N   UNL     1      47.515   4.588  15.678  0.00  0.00    +0.000 NA
ENDROOT
BRANCH   1   7
ATOM      7  C   UNL     1      49.153   5.882  16.967  0.00  0.00    +0.000 C 
BRANCH   7  10
ATOM      8  O   UNL     1      49.106   3.462  18.396  0.00  0.00    +0.000 OA
ATOM      9  C   UNL     1      50.121   3.773  17.788  0.00  0.00    +0.000 C 
ATOM     10  N   UNL     1      50.206   4.896  17.008  0.00  0.00    +0.000 N 
ATOM     11  H   UNL     1      51.077   5.140  16.554  0.00  0.00    +0.000 HD
BRANCH   9  12
ATOM     12  C   UNL     1      51.322   2.940  17.797  0.00  0.00    +0.000 A 
ATOM     13  C   UNL     1      51.257   1.599  17.443  0.00  0.00    +0.000 A 
ATOM     14  S   UNL     1      52.784   0.827  17.436  0.00  0.00    +0.000 S 
ATOM     15  C   UNL     1      53.567   2.245  17.963  0.00  0.00    +0.000 A 
ATOM     16  N   UNL     1      54.914   2.281  18.152  0.00  0.00    +0.000 NA
ATOM     17  C   UNL     1      55.361   3.420  18.571  0.00  0.00    +0.000 A 
ATOM     18  N   UNL     1      54.584   4.517  18.837  0.00  0.00    +0.000 N 
ATOM     19  C   UNL     1      53.218   4.520  18.682  0.00  0.00    +0.000 A 
ATOM     20  O   UNL     1      52.551   5.509  18.961  0.00  0.00    +0.000 OA
ATOM     21  C   UNL     1      52.675   3.282  18.160  0.00  0.00    +0.000 A 
ATOM     22  H   UNL     1      54.995   5.374  19.180  0.00  0.00    +0.000 HD
ENDBRANCH   9  12
ENDBRANCH   7  10
ENDBRANCH   1   7
BRANCH   4  23
ATOM     23  C   UNL     1      45.923   4.994  12.268  0.00  0.00    +0.000 C 
BRANCH  23  24
ATOM     24  CA  UNL     1      44.767   3.986  12.505  0.00  0.00    +0.000 C 
BRANCH  24  25
ATOM     25  N   UNL     1      44.816   2.829  11.574  0.00  0.00    +0.000 NA
ATOM     26  H   UNL     1      44.309   2.037  11.978  0.00  0.00    +0.000 HD
BRANCH  25  27
ATOM     27  C   UNL     1      44.190   3.130  10.272  0.00  0.00    +0.000 C 
BRANCH  27  28
ATOM     28  C   UNL     1      45.135   2.887   9.113  0.00  0.00    +0.000 A 
ATOM     29  C   UNL     1      45.510   3.938   8.282  0.00  0.00    +0.000 A 
ATOM     30  C   UNL     1      46.392   3.684   7.238  0.00  0.00    +0.000 A 
ATOM     31  C   UNL     1      46.868   2.392   7.048  0.00  0.00    +0.000 A 
ATOM     32  C   UNL     1      46.445   1.401   7.917  0.00  0.00    +0.000 A 
ATOM     33  N   UNL     1      45.597   1.620   8.947  0.00  0.00    +0.000 NA
ENDBRANCH  27  28
ENDBRANCH  25  27
ENDBRANCH  24  25
BRANCH  24  34
ATOM     34  C   UNL     1      43.393   4.691  12.349  0.00  0.00    +0.000 C 
BRANCH  34  35
ATOM     35  O   UNL     1      43.246   5.759  13.285  0.00  0.00    +0.000 OA
ATOM     36  H   UNL     1      43.993   5.665  13.904  0.00  0.00    +0.000 HD
ENDBRANCH  34  35
ENDBRANCH  24  34
ENDBRANCH  23  24
ENDBRANCH   4  23
TORSDOF 10
ENDMDL
MODEL 6
REMARK VINA RESULT:    -7.050      2.548      3.183
REMARK INTER + INTRA:         -12.451
REMARK INTER:                 -11.310
REMARK INTRA:                  -1.141
REMARK UNBOUND:                -1.485
REMARK  Name = 
REMARK  10 active torsions:
REMARK  status: ('A' for Active; 'I' for Inactive)
REMARK    1  A    between atoms: C_2  and  C_23
REMARK    2  A    between atoms: N_3  and  C_4
REMARK    3  A    between atoms: C_4  and  C_5
REMARK    4  A    between atoms: C_8  and  C_9
REMARK    5  A    between atoms: C_9  and  CA_10
REMARK    6  A    between atoms: CA_10  and  C_11
REMARK    7  A    between atoms: CA_10  and  N_13
REMARK    8  A    between atoms: C_11  and  O_12
REMARK    9  A    between atoms: N_13  and  C_14
REMARK   10  A    between atoms: C_14  and  C_15
REMARK                            x       y       z     vdW  Elec       q    Type
REMARK                         _______ _______ _______ _____ _____    ______ ____
ROOT
ATOM      1  C   UNL     1      46.973   8.073  13.297  0.00  0.00    +0.000 A 
ATOM      2  C   UNL     1      45.756   8.532  12.800  0.00  0.00    +0.000 A 
ATOM      3  C   UNL     1      44.997   7.691  11.991  0.00  0.00    +0.000 A 
ATOM      4  C   UNL     1      45.482   6.424  11.662  0.00  0.00    +0.000 A 
ATOM      5  C   UNL     1      46.704   6.048  12.202  0.00  0.00    +0.000 A 
ATOM      6  N   UNL     1      47.458   6.841  12.995  0.00  0.00    +0.000 NA
ENDROOT
BRANCH   1   7
ATOM      7  C   UNL     1      47.840   8.976  14.142  0.00  0.00    +0.000 C 
BRANCH   7  10
ATOM      8  O   UNL     1      49.790   7.808  15.796  0.00  0.00    +0.000 OA
ATOM      9  C   UNL     1      48.681   8.045  16.259  0.00  0.00    +0.000 C 
ATOM     10  N   UNL     1      47.699   8.679  15.546  0.00  0.00    +0.000 N 
ATOM     11  H   UNL     1      46.782   8.820  15.952  0.00  0.00    +0.000 HD
BRANCH   9  12
ATOM     12  C   UNL     1      48.327   7.721  17.640  0.00  0.00    +0.000 A 
ATOM     13  C   UNL     1      48.369   6.409  18.092  0.00  0.00    +0.000 A 
ATOM     14  S   UNL     1      48.004   6.256  19.757  0.00  0.00    +0.000 S 
ATOM     15  C   UNL     1      47.722   7.930  19.906  0.00  0.00    +0.000 A 
ATOM     16  N   UNL     1      47.376   8.485  21.099  0.00  0.00    +0.000 NA
ATOM     17  C   UNL     1      47.176   9.762  21.053  0.00  0.00    +0.000 A 
ATOM     18  N   UNL     1      47.271  10.528  19.921  0.00  0.00    +0.000 N 
ATOM     19  C   UNL     1      47.595  10.009  18.691  0.00  0.00    +0.000 A 
ATOM     20  O   UNL     1      47.638  10.719  17.693  0.00  0.00    +0.000 OA
ATOM     21  C   UNL     1      47.883   8.588  18.702  0.00  0.00    +0.000 A 
ATOM     22  H   UNL     1      47.084  11.521  19.949  0.00  0.00    +0.000 HD
ENDBRANCH   9  12
ENDBRANCH   7  10
ENDBRANCH   1   7
BRANCH   4  23
ATOM     23  C   UNL     1      44.717   5.500  10.755  0.00  0.00    +0.000 C 
BRANCH  23  24
ATOM     24  CA  UNL     1      44.734   4.013  11.197  0.00  0.00    +0.000 C 
BRANCH  24  25
ATOM     25  N   UNL     1      44.602   3.073  10.055  0.00  0.00    +0.000 NA
ATOM     26  H   UNL     1      43.652   2.692  10.027  0.00  0.00    +0.000 HD
BRANCH  25  27
ATOM     27  C   UNL     1      44.847   3.731   8.757  0.00  0.00    +0.000 C 
BRANCH  27  28
ATOM     28  C   UNL     1      45.814   2.949   7.893  0.00  0.00    +0.000 A 
ATOM     29  C   UNL     1      46.386   3.538   6.770  0.00  0.00    +0.000 A 
ATOM     30  C   UNL     1      47.284   2.798   6.008  0.00  0.00    +0.000 A 
ATOM     31  C   UNL     1      47.579   1.493   6.383  0.00  0.00    +0.000 A 
ATOM     32  C   UNL     1      46.967   0.978   7.512  0.00  0.00    +0.000 A 
ATOM     33  N   UNL     1      46.099   1.677   8.278  0.00  0.00    +0.000 NA
ENDBRANCH  27  28
ENDBRANCH  25  27
ENDBRANCH  24  25
BRANCH  24  34
ATOM     34  C   UNL     1      43.586   3.735  12.205  0.00  0.00    +0.000 C 
BRANCH  34  35
ATOM     35  O   UNL     1      43.716   2.445  12.802  0.00  0.00    +0.000 OA
ATOM     36  H   UNL     1      43.308   1.825  12.170  0.00  0.00    +0.000 HD
ENDBRANCH  34  35
ENDBRANCH  24  34
ENDBRANCH  23  24
ENDBRANCH   4  23
TORSDOF 10
ENDMDL
MODEL 7
REMARK VINA RESULT:    -6.879      3.235      5.715
REMARK INTER + INTRA:         -12.185
REMARK INTER:                 -10.859
REMARK INTRA:                  -1.325
REMARK UNBOUND:                -1.485
REMARK  Name = 
REMARK  10 active torsions:
REMARK  status: ('A' for Active; 'I' for Inactive)
REMARK    1  A    between atoms: C_2  and  C_23
REMARK    2  A    between atoms: N_3  and  C_4
REMARK    3  A    between atoms: C_4  and  C_5
REMARK    4  A    between atoms: C_8  and  C_9
REMARK    5  A    between atoms: C_9  and  CA_10
REMARK    6  A    between atoms: CA_10  and  C_11
REMARK    7  A    between atoms: CA_10  and  N_13
REMARK    8  A    between atoms: C_11  and  O_12
REMARK    9  A    between atoms: N_13  and  C_14
REMARK   10  A    between atoms: C_14  and  C_15
REMARK                            x       y       z     vdW  Elec       q    Type
REMARK                         _______ _______ _______ _____ _____    ______ ____
ROOT
ATOM      1  C   UNL     1      47.817   4.155  16.299  0.00  0.00    +0.000 A 
ATOM      2  C   UNL     1      48.384   5.426  16.369  0.00  0.00    +0.000 A 
ATOM      3  C   UNL     1      48.221   6.297  15.297  0.00  0.00    +0.000 A 
ATOM      4  C   UNL     1      47.529   5.876  14.160  0.00  0.00    +0.000 A 
ATOM      5  C   UNL     1      46.996   4.593  14.176  0.00  0.00    +0.000 A 
ATOM      6  N   UNL     1      47.134   3.729  15.206  0.00  0.00    +0.000 NA
ENDROOT
BRANCH   1   7
ATOM      7  C   UNL     1      48.013   3.171  17.427  0.00  0.00    +0.000 C 
BRANCH   7  10
ATOM      8  O   UNL     1      49.820   1.643  15.911  0.00  0.00    +0.000 OA
ATOM      9  C   UNL     1      50.203   2.153  16.956  0.00  0.00    +0.000 C 
ATOM     10  N   UNL     1      49.412   2.971  17.717  0.00  0.00    +0.000 N 
ATOM     11  H   UNL     1      49.752   3.340  18.596  0.00  0.00    +0.000 HD
BRANCH   9  12
ATOM     12  C   UNL     1      51.565   1.976  17.456  0.00  0.00    +0.000 A 
ATOM     13  C   UNL     1      52.061   0.707  17.727  0.00  0.00    +0.000 A 
ATOM     14  S   UNL     1      53.700   0.714  18.218  0.00  0.00    +0.000 S 
ATOM     15  C   UNL     1      53.776   2.414  18.141  0.00  0.00    +0.000 A 
ATOM     16  N   UNL     1      54.923   3.085  18.431  0.00  0.00    +0.000 NA
ATOM     17  C   UNL     1      54.822   4.371  18.347  0.00  0.00    +0.000 A 
ATOM     18  N   UNL     1      53.676   5.047  18.019  0.00  0.00    +0.000 N 
ATOM     19  C   UNL     1      52.489   4.414  17.740  0.00  0.00    +0.000 A 
ATOM     20  O   UNL     1      51.474   5.051  17.483  0.00  0.00    +0.000 OA
ATOM     21  C   UNL     1      52.566   2.966  17.767  0.00  0.00    +0.000 A 
ATOM     22  H   UNL     1      53.659   6.057  17.988  0.00  0.00    +0.000 HD
ENDBRANCH   9  12
ENDBRANCH   7  10
ENDBRANCH   1   7
BRANCH   4  23
ATOM     23  C   UNL     1      47.368   6.768  12.960  0.00  0.00    +0.000 C 
BRANCH  23  24
ATOM     24  CA  UNL     1      46.396   7.959  13.177  0.00  0.00    +0.000 C 
BRANCH  24  25
ATOM     25  N   UNL     1      45.019   7.668  12.703  0.00  0.00    +0.000 NA
ATOM     26  H   UNL     1      44.509   8.544  12.561  0.00  0.00    +0.000 HD
BRANCH  25  27
ATOM     27  C   UNL     1      45.010   6.945  11.417  0.00  0.00    +0.000 C 
BRANCH  27  28
ATOM     28  C   UNL     1      44.442   5.547  11.550  0.00  0.00    +0.000 A 
ATOM     29  C   UNL     1      44.552   4.642  10.500  0.00  0.00    +0.000 A 
ATOM     30  C   UNL     1      44.034   3.361  10.662  0.00  0.00    +0.000 A 
ATOM     31  C   UNL     1      43.417   3.023  11.861  0.00  0.00    +0.000 A 
ATOM     32  C   UNL     1      43.347   3.982  12.857  0.00  0.00    +0.000 A 
ATOM     33  N   UNL     1      43.850   5.230  12.732  0.00  0.00    +0.000 NA
ENDBRANCH  27  28
ENDBRANCH  25  27
ENDBRANCH  24  25
BRANCH  24  34
ATOM     34  C   UNL     1      46.918   9.223  12.443  0.00  0.00    +0.000 C 
BRANCH  34  35
ATOM     35  O   UNL     1      45.945  10.268  12.447  0.00  0.00    +0.000 OA
ATOM     36  H   UNL     1      45.163   9.889  12.889  0.00  0.00    +0.000 HD
ENDBRANCH  34  35
ENDBRANCH  24  34
ENDBRANCH  23  24
ENDBRANCH   4  23
TORSDOF 10
ENDMDL
MODEL 8
REMARK VINA RESULT:    -6.832      2.102      2.497
REMARK INTER + INTRA:         -12.111
REMARK INTER:                 -11.604
REMARK INTRA:                  -0.508
REMARK UNBOUND:                -1.485
REMARK  Name = 
REMARK  10 active torsions:
REMARK  status: ('A' for Active; 'I' for Inactive)
REMARK    1  A    between atoms: C_2  and  C_23
REMARK    2  A    between atoms: N_3  and  C_4
REMARK    3  A    between atoms: C_4  and  C_5
REMARK    4  A    between atoms: C_8  and  C_9
REMARK    5  A    between atoms: C_9  and  CA_10
REMARK    6  A    between atoms: CA_10  and  C_11
REMARK    7  A    between atoms: CA_10  and  N_13
REMARK    8  A    between atoms: C_11  and  O_12
REMARK    9  A    between atoms: N_13  and  C_14
REMARK   10  A    between atoms: C_14  and  C_15
REMARK                            x       y       z     vdW  Elec       q    Type
REMARK                         _______ _______ _______ _____ _____    ______ ____
ROOT
ATOM      1  C   UNL     1      47.207   6.554  13.506  0.00  0.00    +0.000 A 
ATOM      2  C   UNL     1      47.394   5.188  13.702  0.00  0.00    +0.000 A 
ATOM      3  C   UNL     1      46.329   4.322  13.474  0.00  0.00    +0.000 A 
ATOM      4  C   UNL     1      45.088   4.835  13.093  0.00  0.00    +0.000 A 
ATOM      5  C   UNL     1      44.991   6.209  12.919  0.00  0.00    +0.000 A 
ATOM      6  N   UNL     1      46.010   7.072  13.126  0.00  0.00    +0.000 NA
ENDROOT
BRANCH   1   7
ATOM      7  C   UNL     1      48.329   7.525  13.786  0.00  0.00    +0.000 C 
BRANCH   7  10
ATOM      8  O   UNL     1      49.289   8.298  16.312  0.00  0.00    +0.000 OA
ATOM      9  C   UNL     1      49.847   7.383  15.718  0.00  0.00    +0.000 C 
ATOM     10  N   UNL     1      49.400   6.895  14.519  0.00  0.00    +0.000 N 
ATOM     11  H   UNL     1      49.913   6.166  14.041  0.00  0.00    +0.000 HD
BRANCH   9  12
ATOM     12  C   UNL     1      51.012   6.692  16.268  0.00  0.00    +0.000 A 
ATOM     13  C   UNL     1      52.283   7.236  16.143  0.00  0.00    +0.000 A 
ATOM     14  S   UNL     1      53.492   6.316  16.929  0.00  0.00    +0.000 S 
ATOM     15  C   UNL     1      52.361   5.135  17.408  0.00  0.00    +0.000 A 
ATOM     16  N   UNL     1      52.737   4.053  18.143  0.00  0.00    +0.000 NA
ATOM     17  C   UNL     1      51.774   3.235  18.415  0.00  0.00    +0.000 A 
ATOM     18  N   UNL     1      50.476   3.389  18.003  0.00  0.00    +0.000 N 
ATOM     19  C   UNL     1      50.054   4.453  17.242  0.00  0.00    +0.000 A 
ATOM     20  O   UNL     1      48.892   4.542  16.863  0.00  0.00    +0.000 OA
ATOM     21  C   UNL     1      51.089   5.429  16.958  0.00  0.00    +0.000 A 
ATOM     22  H   UNL     1      49.772   2.702  18.235  0.00  0.00    +0.000 HD
ENDBRANCH   9  12
ENDBRANCH   7  10
ENDBRANCH   1   7
BRANCH   4  23
ATOM     23  C   UNL     1      43.898   3.940  12.880  0.00  0.00    +0.000 C 
BRANCH  23  24
ATOM     24  CA  UNL     1      43.103   4.234  11.579  0.00  0.00    +0.000 C 
BRANCH  24  25
ATOM     25  N   UNL     1      43.960   4.209  10.367  0.00  0.00    +0.000 NA
ATOM     26  H   UNL     1      44.837   4.705  10.551  0.00  0.00    +0.000 HD
BRANCH  25  27
ATOM     27  C   UNL     1      44.312   2.837   9.956  0.00  0.00    +0.000 C 
BRANCH  27  28
ATOM     28  C   UNL     1      45.340   2.818   8.844  0.00  0.00    +0.000 A 
ATOM     29  C   UNL     1      45.965   1.627   8.486  0.00  0.00    +0.000 A 
ATOM     30  C   UNL     1      46.891   1.642   7.449  0.00  0.00    +0.000 A 
ATOM     31  C   UNL     1      47.173   2.841   6.805  0.00  0.00    +0.000 A 
ATOM     32  C   UNL     1      46.510   3.982   7.222  0.00  0.00    +0.000 A 
ATOM     33  N   UNL     1      45.598   3.997   8.219  0.00  0.00    +0.000 NA
ENDBRANCH  27  28
ENDBRANCH  25  27
ENDBRANCH  24  25
BRANCH  24  34
ATOM     34  C   UNL     1      42.410   5.619  11.670  0.00  0.00    +0.000 C 
BRANCH  34  35
ATOM     35  O   UNL     1      42.755   6.450  10.562  0.00  0.00    +0.000 OA
ATOM     36  H   UNL     1      43.335   5.903  10.001  0.00  0.00    +0.000 HD
ENDBRANCH  34  35
ENDBRANCH  24  34
ENDBRANCH  23  24
ENDBRANCH   4  23
TORSDOF 10
ENDMDL
MODEL 9
REMARK VINA RESULT:    -6.540      2.820      3.974
REMARK INTER + INTRA:         -11.658
REMARK INTER:                 -10.536
REMARK INTRA:                  -1.122
REMARK UNBOUND:                -1.485
REMARK  Name = 
REMARK  10 active torsions:
REMARK  status: ('A' for Active; 'I' for Inactive)
REMARK    1  A    between atoms: C_2  and  C_23
REMARK    2  A    between atoms: N_3  and  C_4
REMARK    3  A    between atoms: C_4  and  C_5
REMARK    4  A    between atoms: C_8  and  C_9
REMARK    5  A    between atoms: C_9  and  CA_10
REMARK    6  A    between atoms: CA_10  and  C_11
REMARK    7  A    between atoms: CA_10  and  N_13
REMARK    8  A    between atoms: C_11  and  O_12
REMARK    9  A    between atoms: N_13  and  C_14
REMARK   10  A    between atoms: C_14  and  C_15
REMARK                            x       y       z     vdW  Elec       q    Type
REMARK                         _______ _______ _______ _____ _____    ______ ____
ROOT
ATOM      1  C   UNL     1      47.533   4.337  15.274  0.00  0.00    +0.000 A 
ATOM      2  C   UNL     1      47.460   5.674  14.890  0.00  0.00    +0.000 A 
ATOM      3  C   UNL     1      46.823   5.999  13.696  0.00  0.00    +0.000 A 
ATOM      4  C   UNL     1      46.304   4.985  12.889  0.00  0.00    +0.000 A 
ATOM      5  C   UNL     1      46.420   3.680  13.350  0.00  0.00    +0.000 A 
ATOM      6  N   UNL     1      47.027   3.337  14.507  0.00  0.00    +0.000 NA
ENDROOT
BRANCH   1   7
ATOM      7  C   UNL     1      48.255   3.947  16.542  0.00  0.00    +0.000 C 
BRANCH   7  10
ATOM      8  O   UNL     1      46.726   5.107  18.595  0.00  0.00    +0.000 OA
ATOM      9  C   UNL     1      47.774   5.643  18.259  0.00  0.00    +0.000 C 
ATOM     10  N   UNL     1      48.615   5.107  17.321  0.00  0.00    +0.000 N 
ATOM     11  H   UNL     1      49.452   5.602  17.041  0.00  0.00    +0.000 HD
BRANCH   9  12
ATOM     12  C   UNL     1      48.248   6.882  18.874  0.00  0.00    +0.000 A 
ATOM     13  C   UNL     1      47.501   8.048  18.786  0.00  0.00    +0.000 A 
ATOM     14  S   UNL     1      48.189   9.358  19.644  0.00  0.00    +0.000 S 
ATOM     15  C   UNL     1      49.535   8.421  20.108  0.00  0.00    +0.000 A 
ATOM     16  N   UNL     1      50.523   8.939  20.885  0.00  0.00    +0.000 NA
ATOM     17  C   UNL     1      51.487   8.115  21.139  0.00  0.00    +0.000 A 
ATOM     18  N   UNL     1      51.561   6.830  20.671  0.00  0.00    +0.000 N 
ATOM     19  C   UNL     1      50.598   6.270  19.866  0.00  0.00    +0.000 A 
ATOM     20  O   UNL     1      50.713   5.128  19.438  0.00  0.00    +0.000 OA
ATOM     21  C   UNL     1      49.468   7.139  19.599  0.00  0.00    +0.000 A 
ATOM     22  H   UNL     1      52.352   6.241  20.892  0.00  0.00    +0.000 HD
ENDBRANCH   9  12
ENDBRANCH   7  10
ENDBRANCH   1   7
BRANCH   4  23
ATOM     23  C   UNL     1      45.648   5.287  11.570  0.00  0.00    +0.000 C 
BRANCH  23  24
ATOM     24  CA  UNL     1      44.183   4.790  11.457  0.00  0.00    +0.000 C 
BRANCH  24  25
ATOM     25  N   UNL     1      44.027   3.680  10.484  0.00  0.00    +0.000 NA
ATOM     26  H   UNL     1      43.085   3.286  10.554  0.00  0.00    +0.000 HD
BRANCH  25  27
ATOM     27  C   UNL     1      44.210   4.126   9.090  0.00  0.00    +0.000 C 
BRANCH  27  28
ATOM     28  C   UNL     1      45.273   3.324   8.367  0.00  0.00    +0.000 A 
ATOM     29  C   UNL     1      45.523   2.005   8.729  0.00  0.00    +0.000 A 
ATOM     30  C   UNL     1      46.493   1.291   8.033  0.00  0.00    +0.000 A 
ATOM     31  C   UNL     1      47.189   1.914   7.004  0.00  0.00    +0.000 A 
ATOM     32  C   UNL     1      46.882   3.230   6.707  0.00  0.00    +0.000 A 
ATOM     33  N   UNL     1      45.938   3.945   7.357  0.00  0.00    +0.000 NA
ENDBRANCH  27  28
ENDBRANCH  25  27
ENDBRANCH  24  25
BRANCH  24  34
ATOM     34  C   UNL     1      43.247   5.955  11.036  0.00  0.00    +0.000 C 
BRANCH  34  35
ATOM     35  O   UNL     1      43.953   7.194  10.970  0.00  0.00    +0.000 OA
ATOM     36  H   UNL     1      43.487   7.790  11.585  0.00  0.00    +0.000 HD
ENDBRANCH  34  35
ENDBRANCH  24  34
ENDBRANCH  23  24
ENDBRANCH   4  23
TORSDOF 10
ENDMDL
