MODEL 1
REMARK VINA RESULT:    -6.553      0.000      0.000
REMARK INTER + INTRA:         -10.292
REMARK INTER:                  -9.426
REMARK INTRA:                  -0.866
REMARK UNBOUND:                -0.866
REMARK  Name = 
REMARK  9 active torsions:
REMARK  status: ('A' for Active; 'I' for Inactive)
REMARK    1  A    between atoms: N_1  and  C_2
REMARK    2  A    between atoms: C_2  and  C_3
REMARK    3  A    between atoms: C_3  and  O_4
REMARK    4  A    between atoms: C_7  and  O_8
REMARK    5  A    between atoms: O_8  and  C_9
REMARK    6  A    between atoms: C_9  and  C_10
REMARK    7  A    between atoms: C_13  and  C_14
REMARK    8  A    between atoms: C_15  and  C_16
REMARK    9  A    between atoms: C_16  and  O_18
REMARK                            x       y       z     vdW  Elec       q    Type
REMARK                         _______ _______ _______ _____ _____    ______ ____
ROOT
ATOM      1  O   UNL     1      44.689   7.394  11.626  0.00  0.00    +0.000 OA
ENDROOT
BRANCH   1   5
ATOM      2  C   UNL     1      48.192   7.864  12.373  0.00  0.00    +0.000 C 
ATOM      3  C   UNL     1      47.191   8.984  12.049  0.00  0.00    +0.000 C 
ATOM      4  C   UNL     1      45.991   8.943  12.992  0.00  0.00    +0.000 C 
ATOM      5  C   UNL     1      45.269   7.591  12.913  0.00  0.00    +0.000 C 
ATOM      6  C   UNL     1      46.235   6.413  13.125  0.00  0.00    +0.000 C 
ATOM      7  C   UNL     1      47.481   6.508  12.232  0.00  0.00    +0.000 C 
BRANCH   2   8
ATOM      8  O   UNL     1      49.248   7.927  11.408  0.00  0.00    +0.000 OA
ATOM      9  H   UNL     1      49.589   7.012  11.343  0.00  0.00    +0.000 HD
ENDBRANCH   2   8
BRANCH   2  10
ATOM     10  C   UNL     1      48.834   8.003  13.784  0.00  0.00    +0.000 C 
BRANCH  10  11
ATOM     11  N   UNL     1      49.962   7.081  13.980  0.00  0.00    +0.000 NA
ATOM     12  H   UNL     1      50.456   6.985  13.090  0.00  0.00    +0.000 HD
ATOM     13  H   UNL     1      49.607   6.148  14.189  0.00  0.00    +0.000 HD
ENDBRANCH  10  11
ENDBRANCH   2  10
ENDBRANCH   1   5
BRANCH   1  14
ATOM     14  C   UNL     1      43.693   6.378  11.567  0.00  0.00    +0.000 C 
BRANCH  14  15
ATOM     15  C   UNL     1      44.197   5.277  10.675  0.00  0.00    +0.000 A 
ATOM     16  C   UNL     1      43.725   3.967  10.817  0.00  0.00    +0.000 A 
ATOM     17  C   UNL     1      44.227   2.941  10.019  0.00  0.00    +0.000 A 
ATOM     18  C   UNL     1      45.190   3.209   9.038  0.00  0.00    +0.000 A 
ATOM     19  C   UNL     1      45.650   4.523   8.885  0.00  0.00    +0.000 A 
ATOM     20  C   UNL     1      45.151   5.551   9.689  0.00  0.00    +0.000 A 
BRANCH  18  21
ATOM     21  C   UNL     1      45.782   2.150   8.208  0.00  0.00    +0.000 C 
ATOM     22  C   UNL     1      46.895   2.308   7.482  0.00  0.00    +0.000 C 
BRANCH  22  23
ATOM     23  C   UNL     1      47.405   1.178   6.682  0.00  0.00    +0.000 C 
ATOM     24  O   UNL     1      46.990   0.036   6.757  0.00  0.00    +0.000 OA
BRANCH  23  25
ATOM     25  O   UNL     1      48.392   1.557   5.845  0.00  0.00    +0.000 OA
ATOM     26  H   UNL     1      48.108   1.820   4.951  0.00  0.00    +0.000 HD
ENDBRANCH  23  25
ENDBRANCH  22  23
ENDBRANCH  18  21
ENDBRANCH  14  15
ENDBRANCH   1  14
TORSDOF 9
ENDMDL
MODEL 2
REMARK VINA RESULT:    -5.736      4.235      5.928
REMARK INTER + INTRA:          -9.117
REMARK INTER:                  -8.277
REMARK INTRA:                  -0.840
REMARK UNBOUND:                -0.866
REMARK  Name = 
REMARK  9 active torsions:
REMARK  status: ('A' for Active; 'I' for Inactive)
REMARK    1  A    between atoms: N_1  and  C_2
REMARK    2  A    between atoms: C_2  and  C_3
REMARK    3  A    between atoms: C_3  and  O_4
REMARK    4  A    between atoms: C_7  and  O_8
REMARK    5  A    between atoms: O_8  and  C_9
REMARK    6  A    between atoms: C_9  and  C_10
REMARK    7  A    between atoms: C_13  and  C_14
REMARK    8  A    between atoms: C_15  and  C_16
REMARK    9  A    between atoms: C_16  and  O_18
REMARK                            x       y       z     vdW  Elec       q    Type
REMARK                         _______ _______ _______ _____ _____    ______ ____
ROOT
ATOM      1  O   UNL     1      49.687   6.206  15.493  0.00  0.00    +0.000 OA
ENDROOT
BRANCH   1   5
ATOM      2  C   UNL     1      48.724   4.302  18.408  0.00  0.00    +0.000 C 
ATOM      3  C   UNL     1      49.960   4.033  17.534  0.00  0.00    +0.000 C 
ATOM      4  C   UNL     1      50.844   5.273  17.429  0.00  0.00    +0.000 C 
ATOM      5  C   UNL     1      50.068   6.461  16.842  0.00  0.00    +0.000 C 
ATOM      6  C   UNL     1      48.760   6.722  17.607  0.00  0.00    +0.000 C 
ATOM      7  C   UNL     1      47.917   5.451  17.782  0.00  0.00    +0.000 C 
BRANCH   2   8
ATOM      8  O   UNL     1      47.916   3.120  18.401  0.00  0.00    +0.000 OA
ATOM      9  H   UNL     1      47.162   3.331  17.815  0.00  0.00    +0.000 HD
ENDBRANCH   2   8
BRANCH   2  10
ATOM     10  C   UNL     1      49.078   4.623  19.889  0.00  0.00    +0.000 C 
BRANCH  10  11
ATOM     11  N   UNL     1      48.305   3.809  20.838  0.00  0.00    +0.000 NA
ATOM     12  H   UNL     1      48.956   3.215  21.355  0.00  0.00    +0.000 HD
ATOM     13  H   UNL     1      47.706   3.162  20.324  0.00  0.00    +0.000 HD
ENDBRANCH  10  11
ENDBRANCH   2  10
ENDBRANCH   1   5
BRANCH   1  14
ATOM     14  C   UNL     1      49.100   7.314  14.818  0.00  0.00    +0.000 C 
BRANCH  14  15
ATOM     15  C   UNL     1      48.086   6.785  13.841  0.00  0.00    +0.000 A 
ATOM     16  C   UNL     1      47.418   5.579  14.084  0.00  0.00    +0.000 A 
ATOM     17  C   UNL     1      46.513   5.070  13.156  0.00  0.00    +0.000 A 
ATOM     18  C   UNL     1      46.231   5.772  11.977  0.00  0.00    +0.000 A 
ATOM     19  C   UNL     1      46.887   6.987  11.742  0.00  0.00    +0.000 A 
ATOM     20  C   UNL     1      47.800   7.496  12.670  0.00  0.00    +0.000 A 
BRANCH  18  21
ATOM     21  C   UNL     1      45.320   5.248  10.949  0.00  0.00    +0.000 C 
ATOM     22  C   UNL     1      45.714   4.879   9.724  0.00  0.00    +0.000 C 
BRANCH  22  23
ATOM     23  C   UNL     1      44.716   4.365   8.767  0.00  0.00    +0.000 C 
ATOM     24  O   UNL     1      44.980   3.683   7.793  0.00  0.00    +0.000 OA
BRANCH  23  25
ATOM     25  O   UNL     1      43.462   4.737   9.097  0.00  0.00    +0.000 OA
ATOM     26  H   UNL     1      42.940   4.072   9.581  0.00  0.00    +0.000 HD
ENDBRANCH  23  25
ENDBRANCH  22  23
ENDBRANCH  18  21
ENDBRANCH  14  15
ENDBRANCH   1  14
TORSDOF 9
ENDMDL
MODEL 3
REMARK VINA RESULT:    -5.700      3.139      7.531
REMARK INTER + INTRA:          -9.066
REMARK INTER:                  -8.242
REMARK INTRA:                  -0.824
REMARK UNBOUND:                -0.866
REMARK  Name = 
REMARK  9 active torsions:
REMARK  status: ('A' for Active; 'I' for Inactive)
REMARK    1  A    between atoms: N_1  and  C_2
REMARK    2  A    between atoms: C_2  and  C_3
REMARK    3  A    between atoms: C_3  and  O_4
REMARK    4  A    between atoms: C_7  and  O_8
REMARK    5  A    between atoms: O_8  and  C_9
REMARK    6  A    between atoms: C_9  and  C_10
REMARK    7  A    between atoms: C_13  and  C_14
REMARK    8  A    between atoms: C_15  and  C_16
REMARK    9  A    between atoms: C_16  and  O_18
REMARK                            x       y       z     vdW  Elec       q    Type
REMARK                         _______ _______ _______ _____ _____    ______ ____
ROOT
ATOM      1  O   UNL     1      45.290   2.560   9.895  0.00  0.00    +0.000 OA
ENDROOT
BRANCH   1   5
ATOM      2  C   UNL     1      47.305   2.781   6.906  0.00  0.00    +0.000 C 
ATOM      3  C   UNL     1      47.212   1.556   7.830  0.00  0.00    +0.000 C 
ATOM      4  C   UNL     1      45.765   1.098   7.998  0.00  0.00    +0.000 C 
ATOM      5  C   UNL     1      44.890   2.223   8.570  0.00  0.00    +0.000 C 
ATOM      6  C   UNL     1      45.015   3.518   7.750  0.00  0.00    +0.000 C 
ATOM      7  C   UNL     1      46.477   3.924   7.513  0.00  0.00    +0.000 C 
BRANCH   2   8
ATOM      8  O   UNL     1      48.677   3.188   6.854  0.00  0.00    +0.000 OA
ATOM      9  H   UNL     1      49.120   2.683   7.565  0.00  0.00    +0.000 HD
ENDBRANCH   2   8
BRANCH   2  10
ATOM     10  C   UNL     1      46.846   2.485   5.448  0.00  0.00    +0.000 C 
BRANCH  10  11
ATOM     11  N   UNL     1      47.966   2.106   4.574  0.00  0.00    +0.000 NA
ATOM     12  H   UNL     1      48.330   2.954   4.134  0.00  0.00    +0.000 HD
ATOM     13  H   UNL     1      47.619   1.534   3.804  0.00  0.00    +0.000 HD
ENDBRANCH  10  11
ENDBRANCH   2  10
ENDBRANCH   1   5
BRANCH   1  14
ATOM     14  C   UNL     1      44.423   3.467  10.570  0.00  0.00    +0.000 C 
BRANCH  14  15
ATOM     15  C   UNL     1      45.270   4.421  11.366  0.00  0.00    +0.000 A 
ATOM     16  C   UNL     1      45.707   5.628  10.807  0.00  0.00    +0.000 A 
ATOM     17  C   UNL     1      46.528   6.489  11.533  0.00  0.00    +0.000 A 
ATOM     18  C   UNL     1      46.904   6.176  12.845  0.00  0.00    +0.000 A 
ATOM     19  C   UNL     1      46.453   4.977  13.409  0.00  0.00    +0.000 A 
ATOM     20  C   UNL     1      45.635   4.110  12.680  0.00  0.00    +0.000 A 
BRANCH  18  21
ATOM     21  C   UNL     1      47.808   7.032  13.628  0.00  0.00    +0.000 C 
ATOM     22  C   UNL     1      48.728   6.561  14.479  0.00  0.00    +0.000 C 
BRANCH  22  23
ATOM     23  C   UNL     1      49.585   7.508  15.216  0.00  0.00    +0.000 C 
ATOM     24  O   UNL     1      49.203   8.224  16.124  0.00  0.00    +0.000 OA
BRANCH  23  25
ATOM     25  O   UNL     1      50.858   7.490  14.770  0.00  0.00    +0.000 OA
ATOM     26  H   UNL     1      51.541   7.675  15.438  0.00  0.00    +0.000 HD
ENDBRANCH  23  25
ENDBRANCH  22  23
ENDBRANCH  18  21
ENDBRANCH  14  15
ENDBRANCH   1  14
TORSDOF 9
ENDMDL
MODEL 4
REMARK VINA RESULT:    -5.500      3.996      6.353
REMARK INTER + INTRA:          -8.777
REMARK INTER:                  -7.883
REMARK INTRA:                  -0.894
REMARK UNBOUND:                -0.866
REMARK  Name = 
REMARK  9 active torsions:
REMARK  status: ('A' for Active; 'I' for Inactive)
REMARK    1  A    between atoms: N_1  and  C_2
REMARK    2  A    between atoms: C_2  and  C_3
REMARK    3  A    between atoms: C_3  and  O_4
REMARK    4  A    between atoms: C_7  and  O_8
REMARK    5  A    between atoms: O_8  and  C_9
REMARK    6  A    between atoms: C_9  and  C_10
REMARK    7  A    between atoms: C_13  and  C_14
REMARK    8  A    between atoms: C_15  and  C_16
REMARK    9  A    between atoms: C_16  and  O_18
REMARK                            x       y       z     vdW  Elec       q    Type
REMARK                         _______ _______ _______ _____ _____    ______ ____
ROOT
ATOM      1  O   UNL     1      48.635   8.392  16.425  0.00  0.00    +0.000 OA
ENDROOT
BRANCH   1   5
ATOM      2  C   UNL     1      47.623   5.805  18.733  0.00  0.00    +0.000 C 
ATOM      3  C   UNL     1      48.156   5.572  17.311  0.00  0.00    +0.000 C 
ATOM      4  C   UNL     1      49.523   6.226  17.119  0.00  0.00    +0.000 C 
ATOM      5  C   UNL     1      49.458   7.736  17.386  0.00  0.00    +0.000 C 
ATOM      6  C   UNL     1      48.834   8.048  18.757  0.00  0.00    +0.000 C 
ATOM      7  C   UNL     1      47.501   7.318  18.975  0.00  0.00    +0.000 C 
BRANCH   2   8
ATOM      8  O   UNL     1      46.316   5.223  18.812  0.00  0.00    +0.000 OA
ATOM      9  H   UNL     1      45.783   5.704  18.148  0.00  0.00    +0.000 HD
ENDBRANCH   2   8
BRANCH   2  10
ATOM     10  C   UNL     1      48.500   5.141  19.834  0.00  0.00    +0.000 C 
BRANCH  10  11
ATOM     11  N   UNL     1      48.463   3.673  19.772  0.00  0.00    +0.000 NA
ATOM     12  H   UNL     1      48.841   3.381  18.869  0.00  0.00    +0.000 HD
ATOM     13  H   UNL     1      47.493   3.357  19.769  0.00  0.00    +0.000 HD
ENDBRANCH  10  11
ENDBRANCH   2  10
ENDBRANCH   1   5
BRANCH   1  14
ATOM     14  C   UNL     1      49.180   8.448  15.111  0.00  0.00    +0.000 C 
BRANCH  14  15
ATOM     15  C   UNL     1      48.175   7.857  14.161  0.00  0.00    +0.000 A 
ATOM     16  C   UNL     1      47.099   8.619  13.690  0.00  0.00    +0.000 A 
ATOM     17  C   UNL     1      46.145   8.054  12.846  0.00  0.00    +0.000 A 
ATOM     18  C   UNL     1      46.265   6.722  12.427  0.00  0.00    +0.000 A 
ATOM     19  C   UNL     1      47.351   5.966  12.884  0.00  0.00    +0.000 A 
ATOM     20  C   UNL     1      48.304   6.530  13.736  0.00  0.00    +0.000 A 
BRANCH  18  21
ATOM     21  C   UNL     1      45.257   6.073  11.577  0.00  0.00    +0.000 C 
ATOM     22  C   UNL     1      44.583   4.971  11.929  0.00  0.00    +0.000 C 
BRANCH  22  23
ATOM     23  C   UNL     1      43.591   4.400  10.999  0.00  0.00    +0.000 C 
ATOM     24  O   UNL     1      43.076   3.303  11.125  0.00  0.00    +0.000 OA
BRANCH  23  25
ATOM     25  O   UNL     1      43.312   5.239   9.981  0.00  0.00    +0.000 OA
ATOM     26  H   UNL     1      42.935   6.100  10.237  0.00  0.00    +0.000 HD
ENDBRANCH  23  25
ENDBRANCH  22  23
ENDBRANCH  18  21
ENDBRANCH  14  15
ENDBRANCH   1  14
TORSDOF 9
ENDMDL
MODEL 5
REMARK VINA RESULT:    -5.038      1.841      2.282
REMARK INTER + INTRA:          -8.113
REMARK INTER:                  -8.259
REMARK INTRA:                   0.146
REMARK UNBOUND:                -0.866
REMARK  Name = 
REMARK  9 active torsions:
REMARK  status: ('A' for Active; 'I' for Inactive)
REMARK    1  A    between atoms: N_1  and  C_2
REMARK    2  A    between atoms: C_2  and  C_3
REMARK    3  A    between atoms: C_3  and  O_4
REMARK    4  A    between atoms: C_7  and  O_8
REMARK    5  A    between atoms: O_8  and  C_9
REMARK    6  A    between atoms: C_9  and  C_10
REMARK    7  A    between atoms: C_13  and  C_14
REMARK    8  A    between atoms: C_15  and  C_16
REMARK    9  A    between atoms: C_16  and  O_18
REMARK                            x       y       z     vdW  Elec       q    Type
REMARK                         _______ _______ _______ _____ _____    ______ ____
ROOT
ATOM      1  O   UNL     1      44.643   5.919  12.941  0.00  0.00    +0.000 OA
ENDROOT
BRANCH   1   5
ATOM      2  C   UNL     1      46.990   8.654  13.174  0.00  0.00    +0.000 C 
ATOM      3  C   UNL     1      47.362   7.166  13.074  0.00  0.00    +0.000 C 
ATOM      4  C   UNL     1      46.737   6.521  11.839  0.00  0.00    +0.000 C 
ATOM      5  C   UNL     1      45.207   6.654  11.858  0.00  0.00    +0.000 C 
ATOM      6  C   UNL     1      44.762   8.112  12.062  0.00  0.00    +0.000 C 
ATOM      7  C   UNL     1      45.461   8.778  13.255  0.00  0.00    +0.000 C 
BRANCH   2   8
ATOM      8  O   UNL     1      47.555   9.167  14.387  0.00  0.00    +0.000 OA
ATOM      9  H   UNL     1      47.240   8.563  15.089  0.00  0.00    +0.000 HD
ENDBRANCH   2   8
BRANCH   2  10
ATOM     10  C   UNL     1      47.549   9.507  11.998  0.00  0.00    +0.000 C 
BRANCH  10  11
ATOM     11  N   UNL     1      46.708  10.675  11.703  0.00  0.00    +0.000 NA
ATOM     12  H   UNL     1      45.820  10.563  12.197  0.00  0.00    +0.000 HD
ATOM     13  H   UNL     1      46.462  10.678  10.713  0.00  0.00    +0.000 HD
ENDBRANCH  10  11
ENDBRANCH   2  10
ENDBRANCH   1   5
BRANCH   1  14
ATOM     14  C   UNL     1      43.787   4.848  12.556  0.00  0.00    +0.000 C 
BRANCH  14  15
ATOM     15  C   UNL     1      44.245   4.340  11.217  0.00  0.00    +0.000 A 
ATOM     16  C   UNL     1      45.080   3.220  11.123  0.00  0.00    +0.000 A 
ATOM     17  C   UNL     1      45.539   2.780   9.883  0.00  0.00    +0.000 A 
ATOM     18  C   UNL     1      45.146   3.430   8.706  0.00  0.00    +0.000 A 
ATOM     19  C   UNL     1      44.297   4.539   8.800  0.00  0.00    +0.000 A 
ATOM     20  C   UNL     1      43.842   4.986  10.043  0.00  0.00    +0.000 A 
BRANCH  18  21
ATOM     21  C   UNL     1      45.644   3.028   7.383  0.00  0.00    +0.000 C 
ATOM     22  C   UNL     1      46.932   2.780   7.116  0.00  0.00    +0.000 C 
BRANCH  22  23
ATOM     23  C   UNL     1      47.326   2.383   5.751  0.00  0.00    +0.000 C 
ATOM     24  O   UNL     1      46.719   2.686   4.741  0.00  0.00    +0.000 OA
BRANCH  23  25
ATOM     25  O   UNL     1      48.451   1.638   5.747  0.00  0.00    +0.000 OA
ATOM     26  H   UNL     1      48.349   0.724   5.428  0.00  0.00    +0.000 HD
ENDBRANCH  23  25
ENDBRANCH  22  23
ENDBRANCH  18  21
ENDBRANCH  14  15
ENDBRANCH   1  14
TORSDOF 9
ENDMDL
MODEL 6
REMARK VINA RESULT:    -4.315      4.127      7.651
REMARK INTER + INTRA:          -7.073
REMARK INTER:                  -6.367
REMARK INTRA:                  -0.705
REMARK UNBOUND:                -0.866
REMARK  Name = 
REMARK  9 active torsions:
REMARK  status: ('A' for Active; 'I' for Inactive)
REMARK    1  A    between atoms: N_1  and  C_2
REMARK    2  A    between atoms: C_2  and  C_3
REMARK    3  A    between atoms: C_3  and  O_4
REMARK    4  A    between atoms: C_7  and  O_8
REMARK    5  A    between atoms: O_8  and  C_9
REMARK    6  A    between atoms: C_9  and  C_10
REMARK    7  A    between atoms: C_13  and  C_14
REMARK    8  A    between atoms: C_15  and  C_16
REMARK    9  A    between atoms: C_16  and  O_18
REMARK                            x       y       z     vdW  Elec       q    Type
REMARK                         _______ _______ _______ _____ _____    ______ ____
ROOT
ATOM      1  O   UNL     1      46.432   7.401  12.854  0.00  0.00    +0.000 OA
ENDROOT
BRANCH   1   5
ATOM      2  C   UNL     1      43.880   4.859  12.592  0.00  0.00    +0.000 C 
ATOM      3  C   UNL     1      43.935   6.156  11.768  0.00  0.00    +0.000 C 
ATOM      4  C   UNL     1      45.263   6.282  11.025  0.00  0.00    +0.000 C 
ATOM      5  C   UNL     1      46.449   6.260  12.000  0.00  0.00    +0.000 C 
ATOM      6  C   UNL     1      46.400   5.037  12.932  0.00  0.00    +0.000 C 
ATOM      7  C   UNL     1      45.032   4.869  13.609  0.00  0.00    +0.000 C 
BRANCH   2   8
ATOM      8  O   UNL     1      42.639   4.847  13.308  0.00  0.00    +0.000 OA
ATOM      9  H   UNL     1      42.613   5.701  13.786  0.00  0.00    +0.000 HD
ENDBRANCH   2   8
BRANCH   2  10
ATOM     10  C   UNL     1      43.930   3.573  11.717  0.00  0.00    +0.000 C 
BRANCH  10  11
ATOM     11  N   UNL     1      43.726   2.350  12.506  0.00  0.00    +0.000 NA
ATOM     12  H   UNL     1      43.803   2.591  13.496  0.00  0.00    +0.000 HD
ATOM     13  H   UNL     1      44.491   1.699  12.330  0.00  0.00    +0.000 HD
ENDBRANCH  10  11
ENDBRANCH   2  10
ENDBRANCH   1   5
BRANCH   1  14
ATOM     14  C   UNL     1      46.943   8.594  12.267  0.00  0.00    +0.000 C 
BRANCH  14  15
ATOM     15  C   UNL     1      48.431   8.623  12.482  0.00  0.00    +0.000 A 
ATOM     16  C   UNL     1      49.313   8.572  11.396  0.00  0.00    +0.000 A 
ATOM     17  C   UNL     1      50.691   8.554  11.602  0.00  0.00    +0.000 A 
ATOM     18  C   UNL     1      51.218   8.620  12.898  0.00  0.00    +0.000 A 
ATOM     19  C   UNL     1      50.336   8.688  13.982  0.00  0.00    +0.000 A 
ATOM     20  C   UNL     1      48.953   8.700  13.778  0.00  0.00    +0.000 A 
BRANCH  18  21
ATOM     21  C   UNL     1      52.663   8.555  13.162  0.00  0.00    +0.000 C 
ATOM     22  C   UNL     1      53.566   8.138  12.266  0.00  0.00    +0.000 C 
BRANCH  22  23
ATOM     23  C   UNL     1      54.994   8.112  12.635  0.00  0.00    +0.000 C 
ATOM     24  O   UNL     1      55.693   7.115  12.620  0.00  0.00    +0.000 OA
BRANCH  23  25
ATOM     25  O   UNL     1      55.445   9.331  12.992  0.00  0.00    +0.000 OA
ATOM     26  H   UNL     1      55.088   9.685  13.827  0.00  0.00    +0.000 HD
ENDBRANCH  23  25
ENDBRANCH  22  23
ENDBRANCH  18  21
ENDBRANCH  14  15
ENDBRANCH   1  14
TORSDOF 9
ENDMDL
MODEL 7
REMARK VINA RESULT:    -4.286     10.896     11.852
REMARK INTER + INTRA:          -7.031
REMARK INTER:                  -6.212
REMARK INTRA:                  -0.819
REMARK UNBOUND:                -0.866
REMARK  Name = 
REMARK  9 active torsions:
REMARK  status: ('A' for Active; 'I' for Inactive)
REMARK    1  A    between atoms: N_1  and  C_2
REMARK    2  A    between atoms: C_2  and  C_3
REMARK    3  A    between atoms: C_3  and  O_4
REMARK    4  A    between atoms: C_7  and  O_8
REMARK    5  A    between atoms: O_8  and  C_9
REMARK    6  A    between atoms: C_9  and  C_10
REMARK    7  A    between atoms: C_13  and  C_14
REMARK    8  A    between atoms: C_15  and  C_16
REMARK    9  A    between atoms: C_16  and  O_18
REMARK                            x       y       z     vdW  Elec       q    Type
REMARK                         _______ _______ _______ _____ _____    ______ ____
ROOT
ATOM      1  O   UNL     1      38.203   0.888  16.246  0.00  0.00    +0.000 OA
ENDROOT
BRANCH   1   5
ATOM      2  C   UNL     1      38.603   3.209  18.985  0.00  0.00    +0.000 C 
ATOM      3  C   UNL     1      38.770   3.549  17.496  0.00  0.00    +0.000 C 
ATOM      4  C   UNL     1      37.518   3.187  16.701  0.00  0.00    +0.000 C 
ATOM      5  C   UNL     1      37.187   1.694  16.837  0.00  0.00    +0.000 C 
ATOM      6  C   UNL     1      37.107   1.258  18.310  0.00  0.00    +0.000 C 
ATOM      7  C   UNL     1      38.332   1.702  19.121  0.00  0.00    +0.000 C 
BRANCH   2   8
ATOM      8  O   UNL     1      39.836   3.513  19.646  0.00  0.00    +0.000 OA
ATOM      9  H   UNL     1      39.596   3.639  20.586  0.00  0.00    +0.000 HD
ENDBRANCH   2   8
BRANCH   2  10
ATOM     10  C   UNL     1      37.480   4.033  19.681  0.00  0.00    +0.000 C 
BRANCH  10  11
ATOM     11  N   UNL     1      37.440   3.810  21.133  0.00  0.00    +0.000 NA
ATOM     12  H   UNL     1      36.493   3.521  21.386  0.00  0.00    +0.000 HD
ATOM     13  H   UNL     1      37.586   4.696  21.617  0.00  0.00    +0.000 HD
ENDBRANCH  10  11
ENDBRANCH   2  10
ENDBRANCH   1   5
BRANCH   1  14
ATOM     14  C   UNL     1      37.816  -0.454  15.968  0.00  0.00    +0.000 C 
BRANCH  14  15
ATOM     15  C   UNL     1      38.982  -1.352  16.278  0.00  0.00    +0.000 A 
ATOM     16  C   UNL     1      39.632  -2.060  15.260  0.00  0.00    +0.000 A 
ATOM     17  C   UNL     1      40.683  -2.925  15.557  0.00  0.00    +0.000 A 
ATOM     18  C   UNL     1      41.128  -3.079  16.876  0.00  0.00    +0.000 A 
ATOM     19  C   UNL     1      40.488  -2.359  17.892  0.00  0.00    +0.000 A 
ATOM     20  C   UNL     1      39.430  -1.495  17.596  0.00  0.00    +0.000 A 
BRANCH  18  21
ATOM     21  C   UNL     1      42.199  -4.017  17.240  0.00  0.00    +0.000 C 
ATOM     22  C   UNL     1      42.525  -5.093  16.513  0.00  0.00    +0.000 C 
BRANCH  22  23
ATOM     23  C   UNL     1      43.620  -5.971  16.969  0.00  0.00    +0.000 C 
ATOM     24  O   UNL     1      44.295  -5.775  17.963  0.00  0.00    +0.000 OA
BRANCH  23  25
ATOM     25  O   UNL     1      43.789  -7.031  16.152  0.00  0.00    +0.000 OA
ATOM     26  H   UNL     1      42.975  -7.393  15.758  0.00  0.00    +0.000 HD
ENDBRANCH  23  25
ENDBRANCH  22  23
ENDBRANCH  18  21
ENDBRANCH  14  15
ENDBRANCH   1  14
TORSDOF 9
ENDMDL
MODEL 8
REMARK VINA RESULT:    -4.274     10.991     12.969
REMARK INTER + INTRA:          -7.014
REMARK INTER:                  -6.403
REMARK INTRA:                  -0.612
REMARK UNBOUND:                -0.866
REMARK  Name = 
REMARK  9 active torsions:
REMARK  status: ('A' for Active; 'I' for Inactive)
REMARK    1  A    between atoms: N_1  and  C_2
REMARK    2  A    between atoms: C_2  and  C_3
REMARK    3  A    between atoms: C_3  and  O_4
REMARK    4  A    between atoms: C_7  and  O_8
REMARK    5  A    between atoms: O_8  and  C_9
REMARK    6  A    between atoms: C_9  and  C_10
REMARK    7  A    between atoms: C_13  and  C_14
REMARK    8  A    between atoms: C_15  and  C_16
REMARK    9  A    between atoms: C_16  and  O_18
REMARK                            x       y       z     vdW  Elec       q    Type
REMARK                         _______ _______ _______ _____ _____    ______ ____
ROOT
ATOM      1  O   UNL     1      43.907  -6.017  17.359  0.00  0.00    +0.000 OA
ENDROOT
BRANCH   1   5
ATOM      2  C   UNL     1      47.380  -6.998  17.224  0.00  0.00    +0.000 C 
ATOM      3  C   UNL     1      46.850  -5.668  17.783  0.00  0.00    +0.000 C 
ATOM      4  C   UNL     1      45.814  -5.902  18.879  0.00  0.00    +0.000 C 
ATOM      5  C   UNL     1      44.631  -6.731  18.357  0.00  0.00    +0.000 C 
ATOM      6  C   UNL     1      45.098  -8.034  17.687  0.00  0.00    +0.000 C 
ATOM      7  C   UNL     1      46.202  -7.797  16.646  0.00  0.00    +0.000 C 
BRANCH   2   8
ATOM      8  O   UNL     1      48.291  -6.695  16.161  0.00  0.00    +0.000 OA
ATOM      9  H   UNL     1      49.181  -6.749  16.565  0.00  0.00    +0.000 HD
ENDBRANCH   2   8
BRANCH   2  10
ATOM     10  C   UNL     1      48.153  -7.843  18.279  0.00  0.00    +0.000 C 
BRANCH  10  11
ATOM     11  N   UNL     1      49.302  -7.121  18.843  0.00  0.00    +0.000 NA
ATOM     12  H   UNL     1      48.991  -6.185  19.113  0.00  0.00    +0.000 HD
ATOM     13  H   UNL     1      50.000  -6.969  18.114  0.00  0.00    +0.000 HD
ENDBRANCH  10  11
ENDBRANCH   2  10
ENDBRANCH   1   5
BRANCH   1  14
ATOM     14  C   UNL     1      43.004  -5.037  17.861  0.00  0.00    +0.000 C 
BRANCH  14  15
ATOM     15  C   UNL     1      42.219  -4.485  16.703  0.00  0.00    +0.000 A 
ATOM     16  C   UNL     1      42.202  -5.146  15.469  0.00  0.00    +0.000 A 
ATOM     17  C   UNL     1      41.511  -4.608  14.385  0.00  0.00    +0.000 A 
ATOM     18  C   UNL     1      40.793  -3.413  14.521  0.00  0.00    +0.000 A 
ATOM     19  C   UNL     1      40.796  -2.761  15.760  0.00  0.00    +0.000 A 
ATOM     20  C   UNL     1      41.495  -3.296  16.846  0.00  0.00    +0.000 A 
BRANCH  18  21
ATOM     21  C   UNL     1      40.090  -2.787  13.392  0.00  0.00    +0.000 C 
ATOM     22  C   UNL     1      40.506  -2.861  12.122  0.00  0.00    +0.000 C 
BRANCH  22  23
ATOM     23  C   UNL     1      39.725  -2.195  11.063  0.00  0.00    +0.000 C 
ATOM     24  O   UNL     1      39.110  -1.154  11.209  0.00  0.00    +0.000 OA
BRANCH  23  25
ATOM     25  O   UNL     1      39.771  -2.874   9.899  0.00  0.00    +0.000 OA
ATOM     26  H   UNL     1      40.484  -2.614   9.288  0.00  0.00    +0.000 HD
ENDBRANCH  23  25
ENDBRANCH  22  23
ENDBRANCH  18  21
ENDBRANCH  14  15
ENDBRANCH   1  14
TORSDOF 9
ENDMDL
MODEL 9
REMARK VINA RESULT:    -4.115      4.233      6.975
REMARK INTER + INTRA:          -6.786
REMARK INTER:                  -6.136
REMARK INTRA:                  -0.649
REMARK UNBOUND:                -0.866
REMARK  Name = 
REMARK  9 active torsions:
REMARK  status: ('A' for Active; 'I' for Inactive)
REMARK    1  A    between atoms: N_1  and  C_2
REMARK    2  A    between atoms: C_2  and  C_3
REMARK    3  A    between atoms: C_3  and  O_4
REMARK    4  A    between atoms: C_7  and  O_8
REMARK    5  A    between atoms: O_8  and  C_9
REMARK    6  A    between atoms: C_9  and  C_10
REMARK    7  A    between atoms: C_13  and  C_14
REMARK    8  A    between atoms: C_15  and  C_16
REMARK    9  A    between atoms: C_16  and  O_18
REMARK                            x       y       z     vdW  Elec       q    Type
REMARK                         _______ _______ _______ _____ _____    ______ ____
ROOT
ATOM      1  O   UNL     1      49.499   8.276  16.410  0.00  0.00    +0.000 OA
ENDROOT
BRANCH   1   5
ATOM      2  C   UNL     1      48.962   7.251  19.832  0.00  0.00    +0.000 C 
ATOM      3  C   UNL     1      47.900   7.241  18.721  0.00  0.00    +0.000 C 
ATOM      4  C   UNL     1      48.364   6.421  17.520  0.00  0.00    +0.000 C 
ATOM      5  C   UNL     1      49.680   6.968  16.948  0.00  0.00    +0.000 C 
ATOM      6  C   UNL     1      50.762   7.104  18.032  0.00  0.00    +0.000 C 
ATOM      7  C   UNL     1      50.259   7.857  19.272  0.00  0.00    +0.000 C 
BRANCH   2   8
ATOM      8  O   UNL     1      48.484   8.092  20.888  0.00  0.00    +0.000 OA
ATOM      9  H   UNL     1      48.959   7.790  21.689  0.00  0.00    +0.000 HD
ENDBRANCH   2   8
BRANCH   2  10
ATOM     10  C   UNL     1      49.231   5.842  20.437  0.00  0.00    +0.000 C 
BRANCH  10  11
ATOM     11  N   UNL     1      47.993   5.081  20.654  0.00  0.00    +0.000 NA
ATOM     12  H   UNL     1      48.246   4.118  20.888  0.00  0.00    +0.000 HD
ATOM     13  H   UNL     1      47.475   5.015  19.778  0.00  0.00    +0.000 HD
ENDBRANCH  10  11
ENDBRANCH   2  10
ENDBRANCH   1   5
BRANCH   1  14
ATOM     14  C   UNL     1      49.782   8.395  15.020  0.00  0.00    +0.000 C 
BRANCH  14  15
ATOM     15  C   UNL     1      48.555   7.983  14.254  0.00  0.00    +0.000 A 
ATOM     16  C   UNL     1      48.467   6.713  13.672  0.00  0.00    +0.000 A 
ATOM     17  C   UNL     1      47.348   6.351  12.926  0.00  0.00    +0.000 A 
ATOM     18  C   UNL     1      46.277   7.240  12.772  0.00  0.00    +0.000 A 
ATOM     19  C   UNL     1      46.358   8.504  13.368  0.00  0.00    +0.000 A 
ATOM     20  C   UNL     1      47.483   8.871  14.112  0.00  0.00    +0.000 A 
BRANCH  18  21
ATOM     21  C   UNL     1      45.099   6.918  11.953  0.00  0.00    +0.000 C 
ATOM     22  C   UNL     1      44.264   5.905  12.217  0.00  0.00    +0.000 C 
BRANCH  22  23
ATOM     23  C   UNL     1      43.110   5.668  11.330  0.00  0.00    +0.000 C 
ATOM     24  O   UNL     1      43.144   4.994  10.316  0.00  0.00    +0.000 OA
BRANCH  23  25
ATOM     25  O   UNL     1      41.997   6.287  11.774  0.00  0.00    +0.000 OA
ATOM     26  H   UNL     1      41.185   5.749  11.766  0.00  0.00    +0.000 HD
ENDBRANCH  23  25
ENDBRANCH  22  23
ENDBRANCH  18  21
ENDBRANCH  14  15
ENDBRANCH   1  14
TORSDOF 9
ENDMDL
