MODEL 1
REMARK VINA RESULT:    -8.494      0.000      0.000
REMARK INTER + INTRA:         -11.169
REMARK INTER:                 -10.480
REMARK INTRA:                  -0.689
REMARK UNBOUND:                -0.689
REMARK  Name = 
REMARK  6 active torsions:
REMARK  status: ('A' for Active; 'I' for Inactive)
REMARK    1  A    between atoms: C_1  and  C_2
REMARK    2  A    between atoms: C_6  and  C_7
REMARK    3  A    between atoms: C_13  and  C_14
REMARK    4  A    between atoms: C_14  and  N_15
REMARK    5  A    between atoms: N_15  and  C_16
REMARK    6  A    between atoms: C_19  and  C_20
REMARK                            x       y       z     vdW  Elec       q    Type
REMARK                         _______ _______ _______ _____ _____    ______ ____
ROOT
ATOM      1  C   UNL     1      43.862   4.953  11.441  0.00  0.00    +0.000 C 
ATOM      2  C   UNL     1      43.008   6.195  11.281  0.00  0.00    +0.000 C 
ATOM      3  C   UNL     1      42.549   5.130  12.218  0.00  0.00    +0.000 C 
ENDROOT
BRANCH   1  16
ATOM      4  C   UNL     1      46.457   9.888  12.237  0.00  0.00    +0.000 C 
ATOM      5  C   UNL     1      46.718   8.820  13.303  0.00  0.00    +0.000 C 
ATOM      6  C   UNL     1      47.524   9.396  14.489  0.00  0.00    +0.000 C 
ATOM      7  O   UNL     1      48.873   9.729  14.123  0.00  0.00    +0.000 OA
ATOM      8  C   UNL     1      49.575   8.557  13.659  0.00  0.00    +0.000 C 
ATOM      9  C   UNL     1      48.885   7.940  12.430  0.00  0.00    +0.000 C 
ATOM     10  C   UNL     1      49.654   6.752  11.866  0.00  0.00    +0.000 C 
ATOM     11  N   UNL     1      47.465   7.698  12.711  0.00  0.00    +0.000 N 
ATOM     12  C   UNL     1      46.899   6.465  12.869  0.00  0.00    +0.000 A 
ATOM     13  N   UNL     1      47.578   5.444  13.422  0.00  0.00    +0.000 NA
ATOM     14  C   UNL     1      46.995   4.234  13.391  0.00  0.00    +0.000 A 
ATOM     15  C   UNL     1      45.784   3.990  12.802  0.00  0.00    +0.000 A 
ATOM     16  C   UNL     1      45.156   5.089  12.241  0.00  0.00    +0.000 A 
ATOM     17  N   UNL     1      45.680   6.319  12.351  0.00  0.00    +0.000 NA
ENDBRANCH   1  16
BRANCH   1  18
ATOM     18  N   UNL     1      43.841   3.785  10.540  0.00  0.00    +0.000 N 
ATOM     19  H   UNL     1      43.591   2.939  11.050  0.00  0.00    +0.000 HD
BRANCH  18  20
ATOM     20  C   UNL     1      44.806   3.491   9.557  0.00  0.00    +0.000 A 
ATOM     21  C   UNL     1      45.391   4.435   8.715  0.00  0.00    +0.000 A 
ATOM     22  C   UNL     1      46.272   4.033   7.700  0.00  0.00    +0.000 A 
ATOM     23  C   UNL     1      46.563   2.677   7.505  0.00  0.00    +0.000 A 
ATOM     24  C   UNL     1      45.969   1.723   8.330  0.00  0.00    +0.000 A 
ATOM     25  C   UNL     1      45.086   2.132   9.333  0.00  0.00    +0.000 A 
BRANCH  23  26
ATOM     26  C   UNL     1      47.449   2.294   6.377  0.00  0.00    +0.000 C 
ATOM     27  N   UNL     1      47.319   2.982   5.201  0.00  0.00    +0.000 N 
ATOM     28  O   UNL     1      48.269   1.393   6.485  0.00  0.00    +0.000 OA
ATOM     29  H   UNL     1      46.605   3.671   5.021  0.00  0.00    +0.000 HD
ATOM     30  H   UNL     1      47.913   2.694   4.433  0.00  0.00    +0.000 HD
ENDBRANCH  23  26
ENDBRANCH  18  20
ENDBRANCH   1  18
TORSDOF 4
ENDMDL
MODEL 2
REMARK VINA RESULT:    -7.046      3.533      5.728
REMARK INTER + INTRA:          -9.383
REMARK INTER:                  -8.950
REMARK INTRA:                  -0.433
REMARK UNBOUND:                -0.689
REMARK  Name = 
REMARK  6 active torsions:
REMARK  status: ('A' for Active; 'I' for Inactive)
REMARK    1  A    between atoms: C_1  and  C_2
REMARK    2  A    between atoms: C_6  and  C_7
REMARK    3  A    between atoms: C_13  and  C_14
REMARK    4  A    between atoms: C_14  and  N_15
REMARK    5  A    between atoms: N_15  and  C_16
REMARK    6  A    between atoms: C_19  and  C_20
REMARK                            x       y       z     vdW  Elec       q    Type
REMARK                         _______ _______ _______ _____ _____    ______ ____
ROOT
ATOM      1  C   UNL     1      48.435   7.622  12.800  0.00  0.00    +0.000 C 
ATOM      2  C   UNL     1      49.159   7.749  11.475  0.00  0.00    +0.000 C 
ATOM      3  C   UNL     1      48.644   8.987  12.127  0.00  0.00    +0.000 C 
ENDROOT
BRANCH   1  16
ATOM      4  C   UNL     1      46.864   3.962  16.782  0.00  0.00    +0.000 C 
ATOM      5  C   UNL     1      48.372   4.196  16.652  0.00  0.00    +0.000 C 
ATOM      6  C   UNL     1      49.171   3.225  17.550  0.00  0.00    +0.000 C 
ATOM      7  O   UNL     1      48.987   3.499  18.949  0.00  0.00    +0.000 OA
ATOM      8  C   UNL     1      49.432   4.835  19.264  0.00  0.00    +0.000 C 
ATOM      9  C   UNL     1      48.648   5.890  18.465  0.00  0.00    +0.000 C 
ATOM     10  C   UNL     1      49.035   7.314  18.842  0.00  0.00    +0.000 C 
ATOM     11  N   UNL     1      48.695   5.582  17.030  0.00  0.00    +0.000 N 
ATOM     12  C   UNL     1      49.391   6.299  16.099  0.00  0.00    +0.000 A 
ATOM     13  N   UNL     1      50.555   6.901  16.400  0.00  0.00    +0.000 NA
ATOM     14  C   UNL     1      51.082   7.712  15.468  0.00  0.00    +0.000 A 
ATOM     15  C   UNL     1      50.484   7.977  14.266  0.00  0.00    +0.000 A 
ATOM     16  C   UNL     1      49.281   7.332  14.038  0.00  0.00    +0.000 A 
ATOM     17  N   UNL     1      48.792   6.445  14.918  0.00  0.00    +0.000 NA
ENDBRANCH   1  16
BRANCH   1  18
ATOM     18  N   UNL     1      47.009   7.276  12.961  0.00  0.00    +0.000 N 
ATOM     19  H   UNL     1      46.722   7.367  13.934  0.00  0.00    +0.000 HD
BRANCH  18  20
ATOM     20  C   UNL     1      46.362   6.175  12.365  0.00  0.00    +0.000 A 
ATOM     21  C   UNL     1      45.889   6.150  11.055  0.00  0.00    +0.000 A 
ATOM     22  C   UNL     1      45.170   5.042  10.581  0.00  0.00    +0.000 A 
ATOM     23  C   UNL     1      44.900   3.955  11.420  0.00  0.00    +0.000 A 
ATOM     24  C   UNL     1      45.354   3.979  12.739  0.00  0.00    +0.000 A 
ATOM     25  C   UNL     1      46.061   5.090  13.205  0.00  0.00    +0.000 A 
BRANCH  23  26
ATOM     26  C   UNL     1      44.079   2.835  10.895  0.00  0.00    +0.000 C 
ATOM     27  N   UNL     1      44.534   2.177   9.784  0.00  0.00    +0.000 N 
ATOM     28  O   UNL     1      43.030   2.506  11.429  0.00  0.00    +0.000 OA
ATOM     29  H   UNL     1      45.341   2.457   9.247  0.00  0.00    +0.000 HD
ATOM     30  H   UNL     1      43.952   1.432   9.422  0.00  0.00    +0.000 HD
ENDBRANCH  23  26
ENDBRANCH  18  20
ENDBRANCH   1  18
TORSDOF 4
ENDMDL
MODEL 3
REMARK VINA RESULT:    -6.231      4.990      7.904
REMARK INTER + INTRA:          -8.377
REMARK INTER:                  -7.945
REMARK INTRA:                  -0.433
REMARK UNBOUND:                -0.689
REMARK  Name = 
REMARK  6 active torsions:
REMARK  status: ('A' for Active; 'I' for Inactive)
REMARK    1  A    between atoms: C_1  and  C_2
REMARK    2  A    between atoms: C_6  and  C_7
REMARK    3  A    between atoms: C_13  and  C_14
REMARK    4  A    between atoms: C_14  and  N_15
REMARK    5  A    between atoms: N_15  and  C_16
REMARK    6  A    between atoms: C_19  and  C_20
REMARK                            x       y       z     vdW  Elec       q    Type
REMARK                         _______ _______ _______ _____ _____    ______ ____
ROOT
ATOM      1  C   UNL     1      48.128   4.322  16.987  0.00  0.00    +0.000 C 
ATOM      2  C   UNL     1      47.200   3.301  17.614  0.00  0.00    +0.000 C 
ATOM      3  C   UNL     1      47.153   4.706  18.110  0.00  0.00    +0.000 C 
ENDROOT
BRANCH   1  16
ATOM      4  C   UNL     1      50.525   8.861  14.673  0.00  0.00    +0.000 C 
ATOM      5  C   UNL     1      50.000   7.813  13.688  0.00  0.00    +0.000 C 
ATOM      6  C   UNL     1      50.402   8.155  12.236  0.00  0.00    +0.000 C 
ATOM      7  O   UNL     1      49.732   9.328  11.745  0.00  0.00    +0.000 OA
ATOM      8  C   UNL     1      48.302   9.135  11.758  0.00  0.00    +0.000 C 
ATOM      9  C   UNL     1      47.787   8.851  13.179  0.00  0.00    +0.000 C 
ATOM     10  C   UNL     1      46.269   8.731  13.237  0.00  0.00    +0.000 C 
ATOM     11  N   UNL     1      48.532   7.737  13.779  0.00  0.00    +0.000 N 
ATOM     12  C   UNL     1      48.021   6.494  14.018  0.00  0.00    +0.000 A 
ATOM     13  N   UNL     1      47.097   5.945  13.209  0.00  0.00    +0.000 NA
ATOM     14  C   UNL     1      46.540   4.791  13.612  0.00  0.00    +0.000 A 
ATOM     15  C   UNL     1      46.836   4.179  14.799  0.00  0.00    +0.000 A 
ATOM     16  C   UNL     1      47.785   4.814  15.583  0.00  0.00    +0.000 A 
ATOM     17  N   UNL     1      48.420   5.913  15.149  0.00  0.00    +0.000 NA
ENDBRANCH   1  16
BRANCH   1  18
ATOM     18  N   UNL     1      49.541   4.529  17.360  0.00  0.00    +0.000 N 
ATOM     19  H   UNL     1      49.919   5.357  16.901  0.00  0.00    +0.000 HD
BRANCH  18  20
ATOM     20  C   UNL     1      50.524   3.523  17.432  0.00  0.00    +0.000 A 
ATOM     21  C   UNL     1      50.296   2.173  17.172  0.00  0.00    +0.000 A 
ATOM     22  C   UNL     1      51.317   1.230  17.365  0.00  0.00    +0.000 A 
ATOM     23  C   UNL     1      52.573   1.627  17.840  0.00  0.00    +0.000 A 
ATOM     24  C   UNL     1      52.806   2.972  18.121  0.00  0.00    +0.000 A 
ATOM     25  C   UNL     1      51.781   3.903  17.934  0.00  0.00    +0.000 A 
BRANCH  23  26
ATOM     26  C   UNL     1      53.601   0.585  18.092  0.00  0.00    +0.000 C 
ATOM     27  N   UNL     1      53.171  -0.654  18.481  0.00  0.00    +0.000 N 
ATOM     28  O   UNL     1      54.794   0.819  17.961  0.00  0.00    +0.000 OA
ATOM     29  H   UNL     1      52.212  -0.884  18.693  0.00  0.00    +0.000 HD
ATOM     30  H   UNL     1      53.884  -1.348  18.674  0.00  0.00    +0.000 HD
ENDBRANCH  23  26
ENDBRANCH  18  20
ENDBRANCH   1  18
TORSDOF 4
ENDMDL
MODEL 4
REMARK VINA RESULT:    -6.180      1.382      2.793
REMARK INTER + INTRA:          -8.315
REMARK INTER:                  -8.748
REMARK INTRA:                   0.433
REMARK UNBOUND:                -0.689
REMARK  Name = 
REMARK  6 active torsions:
REMARK  status: ('A' for Active; 'I' for Inactive)
REMARK    1  A    between atoms: C_1  and  C_2
REMARK    2  A    between atoms: C_6  and  C_7
REMARK    3  A    between atoms: C_13  and  C_14
REMARK    4  A    between atoms: C_14  and  N_15
REMARK    5  A    between atoms: N_15  and  C_16
REMARK    6  A    between atoms: C_19  and  C_20
REMARK                            x       y       z     vdW  Elec       q    Type
REMARK                         _______ _______ _______ _____ _____    ______ ____
ROOT
ATOM      1  C   UNL     1      44.771   5.535  11.531  0.00  0.00    +0.000 C 
ATOM      2  C   UNL     1      44.285   4.719  12.712  0.00  0.00    +0.000 C 
ATOM      3  C   UNL     1      45.620   4.402  12.128  0.00  0.00    +0.000 C 
ENDROOT
BRANCH   1  16
ATOM      4  C   UNL     1      50.212   6.944  11.893  0.00  0.00    +0.000 C 
ATOM      5  C   UNL     1      49.260   8.071  11.482  0.00  0.00    +0.000 C 
ATOM      6  C   UNL     1      50.037   9.344  11.080  0.00  0.00    +0.000 C 
ATOM      7  O   UNL     1      50.695   9.959  12.200  0.00  0.00    +0.000 OA
ATOM      8  C   UNL     1      49.732  10.346  13.202  0.00  0.00    +0.000 C 
ATOM      9  C   UNL     1      48.944   9.130  13.720  0.00  0.00    +0.000 C 
ATOM     10  C   UNL     1      47.981   9.496  14.843  0.00  0.00    +0.000 C 
ATOM     11  N   UNL     1      48.354   8.389  12.599  0.00  0.00    +0.000 N 
ATOM     12  C   UNL     1      47.021   8.343  12.308  0.00  0.00    +0.000 A 
ATOM     13  N   UNL     1      46.212   9.392  12.540  0.00  0.00    +0.000 NA
ATOM     14  C   UNL     1      44.894   9.198  12.369  0.00  0.00    +0.000 A 
ATOM     15  C   UNL     1      44.344   7.997  12.014  0.00  0.00    +0.000 A 
ATOM     16  C   UNL     1      45.240   6.961  11.809  0.00  0.00    +0.000 A 
ATOM     17  N   UNL     1      46.564   7.166  11.880  0.00  0.00    +0.000 NA
ENDBRANCH   1  16
BRANCH   1  18
ATOM     18  N   UNL     1      44.405   5.294  10.122  0.00  0.00    +0.000 N 
ATOM     19  H   UNL     1      43.393   5.245  10.014  0.00  0.00    +0.000 HD
BRANCH  18  20
ATOM     20  C   UNL     1      45.030   4.373   9.260  0.00  0.00    +0.000 A 
ATOM     21  C   UNL     1      44.831   2.994   9.297  0.00  0.00    +0.000 A 
ATOM     22  C   UNL     1      45.573   2.146   8.461  0.00  0.00    +0.000 A 
ATOM     23  C   UNL     1      46.538   2.669   7.591  0.00  0.00    +0.000 A 
ATOM     24  C   UNL     1      46.757   4.046   7.560  0.00  0.00    +0.000 A 
ATOM     25  C   UNL     1      46.020   4.881   8.402  0.00  0.00    +0.000 A 
BRANCH  23  26
ATOM     26  C   UNL     1      47.345   1.729   6.773  0.00  0.00    +0.000 C 
ATOM     27  N   UNL     1      48.377   2.246   6.039  0.00  0.00    +0.000 N 
ATOM     28  O   UNL     1      47.101   0.531   6.750  0.00  0.00    +0.000 OA
ATOM     29  H   UNL     1      48.572   3.232   5.946  0.00  0.00    +0.000 HD
ATOM     30  H   UNL     1      48.904   1.597   5.467  0.00  0.00    +0.000 HD
ENDBRANCH  23  26
ENDBRANCH  18  20
ENDBRANCH   1  18
TORSDOF 4
ENDMDL
MODEL 5
REMARK VINA RESULT:    -5.890      3.854      6.612
REMARK INTER + INTRA:          -7.956
REMARK INTER:                  -7.350
REMARK INTRA:                  -0.606
REMARK UNBOUND:                -0.689
REMARK  Name = 
REMARK  6 active torsions:
REMARK  status: ('A' for Active; 'I' for Inactive)
REMARK    1  A    between atoms: C_1  and  C_2
REMARK    2  A    between atoms: C_6  and  C_7
REMARK    3  A    between atoms: C_13  and  C_14
REMARK    4  A    between atoms: C_14  and  N_15
REMARK    5  A    between atoms: N_15  and  C_16
REMARK    6  A    between atoms: C_19  and  C_20
REMARK                            x       y       z     vdW  Elec       q    Type
REMARK                         _______ _______ _______ _____ _____    ______ ____
ROOT
ATOM      1  C   UNL     1      49.098   7.615  13.406  0.00  0.00    +0.000 C 
ATOM      2  C   UNL     1      48.671   8.237  14.721  0.00  0.00    +0.000 C 
ATOM      3  C   UNL     1      49.882   7.367  14.704  0.00  0.00    +0.000 C 
ENDROOT
BRANCH   1  16
ATOM      4  C   UNL     1      53.328   5.947  10.084  0.00  0.00    +0.000 C 
ATOM      5  C   UNL     1      52.468   7.090   9.540  0.00  0.00    +0.000 C 
ATOM      6  C   UNL     1      52.849   7.437   8.083  0.00  0.00    +0.000 C 
ATOM      7  O   UNL     1      54.155   8.030   7.988  0.00  0.00    +0.000 OA
ATOM      8  C   UNL     1      54.211   9.255   8.746  0.00  0.00    +0.000 C 
ATOM      9  C   UNL     1      53.907   9.008  10.234  0.00  0.00    +0.000 C 
ATOM     10  C   UNL     1      54.045  10.270  11.075  0.00  0.00    +0.000 C 
ATOM     11  N   UNL     1      52.638   8.286  10.383  0.00  0.00    +0.000 N 
ATOM     12  C   UNL     1      51.486   8.825  10.880  0.00  0.00    +0.000 A 
ATOM     13  N   UNL     1      51.170  10.117  10.682  0.00  0.00    +0.000 NA
ATOM     14  C   UNL     1      50.100  10.593  11.341  0.00  0.00    +0.000 A 
ATOM     15  C   UNL     1      49.354   9.849  12.214  0.00  0.00    +0.000 A 
ATOM     16  C   UNL     1      49.752   8.532  12.375  0.00  0.00    +0.000 A 
ATOM     17  N   UNL     1      50.757   8.018  11.651  0.00  0.00    +0.000 NA
ENDBRANCH   1  16
BRANCH   1  18
ATOM     18  N   UNL     1      48.539   6.377  12.829  0.00  0.00    +0.000 N 
ATOM     19  H   UNL     1      49.077   6.081  12.016  0.00  0.00    +0.000 HD
BRANCH  18  20
ATOM     20  C   UNL     1      47.170   6.113  12.627  0.00  0.00    +0.000 A 
ATOM     21  C   UNL     1      46.365   5.391  13.505  0.00  0.00    +0.000 A 
ATOM     22  C   UNL     1      45.035   5.097  13.171  0.00  0.00    +0.000 A 
ATOM     23  C   UNL     1      44.501   5.506  11.944  0.00  0.00    +0.000 A 
ATOM     24  C   UNL     1      45.304   6.213  11.050  0.00  0.00    +0.000 A 
ATOM     25  C   UNL     1      46.630   6.495  11.387  0.00  0.00    +0.000 A 
BRANCH  23  26
ATOM     26  C   UNL     1      43.109   5.114  11.605  0.00  0.00    +0.000 C 
ATOM     27  N   UNL     1      42.129   6.059  11.744  0.00  0.00    +0.000 N 
ATOM     28  O   UNL     1      42.839   3.987  11.216  0.00  0.00    +0.000 OA
ATOM     29  H   UNL     1      42.273   6.974  12.144  0.00  0.00    +0.000 HD
ATOM     30  H   UNL     1      41.181   5.771  11.534  0.00  0.00    +0.000 HD
ENDBRANCH  23  26
ENDBRANCH  18  20
ENDBRANCH   1  18
TORSDOF 4
ENDMDL
MODEL 6
REMARK VINA RESULT:    -5.645      5.480      8.284
REMARK INTER + INTRA:          -7.655
REMARK INTER:                  -7.365
REMARK INTRA:                  -0.290
REMARK UNBOUND:                -0.689
REMARK  Name = 
REMARK  6 active torsions:
REMARK  status: ('A' for Active; 'I' for Inactive)
REMARK    1  A    between atoms: C_1  and  C_2
REMARK    2  A    between atoms: C_6  and  C_7
REMARK    3  A    between atoms: C_13  and  C_14
REMARK    4  A    between atoms: C_14  and  N_15
REMARK    5  A    between atoms: N_15  and  C_16
REMARK    6  A    between atoms: C_19  and  C_20
REMARK                            x       y       z     vdW  Elec       q    Type
REMARK                         _______ _______ _______ _____ _____    ______ ____
ROOT
ATOM      1  C   UNL     1      48.861   3.660  17.240  0.00  0.00    +0.000 C 
ATOM      2  C   UNL     1      48.312   2.431  16.542  0.00  0.00    +0.000 C 
ATOM      3  C   UNL     1      47.593   2.952  17.740  0.00  0.00    +0.000 C 
ENDROOT
BRANCH   1  16
ATOM      4  C   UNL     1      45.858   4.253  12.513  0.00  0.00    +0.000 C 
ATOM      5  C   UNL     1      45.959   5.500  13.396  0.00  0.00    +0.000 C 
ATOM      6  C   UNL     1      45.050   6.635  12.873  0.00  0.00    +0.000 C 
ATOM      7  O   UNL     1      45.511   7.169  11.620  0.00  0.00    +0.000 OA
ATOM      8  C   UNL     1      46.838   7.716  11.762  0.00  0.00    +0.000 C 
ATOM      9  C   UNL     1      47.841   6.643  12.220  0.00  0.00    +0.000 C 
ATOM     10  C   UNL     1      49.268   7.171  12.293  0.00  0.00    +0.000 C 
ATOM     11  N   UNL     1      47.353   5.972  13.432  0.00  0.00    +0.000 N 
ATOM     12  C   UNL     1      47.894   6.119  14.677  0.00  0.00    +0.000 A 
ATOM     13  N   UNL     1      48.439   7.282  15.076  0.00  0.00    +0.000 NA
ATOM     14  C   UNL     1      49.085   7.281  16.254  0.00  0.00    +0.000 A 
ATOM     15  C   UNL     1      49.242   6.168  17.034  0.00  0.00    +0.000 A 
ATOM     16  C   UNL     1      48.665   5.007  16.547  0.00  0.00    +0.000 A 
ATOM     17  N   UNL     1      47.935   5.014  15.421  0.00  0.00    +0.000 NA
ENDBRANCH   1  16
BRANCH   1  18
ATOM     18  N   UNL     1      49.949   3.658  18.236  0.00  0.00    +0.000 N 
ATOM     19  H   UNL     1      50.049   4.577  18.666  0.00  0.00    +0.000 HD
BRANCH  18  20
ATOM     20  C   UNL     1      51.215   3.063  18.065  0.00  0.00    +0.000 A 
ATOM     21  C   UNL     1      52.426   3.748  18.130  0.00  0.00    +0.000 A 
ATOM     22  C   UNL     1      53.632   3.087  17.850  0.00  0.00    +0.000 A 
ATOM     23  C   UNL     1      53.635   1.737  17.481  0.00  0.00    +0.000 A 
ATOM     24  C   UNL     1      52.426   1.047  17.396  0.00  0.00    +0.000 A 
ATOM     25  C   UNL     1      51.230   1.715  17.668  0.00  0.00    +0.000 A 
BRANCH  23  26
ATOM     26  C   UNL     1      54.928   1.097  17.129  0.00  0.00    +0.000 C 
ATOM     27  N   UNL     1      55.385   0.094  17.941  0.00  0.00    +0.000 N 
ATOM     28  O   UNL     1      55.570   1.449  16.150  0.00  0.00    +0.000 OA
ATOM     29  H   UNL     1      54.950  -0.179  18.808  0.00  0.00    +0.000 HD
ATOM     30  H   UNL     1      56.280  -0.316  17.703  0.00  0.00    +0.000 HD
ENDBRANCH  23  26
ENDBRANCH  18  20
ENDBRANCH   1  18
TORSDOF 4
ENDMDL
MODEL 7
REMARK VINA RESULT:    -5.503      3.876      6.010
REMARK INTER + INTRA:          -7.479
REMARK INTER:                  -6.944
REMARK INTRA:                  -0.536
REMARK UNBOUND:                -0.689
REMARK  Name = 
REMARK  6 active torsions:
REMARK  status: ('A' for Active; 'I' for Inactive)
REMARK    1  A    between atoms: C_1  and  C_2
REMARK    2  A    between atoms: C_6  and  C_7
REMARK    3  A    between atoms: C_13  and  C_14
REMARK    4  A    between atoms: C_14  and  N_15
REMARK    5  A    between atoms: N_15  and  C_16
REMARK    6  A    between atoms: C_19  and  C_20
REMARK                            x       y       z     vdW  Elec       q    Type
REMARK                         _______ _______ _______ _____ _____    ______ ____
ROOT
ATOM      1  C   UNL     1      48.657   7.717  13.386  0.00  0.00    +0.000 C 
ATOM      2  C   UNL     1      49.548   7.533  12.174  0.00  0.00    +0.000 C 
ATOM      3  C   UNL     1      49.059   8.904  12.498  0.00  0.00    +0.000 C 
ENDROOT
BRANCH   1  16
ATOM      4  C   UNL     1      54.222   7.205  14.078  0.00  0.00    +0.000 C 
ATOM      5  C   UNL     1      53.465   7.853  15.240  0.00  0.00    +0.000 C 
ATOM      6  C   UNL     1      54.438   8.397  16.311  0.00  0.00    +0.000 C 
ATOM      7  O   UNL     1      55.126   7.345  17.007  0.00  0.00    +0.000 OA
ATOM      8  C   UNL     1      54.185   6.486  17.683  0.00  0.00    +0.000 C 
ATOM      9  C   UNL     1      53.204   5.838  16.690  0.00  0.00    +0.000 C 
ATOM     10  C   UNL     1      52.254   4.857  17.365  0.00  0.00    +0.000 C 
ATOM     11  N   UNL     1      52.565   6.867  15.860  0.00  0.00    +0.000 N 
ATOM     12  C   UNL     1      51.254   7.239  15.949  0.00  0.00    +0.000 A 
ATOM     13  N   UNL     1      50.598   7.233  17.123  0.00  0.00    +0.000 NA
ATOM     14  C   UNL     1      49.275   7.461  17.085  0.00  0.00    +0.000 A 
ATOM     15  C   UNL     1      48.572   7.660  15.928  0.00  0.00    +0.000 A 
ATOM     16  C   UNL     1      49.316   7.636  14.761  0.00  0.00    +0.000 A 
ATOM     17  N   UNL     1      50.651   7.507  14.791  0.00  0.00    +0.000 NA
ENDBRANCH   1  16
BRANCH   1  18
ATOM     18  N   UNL     1      47.199   7.490  13.412  0.00  0.00    +0.000 N 
ATOM     19  H   UNL     1      46.837   7.568  14.361  0.00  0.00    +0.000 HD
BRANCH  18  20
ATOM     20  C   UNL     1      46.516   6.474  12.715  0.00  0.00    +0.000 A 
ATOM     21  C   UNL     1      45.788   6.670  11.543  0.00  0.00    +0.000 A 
ATOM     22  C   UNL     1      45.060   5.615  10.974  0.00  0.00    +0.000 A 
ATOM     23  C   UNL     1      45.038   4.354  11.582  0.00  0.00    +0.000 A 
ATOM     24  C   UNL     1      45.749   4.152  12.765  0.00  0.00    +0.000 A 
ATOM     25  C   UNL     1      46.463   5.212  13.330  0.00  0.00    +0.000 A 
BRANCH  23  26
ATOM     26  C   UNL     1      44.201   3.286  10.980  0.00  0.00    +0.000 C 
ATOM     27  N   UNL     1      44.817   2.380  10.159  0.00  0.00    +0.000 N 
ATOM     28  O   UNL     1      43.002   3.212  11.203  0.00  0.00    +0.000 OA
ATOM     29  H   UNL     1      45.780   2.440   9.866  0.00  0.00    +0.000 HD
ATOM     30  H   UNL     1      44.230   1.672   9.736  0.00  0.00    +0.000 HD
ENDBRANCH  23  26
ENDBRANCH  18  20
ENDBRANCH   1  18
TORSDOF 4
ENDMDL
