MODEL 1
REMARK VINA RESULT:    -8.248      0.000      0.000
REMARK INTER + INTRA:         -10.267
REMARK INTER:                  -9.935
REMARK INTRA:                  -0.331
REMARK UNBOUND:                -0.331
REMARK  Name = 
REMARK  4 active torsions:
REMARK  status: ('A' for Active; 'I' for Inactive)
REMARK    1  A    between atoms: N_1  and  C_2
REMARK    2  A    between atoms: C_2  and  C_3
REMARK    3  A    between atoms: C_7  and  C_8
REMARK    4  A    between atoms: C_8  and  C_9
REMARK                            x       y       z     vdW  Elec       q    Type
REMARK                         _______ _______ _______ _____ _____    ______ ____
ROOT
ATOM      1  C   UNL     1      44.135   4.041   9.171  0.00  0.00    +0.000 C 
ENDROOT
BRANCH   1   2
ATOM      2  C   UNL     1      44.179   3.903  10.662  0.00  0.00    +0.000 A 
ATOM      3  C   UNL     1      43.468   3.083  11.527  0.00  0.00    +0.000 A 
ATOM      4  N   UNL     1      43.937   3.279  12.803  0.00  0.00    +0.000 N 
ATOM      5  C   UNL     1      44.933   4.216  12.794  0.00  0.00    +0.000 A 
ATOM      6  N   UNL     1      45.631   4.607  13.875  0.00  0.00    +0.000 NA
ATOM      7  C   UNL     1      46.559   5.550  13.585  0.00  0.00    +0.000 A 
ATOM      8  C   UNL     1      46.776   6.120  12.337  0.00  0.00    +0.000 A 
ATOM      9  C   UNL     1      46.019   5.679  11.253  0.00  0.00    +0.000 A 
ATOM     10  C   UNL     1      45.073   4.664  11.488  0.00  0.00    +0.000 A 
ATOM     11  H   UNL     1      43.627   2.803  13.636  0.00  0.00    +0.000 HD
ENDBRANCH   1   2
BRANCH   1  16
ATOM     12  C   UNL     1      46.657   2.529   6.740  0.00  0.00    +0.000 A 
ATOM     13  C   UNL     1      46.723   1.258   7.299  0.00  0.00    +0.000 A 
ATOM     14  N   UNL     1      46.058   0.877   8.411  0.00  0.00    +0.000 NA
ATOM     15  C   UNL     1      45.270   1.808   8.994  0.00  0.00    +0.000 A 
ATOM     16  C   UNL     1      45.102   3.103   8.516  0.00  0.00    +0.000 A 
ATOM     17  C   UNL     1      45.824   3.463   7.370  0.00  0.00    +0.000 A 
BRANCH  12  18
ATOM     18  C   UNL     1      47.428   2.871   5.497  0.00  0.00    +0.000 C 
BRANCH  18  19
ATOM     19  N   UNL     1      48.489   1.906   5.236  0.00  0.00    +0.000 NA
ATOM     20  H   UNL     1      48.074   1.006   5.002  0.00  0.00    +0.000 HD
ATOM     21  H   UNL     1      49.024   1.762   6.091  0.00  0.00    +0.000 HD
ENDBRANCH  18  19
ENDBRANCH  12  18
ENDBRANCH   1  16
TORSDOF 4
ENDMDL
MODEL 2
REMARK VINA RESULT:    -7.386      1.347      5.870
REMARK INTER + INTRA:          -9.229
REMARK INTER:                  -8.756
REMARK INTRA:                  -0.473
REMARK UNBOUND:                -0.331
REMARK  Name = 
REMARK  4 active torsions:
REMARK  status: ('A' for Active; 'I' for Inactive)
REMARK    1  A    between atoms: N_1  and  C_2
REMARK    2  A    between atoms: C_2  and  C_3
REMARK    3  A    between atoms: C_7  and  C_8
REMARK    4  A    between atoms: C_8  and  C_9
REMARK                            x       y       z     vdW  Elec       q    Type
REMARK                         _______ _______ _______ _____ _____    ______ ____
ROOT
ATOM      1  C   UNL     1      44.219   4.407   9.093  0.00  0.00    +0.000 C 
ENDROOT
BRANCH   1   2
ATOM      2  C   UNL     1      44.842   3.069   8.842  0.00  0.00    +0.000 A 
ATOM      3  C   UNL     1      44.495   1.800   9.287  0.00  0.00    +0.000 A 
ATOM      4  N   UNL     1      45.339   0.885   8.706  0.00  0.00    +0.000 N 
ATOM      5  C   UNL     1      46.235   1.527   7.898  0.00  0.00    +0.000 A 
ATOM      6  N   UNL     1      47.173   0.916   7.151  0.00  0.00    +0.000 NA
ATOM      7  C   UNL     1      47.930   1.789   6.445  0.00  0.00    +0.000 A 
ATOM      8  C   UNL     1      47.825   3.173   6.486  0.00  0.00    +0.000 A 
ATOM      9  C   UNL     1      46.838   3.752   7.282  0.00  0.00    +0.000 A 
ATOM     10  C   UNL     1      45.990   2.889   8.000  0.00  0.00    +0.000 A 
ATOM     11  H   UNL     1      45.311  -0.116   8.823  0.00  0.00    +0.000 HD
ENDBRANCH   1   2
BRANCH   1  16
ATOM     12  C   UNL     1      45.212   4.819  12.754  0.00  0.00    +0.000 A 
ATOM     13  C   UNL     1      43.956   5.140  13.257  0.00  0.00    +0.000 A 
ATOM     14  N   UNL     1      42.843   5.275  12.505  0.00  0.00    +0.000 NA
ATOM     15  C   UNL     1      42.981   5.064  11.177  0.00  0.00    +0.000 A 
ATOM     16  C   UNL     1      44.177   4.714  10.559  0.00  0.00    +0.000 A 
ATOM     17  C   UNL     1      45.311   4.602  11.373  0.00  0.00    +0.000 A 
BRANCH  12  18
ATOM     18  C   UNL     1      46.401   4.686  13.662  0.00  0.00    +0.000 C 
BRANCH  18  19
ATOM     19  N   UNL     1      46.862   3.306  13.749  0.00  0.00    +0.000 NA
ATOM     20  H   UNL     1      46.745   2.971  14.703  0.00  0.00    +0.000 HD
ATOM     21  H   UNL     1      47.862   3.277  13.554  0.00  0.00    +0.000 HD
ENDBRANCH  18  19
ENDBRANCH  12  18
ENDBRANCH   1  16
TORSDOF 4
ENDMDL
MODEL 3
REMARK VINA RESULT:    -7.107      1.609      2.495
REMARK INTER + INTRA:          -8.893
REMARK INTER:                  -8.362
REMARK INTRA:                  -0.531
REMARK UNBOUND:                -0.331
REMARK  Name = 
REMARK  4 active torsions:
REMARK  status: ('A' for Active; 'I' for Inactive)
REMARK    1  A    between atoms: N_1  and  C_2
REMARK    2  A    between atoms: C_2  and  C_3
REMARK    3  A    between atoms: C_7  and  C_8
REMARK    4  A    between atoms: C_8  and  C_9
REMARK                            x       y       z     vdW  Elec       q    Type
REMARK                         _______ _______ _______ _____ _____    ______ ____
ROOT
ATOM      1  C   UNL     1      44.561   5.612  11.003  0.00  0.00    +0.000 C 
ENDROOT
BRANCH   1   2
ATOM      2  C   UNL     1      45.417   5.564  12.231  0.00  0.00    +0.000 A 
ATOM      3  C   UNL     1      45.247   4.902  13.439  0.00  0.00    +0.000 A 
ATOM      4  N   UNL     1      46.360   5.114  14.215  0.00  0.00    +0.000 N 
ATOM      5  C   UNL     1      47.250   5.906  13.546  0.00  0.00    +0.000 A 
ATOM      6  N   UNL     1      48.459   6.269  14.011  0.00  0.00    +0.000 NA
ATOM      7  C   UNL     1      49.138   7.060  13.147  0.00  0.00    +0.000 A 
ATOM      8  C   UNL     1      48.666   7.515  11.922  0.00  0.00    +0.000 A 
ATOM      9  C   UNL     1      47.403   7.112  11.492  0.00  0.00    +0.000 A 
ATOM     10  C   UNL     1      46.673   6.250  12.332  0.00  0.00    +0.000 A 
ATOM     11  H   UNL     1      46.531   4.737  15.135  0.00  0.00    +0.000 HD
ENDBRANCH   1   2
BRANCH   1  16
ATOM     12  C   UNL     1      45.757   3.502   8.058  0.00  0.00    +0.000 A 
ATOM     13  C   UNL     1      45.180   2.297   8.439  0.00  0.00    +0.000 A 
ATOM     14  N   UNL     1      44.484   2.110   9.582  0.00  0.00    +0.000 NA
ATOM     15  C   UNL     1      44.341   3.188  10.385  0.00  0.00    +0.000 A 
ATOM     16  C   UNL     1      44.849   4.451  10.101  0.00  0.00    +0.000 A 
ATOM     17  C   UNL     1      45.579   4.596   8.914  0.00  0.00    +0.000 A 
BRANCH  12  18
ATOM     18  C   UNL     1      46.514   3.626   6.766  0.00  0.00    +0.000 C 
BRANCH  18  19
ATOM     19  N   UNL     1      47.834   3.013   6.853  0.00  0.00    +0.000 NA
ATOM     20  H   UNL     1      47.886   2.232   6.202  0.00  0.00    +0.000 HD
ATOM     21  H   UNL     1      47.957   2.620   7.785  0.00  0.00    +0.000 HD
ENDBRANCH  18  19
ENDBRANCH  12  18
ENDBRANCH   1  16
TORSDOF 4
ENDMDL
MODEL 4
REMARK VINA RESULT:    -6.956      1.564      5.824
REMARK INTER + INTRA:          -8.711
REMARK INTER:                  -8.215
REMARK INTRA:                  -0.495
REMARK UNBOUND:                -0.331
REMARK  Name = 
REMARK  4 active torsions:
REMARK  status: ('A' for Active; 'I' for Inactive)
REMARK    1  A    between atoms: N_1  and  C_2
REMARK    2  A    between atoms: C_2  and  C_3
REMARK    3  A    between atoms: C_7  and  C_8
REMARK    4  A    between atoms: C_8  and  C_9
REMARK                            x       y       z     vdW  Elec       q    Type
REMARK                         _______ _______ _______ _____ _____    ______ ____
ROOT
ATOM      1  C   UNL     1      43.846   5.146  10.496  0.00  0.00    +0.000 C 
ENDROOT
BRANCH   1   2
ATOM      2  C   UNL     1      44.303   3.788  10.060  0.00  0.00    +0.000 A 
ATOM      3  C   UNL     1      43.941   2.519  10.491  0.00  0.00    +0.000 A 
ATOM      4  N   UNL     1      44.590   1.591   9.713  0.00  0.00    +0.000 N 
ATOM      5  C   UNL     1      45.375   2.224   8.790  0.00  0.00    +0.000 A 
ATOM      6  N   UNL     1      46.111   1.603   7.850  0.00  0.00    +0.000 NA
ATOM      7  C   UNL     1      46.796   2.469   7.067  0.00  0.00    +0.000 A 
ATOM      8  C   UNL     1      46.812   3.851   7.203  0.00  0.00    +0.000 A 
ATOM      9  C   UNL     1      46.034   4.440   8.199  0.00  0.00    +0.000 A 
ATOM     10  C   UNL     1      45.263   3.589   9.012  0.00  0.00    +0.000 A 
ATOM     11  H   UNL     1      44.503   0.589   9.777  0.00  0.00    +0.000 HD
ENDBRANCH   1   2
BRANCH   1  16
ATOM     12  C   UNL     1      46.394   5.646  13.292  0.00  0.00    +0.000 A 
ATOM     13  C   UNL     1      46.494   7.030  13.215  0.00  0.00    +0.000 A 
ATOM     14  N   UNL     1      45.843   7.794  12.311  0.00  0.00    +0.000 NA
ATOM     15  C   UNL     1      45.035   7.146  11.442  0.00  0.00    +0.000 A 
ATOM     16  C   UNL     1      44.834   5.770  11.435  0.00  0.00    +0.000 A 
ATOM     17  C   UNL     1      45.541   5.014  12.378  0.00  0.00    +0.000 A 
BRANCH  12  18
ATOM     18  C   UNL     1      47.152   4.870  14.333  0.00  0.00    +0.000 C 
BRANCH  18  19
ATOM     19  N   UNL     1      47.203   3.449  14.015  0.00  0.00    +0.000 NA
ATOM     20  H   UNL     1      46.344   3.002  14.332  0.00  0.00    +0.000 HD
ATOM     21  H   UNL     1      47.962   3.018  14.542  0.00  0.00    +0.000 HD
ENDBRANCH  18  19
ENDBRANCH  12  18
ENDBRANCH   1  16
TORSDOF 4
ENDMDL
MODEL 5
REMARK VINA RESULT:    -6.570      2.129      5.524
REMARK INTER + INTRA:          -8.246
REMARK INTER:                  -7.659
REMARK INTRA:                  -0.586
REMARK UNBOUND:                -0.331
REMARK  Name = 
REMARK  4 active torsions:
REMARK  status: ('A' for Active; 'I' for Inactive)
REMARK    1  A    between atoms: N_1  and  C_2
REMARK    2  A    between atoms: C_2  and  C_3
REMARK    3  A    between atoms: C_7  and  C_8
REMARK    4  A    between atoms: C_8  and  C_9
REMARK                            x       y       z     vdW  Elec       q    Type
REMARK                         _______ _______ _______ _____ _____    ______ ____
ROOT
ATOM      1  C   UNL     1      44.635   6.114  11.998  0.00  0.00    +0.000 C 
ENDROOT
BRANCH   1   2
ATOM      2  C   UNL     1      44.409   4.710  11.530  0.00  0.00    +0.000 A 
ATOM      3  C   UNL     1      43.764   3.638  12.132  0.00  0.00    +0.000 A 
ATOM      4  N   UNL     1      43.757   2.581  11.254  0.00  0.00    +0.000 N 
ATOM      5  C   UNL     1      44.390   2.935  10.095  0.00  0.00    +0.000 A 
ATOM      6  N   UNL     1      44.521   2.142   9.016  0.00  0.00    +0.000 NA
ATOM      7  C   UNL     1      45.194   2.741   8.005  0.00  0.00    +0.000 A 
ATOM      8  C   UNL     1      45.751   4.012   8.041  0.00  0.00    +0.000 A 
ATOM      9  C   UNL     1      45.590   4.788   9.188  0.00  0.00    +0.000 A 
ATOM     10  C   UNL     1      44.856   4.233  10.252  0.00  0.00    +0.000 A 
ATOM     11  H   UNL     1      43.338   1.677  11.405  0.00  0.00    +0.000 HD
ENDBRANCH   1   2
BRANCH   1  16
ATOM     12  C   UNL     1      48.283   7.202  12.248  0.00  0.00    +0.000 A 
ATOM     13  C   UNL     1      48.634   6.444  13.359  0.00  0.00    +0.000 A 
ATOM     14  N   UNL     1      47.778   5.657  14.048  0.00  0.00    +0.000 NA
ATOM     15  C   UNL     1      46.505   5.609  13.597  0.00  0.00    +0.000 A 
ATOM     16  C   UNL     1      46.040   6.300  12.483  0.00  0.00    +0.000 A 
ATOM     17  C   UNL     1      46.956   7.119  11.808  0.00  0.00    +0.000 A 
BRANCH  12  18
ATOM     18  C   UNL     1      49.299   8.051  11.537  0.00  0.00    +0.000 C 
BRANCH  18  19
ATOM     19  N   UNL     1      50.618   7.431  11.540  0.00  0.00    +0.000 NA
ATOM     20  H   UNL     1      51.323   8.140  11.348  0.00  0.00    +0.000 HD
ATOM     21  H   UNL     1      50.671   6.759  10.775  0.00  0.00    +0.000 HD
ENDBRANCH  18  19
ENDBRANCH  12  18
ENDBRANCH   1  16
TORSDOF 4
ENDMDL
MODEL 6
REMARK VINA RESULT:    -6.502      1.917      3.410
REMARK INTER + INTRA:          -8.164
REMARK INTER:                  -7.622
REMARK INTRA:                  -0.542
REMARK UNBOUND:                -0.331
REMARK  Name = 
REMARK  4 active torsions:
REMARK  status: ('A' for Active; 'I' for Inactive)
REMARK    1  A    between atoms: N_1  and  C_2
REMARK    2  A    between atoms: C_2  and  C_3
REMARK    3  A    between atoms: C_7  and  C_8
REMARK    4  A    between atoms: C_8  and  C_9
REMARK                            x       y       z     vdW  Elec       q    Type
REMARK                         _______ _______ _______ _____ _____    ______ ____
ROOT
ATOM      1  C   UNL     1      44.725   6.187  11.333  0.00  0.00    +0.000 C 
ENDROOT
BRANCH   1   2
ATOM      2  C   UNL     1      46.073   6.458  11.926  0.00  0.00    +0.000 A 
ATOM      3  C   UNL     1      47.075   7.343  11.554  0.00  0.00    +0.000 A 
ATOM      4  N   UNL     1      48.092   7.268  12.474  0.00  0.00    +0.000 N 
ATOM      5  C   UNL     1      47.782   6.346  13.435  0.00  0.00    +0.000 A 
ATOM      6  N   UNL     1      48.547   6.061  14.504  0.00  0.00    +0.000 NA
ATOM      7  C   UNL     1      48.005   5.107  15.297  0.00  0.00    +0.000 A 
ATOM      8  C   UNL     1      46.816   4.431  15.057  0.00  0.00    +0.000 A 
ATOM      9  C   UNL     1      46.065   4.765  13.930  0.00  0.00    +0.000 A 
ATOM     10  C   UNL     1      46.559   5.784  13.096  0.00  0.00    +0.000 A 
ATOM     11  H   UNL     1      48.940   7.812  12.478  0.00  0.00    +0.000 HD
ENDBRANCH   1   2
BRANCH   1  16
ATOM     12  C   UNL     1      45.326   3.496   8.696  0.00  0.00    +0.000 A 
ATOM     13  C   UNL     1      44.498   2.516   9.230  0.00  0.00    +0.000 A 
ATOM     14  N   UNL     1      43.808   2.644  10.385  0.00  0.00    +0.000 NA
ATOM     15  C   UNL     1      43.937   3.821  11.038  0.00  0.00    +0.000 A 
ATOM     16  C   UNL     1      44.714   4.884  10.593  0.00  0.00    +0.000 A 
ATOM     17  C   UNL     1      45.427   4.703   9.401  0.00  0.00    +0.000 A 
BRANCH  12  18
ATOM     18  C   UNL     1      46.058   3.273   7.403  0.00  0.00    +0.000 C 
BRANCH  18  19
ATOM     19  N   UNL     1      46.948   4.383   7.087  0.00  0.00    +0.000 NA
ATOM     20  H   UNL     1      47.910   4.052   7.083  0.00  0.00    +0.000 HD
ATOM     21  H   UNL     1      46.887   5.079   7.830  0.00  0.00    +0.000 HD
ENDBRANCH  18  19
ENDBRANCH  12  18
ENDBRANCH   1  16
TORSDOF 4
ENDMDL
MODEL 7
REMARK VINA RESULT:    -5.947      3.093      5.341
REMARK INTER + INTRA:          -7.495
REMARK INTER:                  -6.970
REMARK INTRA:                  -0.525
REMARK UNBOUND:                -0.331
REMARK  Name = 
REMARK  4 active torsions:
REMARK  status: ('A' for Active; 'I' for Inactive)
REMARK    1  A    between atoms: N_1  and  C_2
REMARK    2  A    between atoms: C_2  and  C_3
REMARK    3  A    between atoms: C_7  and  C_8
REMARK    4  A    between atoms: C_8  and  C_9
REMARK                            x       y       z     vdW  Elec       q    Type
REMARK                         _______ _______ _______ _____ _____    ______ ____
ROOT
ATOM      1  C   UNL     1      46.411   6.084  13.264  0.00  0.00    +0.000 C 
ENDROOT
BRANCH   1   2
ATOM      2  C   UNL     1      46.550   7.526  12.884  0.00  0.00    +0.000 A 
ATOM      3  C   UNL     1      45.666   8.591  12.995  0.00  0.00    +0.000 A 
ATOM      4  N   UNL     1      46.302   9.734  12.578  0.00  0.00    +0.000 N 
ATOM      5  C   UNL     1      47.578   9.441  12.187  0.00  0.00    +0.000 A 
ATOM      6  N   UNL     1      48.481  10.344  11.762  0.00  0.00    +0.000 NA
ATOM      7  C   UNL     1      49.669   9.783  11.435  0.00  0.00    +0.000 A 
ATOM      8  C   UNL     1      49.963   8.426  11.471  0.00  0.00    +0.000 A 
ATOM      9  C   UNL     1      48.988   7.535  11.914  0.00  0.00    +0.000 A 
ATOM     10  C   UNL     1      47.749   8.069  12.313  0.00  0.00    +0.000 A 
ATOM     11  H   UNL     1      45.917  10.666  12.569  0.00  0.00    +0.000 HD
ENDBRANCH   1   2
BRANCH   1  16
ATOM     12  C   UNL     1      44.359   4.537  10.444  0.00  0.00    +0.000 A 
ATOM     13  C   UNL     1      43.162   4.390  11.136  0.00  0.00    +0.000 A 
ATOM     14  N   UNL     1      42.989   4.707  12.437  0.00  0.00    +0.000 NA
ATOM     15  C   UNL     1      44.062   5.213  13.085  0.00  0.00    +0.000 A 
ATOM     16  C   UNL     1      45.303   5.430  12.495  0.00  0.00    +0.000 A 
ATOM     17  C   UNL     1      45.445   5.072  11.149  0.00  0.00    +0.000 A 
BRANCH  12  18
ATOM     18  C   UNL     1      44.467   4.162   8.992  0.00  0.00    +0.000 C 
BRANCH  18  19
ATOM     19  N   UNL     1      45.550   4.877   8.329  0.00  0.00    +0.000 NA
ATOM     20  H   UNL     1      45.903   5.603   8.949  0.00  0.00    +0.000 HD
ATOM     21  H   UNL     1      45.179   5.355   7.509  0.00  0.00    +0.000 HD
ENDBRANCH  18  19
ENDBRANCH  12  18
ENDBRANCH   1  16
TORSDOF 4
ENDMDL
MODEL 8
REMARK VINA RESULT:    -5.868      4.306      7.479
REMARK INTER + INTRA:          -7.400
REMARK INTER:                  -6.828
REMARK INTRA:                  -0.572
REMARK UNBOUND:                -0.331
REMARK  Name = 
REMARK  4 active torsions:
REMARK  status: ('A' for Active; 'I' for Inactive)
REMARK    1  A    between atoms: N_1  and  C_2
REMARK    2  A    between atoms: C_2  and  C_3
REMARK    3  A    between atoms: C_7  and  C_8
REMARK    4  A    between atoms: C_8  and  C_9
REMARK                            x       y       z     vdW  Elec       q    Type
REMARK                         _______ _______ _______ _____ _____    ______ ____
ROOT
ATOM      1  C   UNL     1      47.744   5.838  13.135  0.00  0.00    +0.000 C 
ENDROOT
BRANCH   1   2
ATOM      2  C   UNL     1      46.303   6.156  12.882  0.00  0.00    +0.000 A 
ATOM      3  C   UNL     1      45.626   7.368  12.847  0.00  0.00    +0.000 A 
ATOM      4  N   UNL     1      44.320   7.130  12.491  0.00  0.00    +0.000 N 
ATOM      5  C   UNL     1      44.126   5.791  12.302  0.00  0.00    +0.000 A 
ATOM      6  N   UNL     1      42.969   5.229  11.907  0.00  0.00    +0.000 NA
ATOM      7  C   UNL     1      43.050   3.882  11.800  0.00  0.00    +0.000 A 
ATOM      8  C   UNL     1      44.166   3.110  12.097  0.00  0.00    +0.000 A 
ATOM      9  C   UNL     1      45.338   3.745  12.507  0.00  0.00    +0.000 A 
ATOM     10  C   UNL     1      45.323   5.150  12.589  0.00  0.00    +0.000 A 
ATOM     11  H   UNL     1      43.598   7.822  12.361  0.00  0.00    +0.000 HD
ENDBRANCH   1   2
BRANCH   1  16
ATOM     12  C   UNL     1      47.946   5.172  16.887  0.00  0.00    +0.000 A 
ATOM     13  C   UNL     1      48.581   6.352  17.257  0.00  0.00    +0.000 A 
ATOM     14  N   UNL     1      48.982   7.308  16.390  0.00  0.00    +0.000 NA
ATOM     15  C   UNL     1      48.724   7.086  15.082  0.00  0.00    +0.000 A 
ATOM     16  C   UNL     1      48.074   5.958  14.592  0.00  0.00    +0.000 A 
ATOM     17  C   UNL     1      47.690   4.983  15.522  0.00  0.00    +0.000 A 
BRANCH  12  18
ATOM     18  C   UNL     1      47.530   4.159  17.916  0.00  0.00    +0.000 C 
BRANCH  18  19
ATOM     19  N   UNL     1      46.646   3.148  17.351  0.00  0.00    +0.000 NA
ATOM     20  H   UNL     1      46.328   3.453  16.433  0.00  0.00    +0.000 HD
ATOM     21  H   UNL     1      45.812   3.073  17.933  0.00  0.00    +0.000 HD
ENDBRANCH  18  19
ENDBRANCH  12  18
ENDBRANCH   1  16
TORSDOF 4
ENDMDL
MODEL 9
REMARK VINA RESULT:    -5.792      2.234      6.233
REMARK INTER + INTRA:          -7.308
REMARK INTER:                  -6.825
REMARK INTRA:                  -0.483
REMARK UNBOUND:                -0.331
REMARK  Name = 
REMARK  4 active torsions:
REMARK  status: ('A' for Active; 'I' for Inactive)
REMARK    1  A    between atoms: N_1  and  C_2
REMARK    2  A    between atoms: C_2  and  C_3
REMARK    3  A    between atoms: C_7  and  C_8
REMARK    4  A    between atoms: C_8  and  C_9
REMARK                            x       y       z     vdW  Elec       q    Type
REMARK                         _______ _______ _______ _____ _____    ______ ____
ROOT
ATOM      1  C   UNL     1      45.181   6.696  11.673  0.00  0.00    +0.000 C 
ENDROOT
BRANCH   1   2
ATOM      2  C   UNL     1      44.721   5.279  11.524  0.00  0.00    +0.000 A 
ATOM      3  C   UNL     1      44.029   4.445  12.392  0.00  0.00    +0.000 A 
ATOM      4  N   UNL     1      43.774   3.258  11.750  0.00  0.00    +0.000 N 
ATOM      5  C   UNL     1      44.291   3.292  10.485  0.00  0.00    +0.000 A 
ATOM      6  N   UNL     1      44.179   2.303   9.580  0.00  0.00    +0.000 NA
ATOM      7  C   UNL     1      44.785   2.596   8.406  0.00  0.00    +0.000 A 
ATOM      8  C   UNL     1      45.499   3.755   8.127  0.00  0.00    +0.000 A 
ATOM      9  C   UNL     1      45.587   4.745   9.105  0.00  0.00    +0.000 A 
ATOM     10  C   UNL     1      44.934   4.512  10.329  0.00  0.00    +0.000 A 
ATOM     11  H   UNL     1      43.267   2.471  12.123  0.00  0.00    +0.000 HD
ENDBRANCH   1   2
BRANCH   1  16
ATOM     12  C   UNL     1      48.117   6.534  14.104  0.00  0.00    +0.000 A 
ATOM     13  C   UNL     1      49.092   7.054  13.262  0.00  0.00    +0.000 A 
ATOM     14  N   UNL     1      48.882   7.404  11.974  0.00  0.00    +0.000 NA
ATOM     15  C   UNL     1      47.627   7.241  11.501  0.00  0.00    +0.000 A 
ATOM     16  C   UNL     1      46.562   6.755  12.251  0.00  0.00    +0.000 A 
ATOM     17  C   UNL     1      46.827   6.387  13.577  0.00  0.00    +0.000 A 
BRANCH  12  18
ATOM     18  C   UNL     1      48.434   6.172  15.528  0.00  0.00    +0.000 C 
BRANCH  18  19
ATOM     19  N   UNL     1      49.859   6.288  15.810  0.00  0.00    +0.000 NA
ATOM     20  H   UNL     1      50.210   7.158  15.415  0.00  0.00    +0.000 HD
ATOM     21  H   UNL     1      50.354   5.535  15.335  0.00  0.00    +0.000 HD
ENDBRANCH  18  19
ENDBRANCH  12  18
ENDBRANCH   1  16
TORSDOF 4
ENDMDL
