MODEL 1
REMARK VINA RESULT:    -7.797      0.000      0.000
REMARK INTER + INTRA:          -9.681
REMARK INTER:                  -9.165
REMARK INTRA:                  -0.516
REMARK UNBOUND:                -0.516
REMARK  Name = 
REMARK  3 active torsions:
REMARK  status: ('A' for Active; 'I' for Inactive)
REMARK    1  A    between atoms: C_5  and  C_6
REMARK    2  A    between atoms: C_10  and  C_11
REMARK    3  A    between atoms: C_11  and  N_12
REMARK                            x       y       z     vdW  Elec       q    Type
REMARK                         _______ _______ _______ _____ _____    ______ ____
ROOT
ATOM      1  C   UNL     1      45.367   5.404  12.229  0.00  0.00    +0.000 A 
ATOM      2  C   UNL     1      44.194   5.778  12.883  0.00  0.00    +0.000 A 
ATOM      3  C   UNL     1      43.010   5.100  12.607  0.00  0.00    +0.000 A 
ATOM      4  C   UNL     1      43.016   4.066  11.681  0.00  0.00    +0.000 A 
ATOM      5  C   UNL     1      44.211   3.746  11.044  0.00  0.00    +0.000 A 
ATOM      6  N   UNL     1      45.375   4.397  11.317  0.00  0.00    +0.000 NA
ENDROOT
BRANCH   1  11
ATOM      7  C   UNL     1      48.490   7.530  11.876  0.00  0.00    +0.000 A 
ATOM      8  C   UNL     1      49.162   7.133  13.019  0.00  0.00    +0.000 A 
ATOM      9  N   UNL     1      48.659   6.258  13.912  0.00  0.00    +0.000 NA
ATOM     10  C   UNL     1      47.432   5.746  13.634  0.00  0.00    +0.000 A 
ATOM     11  C   UNL     1      46.668   6.043  12.503  0.00  0.00    +0.000 A 
ATOM     12  C   UNL     1      47.232   6.979  11.624  0.00  0.00    +0.000 A 
ENDBRANCH   1  11
BRANCH   5  13
ATOM     13  C   UNL     1      44.247   2.643  10.000  0.00  0.00    +0.000 C 
BRANCH  13  14
ATOM     14  N   UNL     1      44.501   3.174   8.672  0.00  0.00    +0.000 N 
ATOM     15  C   UNL     1      45.626   2.789   7.972  0.00  0.00    +0.000 A 
ATOM     16  C   UNL     1      46.227   1.529   8.057  0.00  0.00    +0.000 A 
ATOM     17  N   UNL     1      47.304   1.147   7.322  0.00  0.00    +0.000 NA
ATOM     18  C   UNL     1      47.756   2.074   6.457  0.00  0.00    +0.000 A 
ATOM     19  C   UNL     1      47.171   3.322   6.350  0.00  0.00    +0.000 A 
ATOM     20  N   UNL     1      46.112   3.704   7.106  0.00  0.00    +0.000 NA
ATOM     21  H   UNL     1      44.341   4.167   8.537  0.00  0.00    +0.000 HD
ENDBRANCH  13  14
ENDBRANCH   5  13
TORSDOF 3
ENDMDL
MODEL 2
REMARK VINA RESULT:    -7.750      1.666      2.169
REMARK INTER + INTRA:          -9.625
REMARK INTER:                  -9.098
REMARK INTRA:                  -0.527
REMARK UNBOUND:                -0.516
REMARK  Name = 
REMARK  3 active torsions:
REMARK  status: ('A' for Active; 'I' for Inactive)
REMARK    1  A    between atoms: C_5  and  C_6
REMARK    2  A    between atoms: C_10  and  C_11
REMARK    3  A    between atoms: C_11  and  N_12
REMARK                            x       y       z     vdW  Elec       q    Type
REMARK                         _______ _______ _______ _____ _____    ______ ____
ROOT
ATOM      1  C   UNL     1      46.359   6.191  12.201  0.00  0.00    +0.000 A 
ATOM      2  C   UNL     1      46.798   5.298  13.178  0.00  0.00    +0.000 A 
ATOM      3  C   UNL     1      46.239   4.025  13.243  0.00  0.00    +0.000 A 
ATOM      4  C   UNL     1      45.250   3.666  12.338  0.00  0.00    +0.000 A 
ATOM      5  C   UNL     1      44.835   4.603  11.396  0.00  0.00    +0.000 A 
ATOM      6  N   UNL     1      45.385   5.846  11.318  0.00  0.00    +0.000 NA
ENDROOT
BRANCH   1  11
ATOM      7  C   UNL     1      48.829   9.016  11.646  0.00  0.00    +0.000 A 
ATOM      8  C   UNL     1      47.985  10.095  11.850  0.00  0.00    +0.000 A 
ATOM      9  N   UNL     1      46.670   9.972  12.115  0.00  0.00    +0.000 NA
ATOM     10  C   UNL     1      46.184   8.705  12.195  0.00  0.00    +0.000 A 
ATOM     11  C   UNL     1      46.935   7.538  12.040  0.00  0.00    +0.000 A 
ATOM     12  C   UNL     1      48.292   7.731  11.740  0.00  0.00    +0.000 A 
ENDBRANCH   1  11
BRANCH   5  13
ATOM     13  C   UNL     1      43.731   4.256  10.413  0.00  0.00    +0.000 C 
BRANCH  13  14
ATOM     14  N   UNL     1      44.183   4.382   9.038  0.00  0.00    +0.000 N 
ATOM     15  C   UNL     1      45.115   3.501   8.527  0.00  0.00    +0.000 A 
ATOM     16  C   UNL     1      45.231   2.159   8.900  0.00  0.00    +0.000 A 
ATOM     17  N   UNL     1      46.120   1.289   8.352  0.00  0.00    +0.000 NA
ATOM     18  C   UNL     1      46.887   1.807   7.374  0.00  0.00    +0.000 A 
ATOM     19  C   UNL     1      46.781   3.129   6.983  0.00  0.00    +0.000 A 
ATOM     20  N   UNL     1      45.910   3.996   7.555  0.00  0.00    +0.000 NA
ATOM     21  H   UNL     1      44.386   5.320   8.705  0.00  0.00    +0.000 HD
ENDBRANCH  13  14
ENDBRANCH   5  13
TORSDOF 3
ENDMDL
MODEL 3
REMARK VINA RESULT:    -7.433      2.563      6.803
REMARK INTER + INTRA:          -9.253
REMARK INTER:                  -8.876
REMARK INTRA:                  -0.377
REMARK UNBOUND:                -0.516
REMARK  Name = 
REMARK  3 active torsions:
REMARK  status: ('A' for Active; 'I' for Inactive)
REMARK    1  A    between atoms: C_5  and  C_6
REMARK    2  A    between atoms: C_10  and  C_11
REMARK    3  A    between atoms: C_11  and  N_12
REMARK                            x       y       z     vdW  Elec       q    Type
REMARK                         _______ _______ _______ _____ _____    ______ ____
ROOT
ATOM      1  C   UNL     1      44.707   4.266  10.656  0.00  0.00    +0.000 A 
ATOM      2  C   UNL     1      43.369   4.639  10.775  0.00  0.00    +0.000 A 
ATOM      3  C   UNL     1      42.915   5.191  11.970  0.00  0.00    +0.000 A 
ATOM      4  C   UNL     1      43.801   5.357  13.026  0.00  0.00    +0.000 A 
ATOM      5  C   UNL     1      45.122   4.950  12.859  0.00  0.00    +0.000 A 
ATOM      6  N   UNL     1      45.576   4.420  11.690  0.00  0.00    +0.000 NA
ENDROOT
BRANCH   1  11
ATOM      7  C   UNL     1      46.017   1.847   8.044  0.00  0.00    +0.000 A 
ATOM      8  C   UNL     1      46.433   2.756   7.086  0.00  0.00    +0.000 A 
ATOM      9  N   UNL     1      46.284   4.089   7.210  0.00  0.00    +0.000 NA
ATOM     10  C   UNL     1      45.705   4.530   8.357  0.00  0.00    +0.000 A 
ATOM     11  C   UNL     1      45.271   3.720   9.409  0.00  0.00    +0.000 A 
ATOM     12  C   UNL     1      45.429   2.340   9.210  0.00  0.00    +0.000 A 
ENDBRANCH   1  11
BRANCH   5  13
ATOM     13  C   UNL     1      46.111   5.084  14.004  0.00  0.00    +0.000 C 
BRANCH  13  14
ATOM     14  N   UNL     1      46.665   3.796  14.384  0.00  0.00    +0.000 N 
ATOM     15  C   UNL     1      47.339   3.653  15.580  0.00  0.00    +0.000 A 
ATOM     16  C   UNL     1      47.046   4.360  16.750  0.00  0.00    +0.000 A 
ATOM     17  N   UNL     1      47.684   4.171  17.935  0.00  0.00    +0.000 NA
ATOM     18  C   UNL     1      48.627   3.210  17.922  0.00  0.00    +0.000 A 
ATOM     19  C   UNL     1      48.925   2.492  16.779  0.00  0.00    +0.000 A 
ATOM     20  N   UNL     1      48.301   2.706  15.594  0.00  0.00    +0.000 NA
ATOM     21  H   UNL     1      47.146   3.273  13.659  0.00  0.00    +0.000 HD
ENDBRANCH  13  14
ENDBRANCH   5  13
TORSDOF 3
ENDMDL
MODEL 4
REMARK VINA RESULT:    -7.187      1.159      6.130
REMARK INTER + INTRA:          -8.964
REMARK INTER:                  -8.446
REMARK INTRA:                  -0.518
REMARK UNBOUND:                -0.516
REMARK  Name = 
REMARK  3 active torsions:
REMARK  status: ('A' for Active; 'I' for Inactive)
REMARK    1  A    between atoms: C_5  and  C_6
REMARK    2  A    between atoms: C_10  and  C_11
REMARK    3  A    between atoms: C_11  and  N_12
REMARK                            x       y       z     vdW  Elec       q    Type
REMARK                         _______ _______ _______ _____ _____    ______ ____
ROOT
ATOM      1  C   UNL     1      45.072   3.071   9.451  0.00  0.00    +0.000 A 
ATOM      2  C   UNL     1      44.161   2.226  10.084  0.00  0.00    +0.000 A 
ATOM      3  C   UNL     1      43.429   2.698  11.170  0.00  0.00    +0.000 A 
ATOM      4  C   UNL     1      43.621   4.002  11.608  0.00  0.00    +0.000 A 
ATOM      5  C   UNL     1      44.556   4.796  10.951  0.00  0.00    +0.000 A 
ATOM      6  N   UNL     1      45.268   4.345   9.881  0.00  0.00    +0.000 NA
ENDROOT
BRANCH   1  11
ATOM      7  C   UNL     1      46.779   3.105   6.063  0.00  0.00    +0.000 A 
ATOM      8  C   UNL     1      47.224   1.794   6.023  0.00  0.00    +0.000 A 
ATOM      9  N   UNL     1      47.045   0.917   7.029  0.00  0.00    +0.000 NA
ATOM     10  C   UNL     1      46.372   1.372   8.118  0.00  0.00    +0.000 A 
ATOM     11  C   UNL     1      45.848   2.658   8.267  0.00  0.00    +0.000 A 
ATOM     12  C   UNL     1      46.089   3.534   7.198  0.00  0.00    +0.000 A 
ENDBRANCH   1  11
BRANCH   5  13
ATOM     13  C   UNL     1      44.816   6.215  11.424  0.00  0.00    +0.000 C 
BRANCH  13  14
ATOM     14  N   UNL     1      46.155   6.657  11.074  0.00  0.00    +0.000 N 
ATOM     15  C   UNL     1      47.124   6.788  12.049  0.00  0.00    +0.000 A 
ATOM     16  C   UNL     1      47.217   5.988  13.191  0.00  0.00    +0.000 A 
ATOM     17  N   UNL     1      48.207   6.094  14.117  0.00  0.00    +0.000 NA
ATOM     18  C   UNL     1      49.139   7.026  13.843  0.00  0.00    +0.000 A 
ATOM     19  C   UNL     1      49.071   7.820  12.714  0.00  0.00    +0.000 A 
ATOM     20  N   UNL     1      48.065   7.725  11.810  0.00  0.00    +0.000 NA
ATOM     21  H   UNL     1      46.226   7.431  10.420  0.00  0.00    +0.000 HD
ENDBRANCH  13  14
ENDBRANCH   5  13
TORSDOF 3
ENDMDL
MODEL 5
REMARK VINA RESULT:    -6.907      2.328      6.525
REMARK INTER + INTRA:          -8.635
REMARK INTER:                  -8.175
REMARK INTRA:                  -0.460
REMARK UNBOUND:                -0.516
REMARK  Name = 
REMARK  3 active torsions:
REMARK  status: ('A' for Active; 'I' for Inactive)
REMARK    1  A    between atoms: C_5  and  C_6
REMARK    2  A    between atoms: C_10  and  C_11
REMARK    3  A    between atoms: C_11  and  N_12
REMARK                            x       y       z     vdW  Elec       q    Type
REMARK                         _______ _______ _______ _____ _____    ______ ____
ROOT
ATOM      1  C   UNL     1      44.676   3.395   9.827  0.00  0.00    +0.000 A 
ATOM      2  C   UNL     1      44.063   2.441  10.638  0.00  0.00    +0.000 A 
ATOM      3  C   UNL     1      43.278   2.856  11.711  0.00  0.00    +0.000 A 
ATOM      4  C   UNL     1      43.123   4.213  11.958  0.00  0.00    +0.000 A 
ATOM      5  C   UNL     1      43.772   5.122  11.128  0.00  0.00    +0.000 A 
ATOM      6  N   UNL     1      44.531   4.724  10.070  0.00  0.00    +0.000 NA
ENDROOT
BRANCH   1  11
ATOM      7  C   UNL     1      46.771   1.425   7.353  0.00  0.00    +0.000 A 
ATOM      8  C   UNL     1      47.079   2.439   6.462  0.00  0.00    +0.000 A 
ATOM      9  N   UNL     1      46.625   3.701   6.586  0.00  0.00    +0.000 NA
ATOM     10  C   UNL     1      45.839   3.960   7.664  0.00  0.00    +0.000 A 
ATOM     11  C   UNL     1      45.482   3.034   8.646  0.00  0.00    +0.000 A 
ATOM     12  C   UNL     1      45.963   1.731   8.449  0.00  0.00    +0.000 A 
ENDBRANCH   1  11
BRANCH   5  13
ATOM     13  C   UNL     1      43.651   6.613  11.389  0.00  0.00    +0.000 C 
BRANCH  13  14
ATOM     14  N   UNL     1      44.667   7.075  12.320  0.00  0.00    +0.000 N 
ATOM     15  C   UNL     1      45.296   8.287  12.120  0.00  0.00    +0.000 A 
ATOM     16  C   UNL     1      44.698   9.410  11.540  0.00  0.00    +0.000 A 
ATOM     17  N   UNL     1      45.314  10.613  11.396  0.00  0.00    +0.000 NA
ATOM     18  C   UNL     1      46.566  10.669  11.889  0.00  0.00    +0.000 A 
ATOM     19  C   UNL     1      47.172   9.574  12.476  0.00  0.00    +0.000 A 
ATOM     20  N   UNL     1      46.559   8.370  12.590  0.00  0.00    +0.000 NA
ATOM     21  H   UNL     1      45.346   6.389  12.636  0.00  0.00    +0.000 HD
ENDBRANCH  13  14
ENDBRANCH   5  13
TORSDOF 3
ENDMDL
MODEL 6
REMARK VINA RESULT:    -6.839      1.333      6.030
REMARK INTER + INTRA:          -8.555
REMARK INTER:                  -7.972
REMARK INTRA:                  -0.583
REMARK UNBOUND:                -0.516
REMARK  Name = 
REMARK  3 active torsions:
REMARK  status: ('A' for Active; 'I' for Inactive)
REMARK    1  A    between atoms: C_5  and  C_6
REMARK    2  A    between atoms: C_10  and  C_11
REMARK    3  A    between atoms: C_11  and  N_12
REMARK                            x       y       z     vdW  Elec       q    Type
REMARK                         _______ _______ _______ _____ _____    ______ ____
ROOT
ATOM      1  C   UNL     1      44.747   3.719  10.492  0.00  0.00    +0.000 A 
ATOM      2  C   UNL     1      43.837   2.898  11.157  0.00  0.00    +0.000 A 
ATOM      3  C   UNL     1      43.261   3.337  12.347  0.00  0.00    +0.000 A 
ATOM      4  C   UNL     1      43.607   4.582  12.854  0.00  0.00    +0.000 A 
ATOM      5  C   UNL     1      44.534   5.353  12.159  0.00  0.00    +0.000 A 
ATOM      6  N   UNL     1      45.092   4.936  10.990  0.00  0.00    +0.000 NA
ENDROOT
BRANCH   1  11
ATOM      7  C   UNL     1      46.288   1.685   7.685  0.00  0.00    +0.000 A 
ATOM      8  C   UNL     1      46.610   2.712   6.814  0.00  0.00    +0.000 A 
ATOM      9  N   UNL     1      46.329   4.007   7.055  0.00  0.00    +0.000 NA
ATOM     10  C   UNL     1      45.710   4.285   8.233  0.00  0.00    +0.000 A 
ATOM     11  C   UNL     1      45.361   3.345   9.205  0.00  0.00    +0.000 A 
ATOM     12  C   UNL     1      45.656   2.011   8.887  0.00  0.00    +0.000 A 
ENDBRANCH   1  11
BRANCH   5  13
ATOM     13  C   UNL     1      44.960   6.705  12.703  0.00  0.00    +0.000 C 
BRANCH  13  14
ATOM     14  N   UNL     1      46.035   7.282  11.914  0.00  0.00    +0.000 N 
ATOM     15  C   UNL     1      47.300   7.413  12.450  0.00  0.00    +0.000 A 
ATOM     16  C   UNL     1      47.868   6.536  13.379  0.00  0.00    +0.000 A 
ATOM     17  N   UNL     1      49.134   6.649  13.859  0.00  0.00    +0.000 NA
ATOM     18  C   UNL     1      49.843   7.673  13.348  0.00  0.00    +0.000 A 
ATOM     19  C   UNL     1      49.304   8.547  12.422  0.00  0.00    +0.000 A 
ATOM     20  N   UNL     1      48.031   8.442  11.968  0.00  0.00    +0.000 NA
ATOM     21  H   UNL     1      45.811   8.108  11.368  0.00  0.00    +0.000 HD
ENDBRANCH  13  14
ENDBRANCH   5  13
TORSDOF 3
ENDMDL
MODEL 7
REMARK VINA RESULT:    -6.816      2.283      3.761
REMARK INTER + INTRA:          -8.528
REMARK INTER:                  -8.013
REMARK INTRA:                  -0.515
REMARK UNBOUND:                -0.516
REMARK  Name = 
REMARK  3 active torsions:
REMARK  status: ('A' for Active; 'I' for Inactive)
REMARK    1  A    between atoms: C_5  and  C_6
REMARK    2  A    between atoms: C_10  and  C_11
REMARK    3  A    between atoms: C_11  and  N_12
REMARK                            x       y       z     vdW  Elec       q    Type
REMARK                         _______ _______ _______ _____ _____    ______ ____
ROOT
ATOM      1  C   UNL     1      47.470   5.745  14.078  0.00  0.00    +0.000 A 
ATOM      2  C   UNL     1      48.385   6.633  13.514  0.00  0.00    +0.000 A 
ATOM      3  C   UNL     1      48.107   7.207  12.276  0.00  0.00    +0.000 A 
ATOM      4  C   UNL     1      46.926   6.882  11.622  0.00  0.00    +0.000 A 
ATOM      5  C   UNL     1      46.058   5.976  12.223  0.00  0.00    +0.000 A 
ATOM      6  N   UNL     1      46.317   5.419  13.437  0.00  0.00    +0.000 NA
ENDROOT
BRANCH   1  11
ATOM      7  C   UNL     1      48.768   5.062  17.577  0.00  0.00    +0.000 A 
ATOM      8  C   UNL     1      48.090   3.883  17.841  0.00  0.00    +0.000 A 
ATOM      9  N   UNL     1      47.217   3.319  16.985  0.00  0.00    +0.000 NA
ATOM     10  C   UNL     1      47.029   3.959  15.801  0.00  0.00    +0.000 A 
ATOM     11  C   UNL     1      47.672   5.133  15.404  0.00  0.00    +0.000 A 
ATOM     12  C   UNL     1      48.550   5.688  16.349  0.00  0.00    +0.000 A 
ENDBRANCH   1  11
BRANCH   5  13
ATOM     13  C   UNL     1      44.773   5.572  11.520  0.00  0.00    +0.000 C 
BRANCH  13  14
ATOM     14  N   UNL     1      44.918   5.620  10.075  0.00  0.00    +0.000 N 
ATOM     15  C   UNL     1      45.311   4.497   9.376  0.00  0.00    +0.000 A 
ATOM     16  C   UNL     1      44.996   3.183   9.736  0.00  0.00    +0.000 A 
ATOM     17  N   UNL     1      45.346   2.089   9.010  0.00  0.00    +0.000 NA
ATOM     18  C   UNL     1      46.011   2.356   7.870  0.00  0.00    +0.000 A 
ATOM     19  C   UNL     1      46.324   3.648   7.491  0.00  0.00    +0.000 A 
ATOM     20  N   UNL     1      45.994   4.732   8.236  0.00  0.00    +0.000 NA
ATOM     21  H   UNL     1      45.378   6.439   9.688  0.00  0.00    +0.000 HD
ENDBRANCH  13  14
ENDBRANCH   5  13
TORSDOF 3
ENDMDL
MODEL 8
REMARK VINA RESULT:    -6.713      2.317      2.945
REMARK INTER + INTRA:          -8.407
REMARK INTER:                  -7.916
REMARK INTRA:                  -0.491
REMARK UNBOUND:                -0.516
REMARK  Name = 
REMARK  3 active torsions:
REMARK  status: ('A' for Active; 'I' for Inactive)
REMARK    1  A    between atoms: C_5  and  C_6
REMARK    2  A    between atoms: C_10  and  C_11
REMARK    3  A    between atoms: C_11  and  N_12
REMARK                            x       y       z     vdW  Elec       q    Type
REMARK                         _______ _______ _______ _____ _____    ______ ____
ROOT
ATOM      1  C   UNL     1      45.064   6.408  12.178  0.00  0.00    +0.000 A 
ATOM      2  C   UNL     1      45.701   5.933  13.323  0.00  0.00    +0.000 A 
ATOM      3  C   UNL     1      45.858   4.561  13.501  0.00  0.00    +0.000 A 
ATOM      4  C   UNL     1      45.374   3.688  12.536  0.00  0.00    +0.000 A 
ATOM      5  C   UNL     1      44.730   4.216  11.420  0.00  0.00    +0.000 A 
ATOM      6  N   UNL     1      44.582   5.556  11.235  0.00  0.00    +0.000 NA
ENDROOT
BRANCH   1  11
ATOM      7  C   UNL     1      43.772   9.689  10.778  0.00  0.00    +0.000 A 
ATOM      8  C   UNL     1      44.710  10.550  11.322  0.00  0.00    +0.000 A 
ATOM      9  N   UNL     1      45.703  10.148  12.138  0.00  0.00    +0.000 NA
ATOM     10  C   UNL     1      45.767   8.817  12.406  0.00  0.00    +0.000 A 
ATOM     11  C   UNL     1      44.902   7.846  11.897  0.00  0.00    +0.000 A 
ATOM     12  C   UNL     1      43.873   8.329  11.074  0.00  0.00    +0.000 A 
ENDBRANCH   1  11
BRANCH   5  13
ATOM     13  C   UNL     1      44.158   3.288  10.362  0.00  0.00    +0.000 C 
BRANCH  13  14
ATOM     14  N   UNL     1      45.164   2.369   9.859  0.00  0.00    +0.000 N 
ATOM     15  C   UNL     1      45.721   2.562   8.610  0.00  0.00    +0.000 A 
ATOM     16  C   UNL     1      45.939   3.809   8.018  0.00  0.00    +0.000 A 
ATOM     17  N   UNL     1      46.536   3.985   6.810  0.00  0.00    +0.000 NA
ATOM     18  C   UNL     1      46.946   2.851   6.211  0.00  0.00    +0.000 A 
ATOM     19  C   UNL     1      46.749   1.608   6.784  0.00  0.00    +0.000 A 
ATOM     20  N   UNL     1      46.128   1.440   7.978  0.00  0.00    +0.000 NA
ATOM     21  H   UNL     1      44.995   1.379  10.006  0.00  0.00    +0.000 HD
ENDBRANCH  13  14
ENDBRANCH   5  13
TORSDOF 3
ENDMDL
MODEL 9
REMARK VINA RESULT:    -6.578      2.722      7.203
REMARK INTER + INTRA:          -8.249
REMARK INTER:                  -7.857
REMARK INTRA:                  -0.391
REMARK UNBOUND:                -0.516
REMARK  Name = 
REMARK  3 active torsions:
REMARK  status: ('A' for Active; 'I' for Inactive)
REMARK    1  A    between atoms: C_5  and  C_6
REMARK    2  A    between atoms: C_10  and  C_11
REMARK    3  A    between atoms: C_11  and  N_12
REMARK                            x       y       z     vdW  Elec       q    Type
REMARK                         _______ _______ _______ _____ _____    ______ ____
ROOT
ATOM      1  C   UNL     1      45.458   5.673  11.156  0.00  0.00    +0.000 A 
ATOM      2  C   UNL     1      44.929   6.954  11.013  0.00  0.00    +0.000 A 
ATOM      3  C   UNL     1      45.274   7.944  11.930  0.00  0.00    +0.000 A 
ATOM      4  C   UNL     1      46.136   7.637  12.974  0.00  0.00    +0.000 A 
ATOM      5  C   UNL     1      46.621   6.336  13.079  0.00  0.00    +0.000 A 
ATOM      6  N   UNL     1      46.297   5.366  12.181  0.00  0.00    +0.000 NA
ENDROOT
BRANCH   1  11
ATOM      7  C   UNL     1      45.263   3.640   7.958  0.00  0.00    +0.000 A 
ATOM      8  C   UNL     1      44.529   2.561   8.423  0.00  0.00    +0.000 A 
ATOM      9  N   UNL     1      44.129   2.429   9.702  0.00  0.00    +0.000 NA
ATOM     10  C   UNL     1      44.467   3.435  10.550  0.00  0.00    +0.000 A 
ATOM     11  C   UNL     1      45.177   4.586  10.200  0.00  0.00    +0.000 A 
ATOM     12  C   UNL     1      45.589   4.655   8.860  0.00  0.00    +0.000 A 
ENDBRANCH   1  11
BRANCH   5  13
ATOM     13  C   UNL     1      47.539   5.956  14.228  0.00  0.00    +0.000 C 
BRANCH  13  14
ATOM     14  N   UNL     1      46.895   5.027  15.140  0.00  0.00    +0.000 N 
ATOM     15  C   UNL     1      47.577   4.543  16.239  0.00  0.00    +0.000 A 
ATOM     16  C   UNL     1      48.540   5.258  16.957  0.00  0.00    +0.000 A 
ATOM     17  N   UNL     1      49.166   4.788  18.068  0.00  0.00    +0.000 NA
ATOM     18  C   UNL     1      48.768   3.564  18.466  0.00  0.00    +0.000 A 
ATOM     19  C   UNL     1      47.811   2.845  17.776  0.00  0.00    +0.000 A 
ATOM     20  N   UNL     1      47.211   3.311  16.652  0.00  0.00    +0.000 NA
ATOM     21  H   UNL     1      46.350   4.278  14.723  0.00  0.00    +0.000 HD
ENDBRANCH  13  14
ENDBRANCH   5  13
TORSDOF 3
ENDMDL
