MODEL 1
REMARK VINA RESULT:    -6.824      0.000      0.000
REMARK INTER + INTRA:          -9.292
REMARK INTER:                  -8.420
REMARK INTRA:                  -0.872
REMARK UNBOUND:                -0.872
REMARK  Name = 
REMARK  7 active torsions:
REMARK  status: ('A' for Active; 'I' for Inactive)
REMARK    1  A    between atoms: C_1  and  C_2
REMARK    2  A    between atoms: C_2  and  C_3
REMARK    3  A    between atoms: C_2  and  C_4
REMARK    4  A    between atoms: C_2  and  C_5
REMARK    5  A    between atoms: C_9  and  C_10
REMARK    6  A    between atoms: N_16  and  C_17
REMARK    7  A    between atoms: C_17  and  C_18
REMARK                            x       y       z     vdW  Elec       q    Type
REMARK                         _______ _______ _______ _____ _____    ______ ____
ROOT
ATOM      1  C   UNL     1      44.541   4.020  11.088  0.00  0.00    +0.000 A 
ATOM      2  N   UNL     1      44.812   2.830  10.558  0.00  0.00    +0.000 NA
ATOM      3  C   UNL     1      45.494   3.058   9.396  0.00  0.00    +0.000 A 
ATOM      4  C   UNL     1      45.998   2.175   8.433  0.00  0.00    +0.000 A 
ATOM      5  C   UNL     1      46.658   2.736   7.333  0.00  0.00    +0.000 A 
ATOM      6  C   UNL     1      46.780   4.126   7.265  0.00  0.00    +0.000 A 
ATOM      7  N   UNL     1      46.301   5.019   8.174  0.00  0.00    +0.000 NA
ATOM      8  C   UNL     1      45.674   4.414   9.203  0.00  0.00    +0.000 A 
ATOM      9  N   UNL     1      45.027   5.021  10.256  0.00  0.00    +0.000 N 
ENDROOT
BRANCH   5  10
ATOM     10  C   UNL     1      47.235   1.943   6.220  0.00  0.00    +0.000 C 
ATOM     11  N   UNL     1      47.901   2.595   5.220  0.00  0.00    +0.000 N 
ATOM     12  O   UNL     1      47.127   0.723   6.188  0.00  0.00    +0.000 OA
ATOM     13  H   UNL     1      48.045   3.588   5.166  0.00  0.00    +0.000 HD
ATOM     14  H   UNL     1      48.286   2.023   4.481  0.00  0.00    +0.000 HD
ENDBRANCH   5  10
BRANCH   1  16
ATOM     15  C   UNL     1      44.937   4.581  13.487  0.00  0.00    +0.000 C 
ATOM     16  C   UNL     1      43.872   4.164  12.458  0.00  0.00    +0.000 C 
ATOM     17  C   UNL     1      43.297   2.790  12.883  0.00  0.00    +0.000 C 
ATOM     18  C   UNL     1      42.697   5.147  12.515  0.00  0.00    +0.000 C 
ENDBRANCH   1  16
BRANCH   9  19
ATOM     19  C   UNL     1      44.901   6.469  10.348  0.00  0.00    +0.000 C 
BRANCH  19  20
ATOM     20  C   UNL     1      45.789   7.070  11.419  0.00  0.00    +0.000 A 
ATOM     21  C   UNL     1      47.122   6.644  11.539  0.00  0.00    +0.000 A 
ATOM     22  C   UNL     1      47.941   7.138  12.557  0.00  0.00    +0.000 A 
ATOM     23  C   UNL     1      47.452   8.086  13.452  0.00  0.00    +0.000 A 
ATOM     24  C   UNL     1      46.151   8.561  13.314  0.00  0.00    +0.000 A 
ATOM     25  C   UNL     1      45.333   8.069  12.298  0.00  0.00    +0.000 A 
ENDBRANCH  19  20
ENDBRANCH   9  19
TORSDOF 4
ENDMDL
MODEL 2
REMARK VINA RESULT:    -5.954      3.051      5.148
REMARK INTER + INTRA:          -8.218
REMARK INTER:                  -7.624
REMARK INTRA:                  -0.594
REMARK UNBOUND:                -0.872
REMARK  Name = 
REMARK  7 active torsions:
REMARK  status: ('A' for Active; 'I' for Inactive)
REMARK    1  A    between atoms: C_1  and  C_2
REMARK    2  A    between atoms: C_2  and  C_3
REMARK    3  A    between atoms: C_2  and  C_4
REMARK    4  A    between atoms: C_2  and  C_5
REMARK    5  A    between atoms: C_9  and  C_10
REMARK    6  A    between atoms: N_16  and  C_17
REMARK    7  A    between atoms: C_17  and  C_18
REMARK                            x       y       z     vdW  Elec       q    Type
REMARK                         _______ _______ _______ _____ _____    ______ ____
ROOT
ATOM      1  C   UNL     1      47.758   6.647  14.111  0.00  0.00    +0.000 A 
ATOM      2  N   UNL     1      47.232   5.433  14.248  0.00  0.00    +0.000 NA
ATOM      3  C   UNL     1      46.498   5.188  13.122  0.00  0.00    +0.000 A 
ATOM      4  C   UNL     1      45.718   4.085  12.749  0.00  0.00    +0.000 A 
ATOM      5  C   UNL     1      45.076   4.146  11.506  0.00  0.00    +0.000 A 
ATOM      6  C   UNL     1      45.254   5.286  10.717  0.00  0.00    +0.000 A 
ATOM      7  N   UNL     1      45.996   6.379  11.043  0.00  0.00    +0.000 NA
ATOM      8  C   UNL     1      46.581   6.258  12.251  0.00  0.00    +0.000 A 
ATOM      9  N   UNL     1      47.345   7.199  12.904  0.00  0.00    +0.000 N 
ENDROOT
BRANCH   5  10
ATOM     10  C   UNL     1      44.205   3.072  10.971  0.00  0.00    +0.000 C 
ATOM     11  N   UNL     1      44.698   2.242  10.004  0.00  0.00    +0.000 N 
ATOM     12  O   UNL     1      43.060   2.919  11.382  0.00  0.00    +0.000 OA
ATOM     13  H   UNL     1      45.622   2.287   9.612  0.00  0.00    +0.000 HD
ATOM     14  H   UNL     1      44.079   1.517   9.666  0.00  0.00    +0.000 HD
ENDBRANCH   5  10
BRANCH   1  16
ATOM     15  C   UNL     1      48.700   6.356  16.404  0.00  0.00    +0.000 C 
ATOM     16  C   UNL     1      48.736   7.227  15.136  0.00  0.00    +0.000 C 
ATOM     17  C   UNL     1      48.275   8.657  15.516  0.00  0.00    +0.000 C 
ATOM     18  C   UNL     1      50.185   7.368  14.656  0.00  0.00    +0.000 C 
ENDBRANCH   1  16
BRANCH   9  19
ATOM     19  C   UNL     1      47.573   8.525  12.346  0.00  0.00    +0.000 C 
BRANCH  19  20
ATOM     20  C   UNL     1      48.981   8.707  11.815  0.00  0.00    +0.000 A 
ATOM     21  C   UNL     1      49.672   7.605  11.285  0.00  0.00    +0.000 A 
ATOM     22  C   UNL     1      50.993   7.734  10.847  0.00  0.00    +0.000 A 
ATOM     23  C   UNL     1      51.632   8.971  10.903  0.00  0.00    +0.000 A 
ATOM     24  C   UNL     1      50.942  10.085  11.372  0.00  0.00    +0.000 A 
ATOM     25  C   UNL     1      49.625   9.956  11.809  0.00  0.00    +0.000 A 
ENDBRANCH  19  20
ENDBRANCH   9  19
TORSDOF 4
ENDMDL
MODEL 3
REMARK VINA RESULT:    -5.871      4.319      6.496
REMARK INTER + INTRA:          -8.116
REMARK INTER:                  -7.621
REMARK INTRA:                  -0.494
REMARK UNBOUND:                -0.872
REMARK  Name = 
REMARK  7 active torsions:
REMARK  status: ('A' for Active; 'I' for Inactive)
REMARK    1  A    between atoms: C_1  and  C_2
REMARK    2  A    between atoms: C_2  and  C_3
REMARK    3  A    between atoms: C_2  and  C_4
REMARK    4  A    between atoms: C_2  and  C_5
REMARK    5  A    between atoms: C_9  and  C_10
REMARK    6  A    between atoms: N_16  and  C_17
REMARK    7  A    between atoms: C_17  and  C_18
REMARK                            x       y       z     vdW  Elec       q    Type
REMARK                         _______ _______ _______ _____ _____    ______ ____
ROOT
ATOM      1  C   UNL     1      45.891   4.874  12.799  0.00  0.00    +0.000 A 
ATOM      2  N   UNL     1      45.812   4.192  13.938  0.00  0.00    +0.000 NA
ATOM      3  C   UNL     1      46.798   4.669  14.756  0.00  0.00    +0.000 A 
ATOM      4  C   UNL     1      47.183   4.298  16.050  0.00  0.00    +0.000 A 
ATOM      5  C   UNL     1      48.257   4.991  16.623  0.00  0.00    +0.000 A 
ATOM      6  C   UNL     1      48.868   6.005  15.880  0.00  0.00    +0.000 A 
ATOM      7  N   UNL     1      48.529   6.393  14.620  0.00  0.00    +0.000 NA
ATOM      8  C   UNL     1      47.495   5.683  14.128  0.00  0.00    +0.000 A 
ATOM      9  N   UNL     1      46.944   5.778  12.869  0.00  0.00    +0.000 N 
ENDROOT
BRANCH   5  10
ATOM     10  C   UNL     1      48.797   4.713  17.975  0.00  0.00    +0.000 C 
ATOM     11  N   UNL     1      48.092   3.895  18.813  0.00  0.00    +0.000 N 
ATOM     12  O   UNL     1      49.859   5.199  18.347  0.00  0.00    +0.000 OA
ATOM     13  H   UNL     1      47.219   3.447  18.593  0.00  0.00    +0.000 HD
ATOM     14  H   UNL     1      48.492   3.721  19.725  0.00  0.00    +0.000 HD
ENDBRANCH   5  10
BRANCH   1  16
ATOM     15  C   UNL     1      43.584   5.447  12.036  0.00  0.00    +0.000 C 
ATOM     16  C   UNL     1      44.872   4.689  11.671  0.00  0.00    +0.000 C 
ATOM     17  C   UNL     1      44.531   3.183  11.545  0.00  0.00    +0.000 C 
ATOM     18  C   UNL     1      45.344   5.129  10.280  0.00  0.00    +0.000 C 
ENDBRANCH   1  16
BRANCH   9  19
ATOM     19  C   UNL     1      47.489   6.674  11.859  0.00  0.00    +0.000 C 
BRANCH  19  20
ATOM     20  C   UNL     1      46.972   8.093  11.991  0.00  0.00    +0.000 A 
ATOM     21  C   UNL     1      45.591   8.325  12.089  0.00  0.00    +0.000 A 
ATOM     22  C   UNL     1      45.087   9.627  12.150  0.00  0.00    +0.000 A 
ATOM     23  C   UNL     1      45.956  10.715  12.144  0.00  0.00    +0.000 A 
ATOM     24  C   UNL     1      47.331  10.502  12.103  0.00  0.00    +0.000 A 
ATOM     25  C   UNL     1      47.834   9.203  12.044  0.00  0.00    +0.000 A 
ENDBRANCH  19  20
ENDBRANCH   9  19
TORSDOF 4
ENDMDL
MODEL 4
REMARK VINA RESULT:    -5.726      3.100      5.902
REMARK INTER + INTRA:          -7.936
REMARK INTER:                  -7.767
REMARK INTRA:                  -0.169
REMARK UNBOUND:                -0.872
REMARK  Name = 
REMARK  7 active torsions:
REMARK  status: ('A' for Active; 'I' for Inactive)
REMARK    1  A    between atoms: C_1  and  C_2
REMARK    2  A    between atoms: C_2  and  C_3
REMARK    3  A    between atoms: C_2  and  C_4
REMARK    4  A    between atoms: C_2  and  C_5
REMARK    5  A    between atoms: C_9  and  C_10
REMARK    6  A    between atoms: N_16  and  C_17
REMARK    7  A    between atoms: C_17  and  C_18
REMARK                            x       y       z     vdW  Elec       q    Type
REMARK                         _______ _______ _______ _____ _____    ______ ____
ROOT
ATOM      1  C   UNL     1      44.796   5.022  12.377  0.00  0.00    +0.000 A 
ATOM      2  N   UNL     1      45.547   5.147  13.468  0.00  0.00    +0.000 NA
ATOM      3  C   UNL     1      46.645   5.879  13.114  0.00  0.00    +0.000 A 
ATOM      4  C   UNL     1      47.762   6.284  13.855  0.00  0.00    +0.000 A 
ATOM      5  C   UNL     1      48.736   7.037  13.186  0.00  0.00    +0.000 A 
ATOM      6  C   UNL     1      48.534   7.342  11.838  0.00  0.00    +0.000 A 
ATOM      7  N   UNL     1      47.467   6.964  11.080  0.00  0.00    +0.000 NA
ATOM      8  C   UNL     1      46.574   6.240  11.782  0.00  0.00    +0.000 A 
ATOM      9  N   UNL     1      45.421   5.655  11.308  0.00  0.00    +0.000 N 
ENDROOT
BRANCH   5  10
ATOM     10  C   UNL     1      49.982   7.531  13.820  0.00  0.00    +0.000 C 
ATOM     11  N   UNL     1      50.203   7.260  15.142  0.00  0.00    +0.000 N 
ATOM     12  O   UNL     1      50.810   8.169  13.180  0.00  0.00    +0.000 OA
ATOM     13  H   UNL     1      49.587   6.741  15.742  0.00  0.00    +0.000 HD
ATOM     14  H   UNL     1      51.066   7.607  15.540  0.00  0.00    +0.000 HD
ENDBRANCH   5  10
BRANCH   1  16
ATOM     15  C   UNL     1      42.397   5.277  11.738  0.00  0.00    +0.000 C 
ATOM     16  C   UNL     1      43.422   4.348  12.410  0.00  0.00    +0.000 C 
ATOM     17  C   UNL     1      42.999   4.144  13.887  0.00  0.00    +0.000 C 
ATOM     18  C   UNL     1      43.355   2.961  11.760  0.00  0.00    +0.000 C 
ENDBRANCH   1  16
BRANCH   9  19
ATOM     19  C   UNL     1      45.050   5.718   9.901  0.00  0.00    +0.000 C 
BRANCH  19  20
ATOM     20  C   UNL     1      45.543   4.524   9.108  0.00  0.00    +0.000 A 
ATOM     21  C   UNL     1      46.401   4.722   8.014  0.00  0.00    +0.000 A 
ATOM     22  C   UNL     1      46.819   3.643   7.230  0.00  0.00    +0.000 A 
ATOM     23  C   UNL     1      46.412   2.349   7.545  0.00  0.00    +0.000 A 
ATOM     24  C   UNL     1      45.608   2.129   8.659  0.00  0.00    +0.000 A 
ATOM     25  C   UNL     1      45.191   3.205   9.442  0.00  0.00    +0.000 A 
ENDBRANCH  19  20
ENDBRANCH   9  19
TORSDOF 4
ENDMDL
MODEL 5
REMARK VINA RESULT:    -5.653      4.742      7.617
REMARK INTER + INTRA:          -7.846
REMARK INTER:                  -6.932
REMARK INTRA:                  -0.914
REMARK UNBOUND:                -0.872
REMARK  Name = 
REMARK  7 active torsions:
REMARK  status: ('A' for Active; 'I' for Inactive)
REMARK    1  A    between atoms: C_1  and  C_2
REMARK    2  A    between atoms: C_2  and  C_3
REMARK    3  A    between atoms: C_2  and  C_4
REMARK    4  A    between atoms: C_2  and  C_5
REMARK    5  A    between atoms: C_9  and  C_10
REMARK    6  A    between atoms: N_16  and  C_17
REMARK    7  A    between atoms: C_17  and  C_18
REMARK                            x       y       z     vdW  Elec       q    Type
REMARK                         _______ _______ _______ _____ _____    ______ ____
ROOT
ATOM      1  C   UNL     1      47.533   6.535  13.643  0.00  0.00    +0.000 A 
ATOM      2  N   UNL     1      47.973   6.926  14.837  0.00  0.00    +0.000 NA
ATOM      3  C   UNL     1      48.009   5.815  15.631  0.00  0.00    +0.000 A 
ATOM      4  C   UNL     1      48.366   5.653  16.976  0.00  0.00    +0.000 A 
ATOM      5  C   UNL     1      48.291   4.360  17.507  0.00  0.00    +0.000 A 
ATOM      6  C   UNL     1      47.878   3.318  16.672  0.00  0.00    +0.000 A 
ATOM      7  N   UNL     1      47.518   3.432  15.364  0.00  0.00    +0.000 NA
ATOM      8  C   UNL     1      47.607   4.701  14.919  0.00  0.00    +0.000 A 
ATOM      9  N   UNL     1      47.263   5.171  13.672  0.00  0.00    +0.000 N 
ENDROOT
BRANCH   5  10
ATOM     10  C   UNL     1      48.618   4.021  18.913  0.00  0.00    +0.000 C 
ATOM     11  N   UNL     1      48.252   2.798  19.401  0.00  0.00    +0.000 N 
ATOM     12  O   UNL     1      49.210   4.815  19.636  0.00  0.00    +0.000 OA
ATOM     13  H   UNL     1      47.772   2.083  18.883  0.00  0.00    +0.000 HD
ATOM     14  H   UNL     1      48.496   2.598  20.362  0.00  0.00    +0.000 HD
ENDBRANCH   5  10
BRANCH   1  16
ATOM     15  C   UNL     1      48.352   8.712  12.740  0.00  0.00    +0.000 C 
ATOM     16  C   UNL     1      47.460   7.493  12.452  0.00  0.00    +0.000 C 
ATOM     17  C   UNL     1      45.999   7.987  12.295  0.00  0.00    +0.000 C 
ATOM     18  C   UNL     1      47.846   6.889  11.097  0.00  0.00    +0.000 C 
ENDBRANCH   1  16
BRANCH   9  19
ATOM     19  C   UNL     1      46.683   4.303  12.657  0.00  0.00    +0.000 C 
BRANCH  19  20
ATOM     20  C   UNL     1      45.231   4.628  12.364  0.00  0.00    +0.000 A 
ATOM     21  C   UNL     1      44.803   4.760  11.033  0.00  0.00    +0.000 A 
ATOM     22  C   UNL     1      43.485   5.120  10.740  0.00  0.00    +0.000 A 
ATOM     23  C   UNL     1      42.568   5.322  11.768  0.00  0.00    +0.000 A 
ATOM     24  C   UNL     1      42.962   5.141  13.091  0.00  0.00    +0.000 A 
ATOM     25  C   UNL     1      44.277   4.781  13.384  0.00  0.00    +0.000 A 
ENDBRANCH  19  20
ENDBRANCH   9  19
TORSDOF 4
ENDMDL
MODEL 6
REMARK VINA RESULT:    -5.557      4.356      6.298
REMARK INTER + INTRA:          -7.728
REMARK INTER:                  -6.915
REMARK INTRA:                  -0.813
REMARK UNBOUND:                -0.872
REMARK  Name = 
REMARK  7 active torsions:
REMARK  status: ('A' for Active; 'I' for Inactive)
REMARK    1  A    between atoms: C_1  and  C_2
REMARK    2  A    between atoms: C_2  and  C_3
REMARK    3  A    between atoms: C_2  and  C_4
REMARK    4  A    between atoms: C_2  and  C_5
REMARK    5  A    between atoms: C_9  and  C_10
REMARK    6  A    between atoms: N_16  and  C_17
REMARK    7  A    between atoms: C_17  and  C_18
REMARK                            x       y       z     vdW  Elec       q    Type
REMARK                         _______ _______ _______ _____ _____    ______ ____
ROOT
ATOM      1  C   UNL     1      47.845   4.850  16.125  0.00  0.00    +0.000 A 
ATOM      2  N   UNL     1      46.824   4.406  15.397  0.00  0.00    +0.000 NA
ATOM      3  C   UNL     1      46.830   5.115  14.229  0.00  0.00    +0.000 A 
ATOM      4  C   UNL     1      45.974   5.076  13.121  0.00  0.00    +0.000 A 
ATOM      5  C   UNL     1      46.254   5.951  12.064  0.00  0.00    +0.000 A 
ATOM      6  C   UNL     1      47.362   6.796  12.172  0.00  0.00    +0.000 A 
ATOM      7  N   UNL     1      48.216   6.868  13.231  0.00  0.00    +0.000 NA
ATOM      8  C   UNL     1      47.886   6.006  14.213  0.00  0.00    +0.000 A 
ATOM      9  N   UNL     1      48.499   5.866  15.438  0.00  0.00    +0.000 N 
ENDROOT
BRANCH   5  10
ATOM     10  C   UNL     1      45.439   6.046  10.829  0.00  0.00    +0.000 C 
ATOM     11  N   UNL     1      44.349   6.870  10.818  0.00  0.00    +0.000 N 
ATOM     12  O   UNL     1      45.730   5.404   9.826  0.00  0.00    +0.000 OA
ATOM     13  H   UNL     1      44.039   7.438  11.587  0.00  0.00    +0.000 HD
ATOM     14  H   UNL     1      43.820   6.916   9.958  0.00  0.00    +0.000 HD
ENDBRANCH   5  10
BRANCH   1  16
ATOM     15  C   UNL     1      47.539   2.840  17.573  0.00  0.00    +0.000 C 
ATOM     16  C   UNL     1      48.222   4.215  17.466  0.00  0.00    +0.000 C 
ATOM     17  C   UNL     1      47.692   5.111  18.613  0.00  0.00    +0.000 C 
ATOM     18  C   UNL     1      49.726   4.056  17.718  0.00  0.00    +0.000 C 
ENDBRANCH   1  16
BRANCH   9  19
ATOM     19  C   UNL     1      49.603   6.723  15.846  0.00  0.00    +0.000 C 
BRANCH  19  20
ATOM     20  C   UNL     1      49.179   7.808  16.815  0.00  0.00    +0.000 A 
ATOM     21  C   UNL     1      49.714   7.829  18.114  0.00  0.00    +0.000 A 
ATOM     22  C   UNL     1      49.292   8.781  19.044  0.00  0.00    +0.000 A 
ATOM     23  C   UNL     1      48.354   9.746  18.684  0.00  0.00    +0.000 A 
ATOM     24  C   UNL     1      47.856   9.774  17.385  0.00  0.00    +0.000 A 
ATOM     25  C   UNL     1      48.277   8.824  16.456  0.00  0.00    +0.000 A 
ENDBRANCH  19  20
ENDBRANCH   9  19
TORSDOF 4
ENDMDL
MODEL 7
REMARK VINA RESULT:    -5.476      4.405      6.558
REMARK INTER + INTRA:          -7.629
REMARK INTER:                  -7.034
REMARK INTRA:                  -0.595
REMARK UNBOUND:                -0.872
REMARK  Name = 
REMARK  7 active torsions:
REMARK  status: ('A' for Active; 'I' for Inactive)
REMARK    1  A    between atoms: C_1  and  C_2
REMARK    2  A    between atoms: C_2  and  C_3
REMARK    3  A    between atoms: C_2  and  C_4
REMARK    4  A    between atoms: C_2  and  C_5
REMARK    5  A    between atoms: C_9  and  C_10
REMARK    6  A    between atoms: N_16  and  C_17
REMARK    7  A    between atoms: C_17  and  C_18
REMARK                            x       y       z     vdW  Elec       q    Type
REMARK                         _______ _______ _______ _____ _____    ______ ____
ROOT
ATOM      1  C   UNL     1      46.128   5.023  12.970  0.00  0.00    +0.000 A 
ATOM      2  N   UNL     1      46.349   3.870  13.598  0.00  0.00    +0.000 NA
ATOM      3  C   UNL     1      47.112   4.155  14.695  0.00  0.00    +0.000 A 
ATOM      4  C   UNL     1      47.652   3.324  15.685  0.00  0.00    +0.000 A 
ATOM      5  C   UNL     1      48.406   3.936  16.694  0.00  0.00    +0.000 A 
ATOM      6  C   UNL     1      48.567   5.324  16.658  0.00  0.00    +0.000 A 
ATOM      7  N   UNL     1      48.065   6.166  15.714  0.00  0.00    +0.000 NA
ATOM      8  C   UNL     1      47.356   5.513  14.772  0.00  0.00    +0.000 A 
ATOM      9  N   UNL     1      46.768   6.052  13.650  0.00  0.00    +0.000 N 
ENDROOT
BRANCH   5  10
ATOM     10  C   UNL     1      49.057   3.200  17.804  0.00  0.00    +0.000 C 
ATOM     11  N   UNL     1      48.411   3.110  19.006  0.00  0.00    +0.000 N 
ATOM     12  O   UNL     1      50.154   2.673  17.659  0.00  0.00    +0.000 OA
ATOM     13  H   UNL     1      47.510   3.503  19.215  0.00  0.00    +0.000 HD
ATOM     14  H   UNL     1      48.881   2.596  19.739  0.00  0.00    +0.000 HD
ENDBRANCH   5  10
BRANCH   1  16
ATOM     15  C   UNL     1      43.924   5.851  12.143  0.00  0.00    +0.000 C 
ATOM     16  C   UNL     1      45.215   5.116  11.745  0.00  0.00    +0.000 C 
ATOM     17  C   UNL     1      44.838   3.684  11.289  0.00  0.00    +0.000 C 
ATOM     18  C   UNL     1      45.831   5.798  10.517  0.00  0.00    +0.000 C 
ENDBRANCH   1  16
BRANCH   9  19
ATOM     19  C   UNL     1      46.902   7.463  13.316  0.00  0.00    +0.000 C 
BRANCH  19  20
ATOM     20  C   UNL     1      48.315   7.843  12.919  0.00  0.00    +0.000 A 
ATOM     21  C   UNL     1      48.881   7.297  11.756  0.00  0.00    +0.000 A 
ATOM     22  C   UNL     1      50.203   7.583  11.403  0.00  0.00    +0.000 A 
ATOM     23  C   UNL     1      50.967   8.442  12.189  0.00  0.00    +0.000 A 
ATOM     24  C   UNL     1      50.404   9.035  13.314  0.00  0.00    +0.000 A 
ATOM     25  C   UNL     1      49.085   8.751  13.667  0.00  0.00    +0.000 A 
ENDBRANCH  19  20
ENDBRANCH   9  19
TORSDOF 4
ENDMDL
MODEL 8
REMARK VINA RESULT:    -5.424      3.714      6.499
REMARK INTER + INTRA:          -7.564
REMARK INTER:                  -6.987
REMARK INTRA:                  -0.576
REMARK UNBOUND:                -0.872
REMARK  Name = 
REMARK  7 active torsions:
REMARK  status: ('A' for Active; 'I' for Inactive)
REMARK    1  A    between atoms: C_1  and  C_2
REMARK    2  A    between atoms: C_2  and  C_3
REMARK    3  A    between atoms: C_2  and  C_4
REMARK    4  A    between atoms: C_2  and  C_5
REMARK    5  A    between atoms: C_9  and  C_10
REMARK    6  A    between atoms: N_16  and  C_17
REMARK    7  A    between atoms: C_17  and  C_18
REMARK                            x       y       z     vdW  Elec       q    Type
REMARK                         _______ _______ _______ _____ _____    ______ ____
ROOT
ATOM      1  C   UNL     1      48.595   8.078  12.971  0.00  0.00    +0.000 A 
ATOM      2  N   UNL     1      47.677   7.686  12.091  0.00  0.00    +0.000 NA
ATOM      3  C   UNL     1      47.145   6.520  12.564  0.00  0.00    +0.000 A 
ATOM      4  C   UNL     1      46.168   5.669  12.032  0.00  0.00    +0.000 A 
ATOM      5  C   UNL     1      45.840   4.528  12.775  0.00  0.00    +0.000 A 
ATOM      6  C   UNL     1      46.494   4.312  13.991  0.00  0.00    +0.000 A 
ATOM      7  N   UNL     1      47.451   5.109  14.540  0.00  0.00    +0.000 NA
ATOM      8  C   UNL     1      47.722   6.184  13.773  0.00  0.00    +0.000 A 
ATOM      9  N   UNL     1      48.674   7.152  14.004  0.00  0.00    +0.000 N 
ENDROOT
BRANCH   5  10
ATOM     10  C   UNL     1      44.839   3.520  12.347  0.00  0.00    +0.000 C 
ATOM     11  N   UNL     1      45.039   2.848  11.174  0.00  0.00    +0.000 N 
ATOM     12  O   UNL     1      43.848   3.282  13.027  0.00  0.00    +0.000 OA
ATOM     13  H   UNL     1      45.822   2.971  10.557  0.00  0.00    +0.000 HD
ATOM     14  H   UNL     1      44.340   2.164  10.916  0.00  0.00    +0.000 HD
ENDBRANCH   5  10
BRANCH   1  16
ATOM     15  C   UNL     1      48.628  10.465  13.698  0.00  0.00    +0.000 C 
ATOM     16  C   UNL     1      49.337   9.410  12.830  0.00  0.00    +0.000 C 
ATOM     17  C   UNL     1      49.267   9.870  11.352  0.00  0.00    +0.000 C 
ATOM     18  C   UNL     1      50.827   9.374  13.189  0.00  0.00    +0.000 C 
ENDBRANCH   1  16
BRANCH   9  19
ATOM     19  C   UNL     1      49.578   7.083  15.144  0.00  0.00    +0.000 C 
BRANCH  19  20
ATOM     20  C   UNL     1      48.929   7.532  16.438  0.00  0.00    +0.000 A 
ATOM     21  C   UNL     1      48.735   6.606  17.476  0.00  0.00    +0.000 A 
ATOM     22  C   UNL     1      48.083   6.980  18.654  0.00  0.00    +0.000 A 
ATOM     23  C   UNL     1      47.644   8.290  18.825  0.00  0.00    +0.000 A 
ATOM     24  C   UNL     1      47.877   9.234  17.830  0.00  0.00    +0.000 A 
ATOM     25  C   UNL     1      48.528   8.861  16.654  0.00  0.00    +0.000 A 
ENDBRANCH  19  20
ENDBRANCH   9  19
TORSDOF 4
ENDMDL
MODEL 9
REMARK VINA RESULT:    -5.392      4.767      7.216
REMARK INTER + INTRA:          -7.525
REMARK INTER:                  -6.900
REMARK INTRA:                  -0.626
REMARK UNBOUND:                -0.872
REMARK  Name = 
REMARK  7 active torsions:
REMARK  status: ('A' for Active; 'I' for Inactive)
REMARK    1  A    between atoms: C_1  and  C_2
REMARK    2  A    between atoms: C_2  and  C_3
REMARK    3  A    between atoms: C_2  and  C_4
REMARK    4  A    between atoms: C_2  and  C_5
REMARK    5  A    between atoms: C_9  and  C_10
REMARK    6  A    between atoms: N_16  and  C_17
REMARK    7  A    between atoms: C_17  and  C_18
REMARK                            x       y       z     vdW  Elec       q    Type
REMARK                         _______ _______ _______ _____ _____    ______ ____
ROOT
ATOM      1  C   UNL     1      49.084   6.857  15.341  0.00  0.00    +0.000 A 
ATOM      2  N   UNL     1      48.783   7.108  14.069  0.00  0.00    +0.000 NA
ATOM      3  C   UNL     1      47.776   6.252  13.723  0.00  0.00    +0.000 A 
ATOM      4  C   UNL     1      47.099   6.065  12.511  0.00  0.00    +0.000 A 
ATOM      5  C   UNL     1      46.100   5.084  12.480  0.00  0.00    +0.000 A 
ATOM      6  C   UNL     1      45.835   4.364  13.648  0.00  0.00    +0.000 A 
ATOM      7  N   UNL     1      46.471   4.510  14.843  0.00  0.00    +0.000 NA
ATOM      8  C   UNL     1      47.422   5.463  14.801  0.00  0.00    +0.000 A 
ATOM      9  N   UNL     1      48.287   5.821  15.812  0.00  0.00    +0.000 N 
ENDROOT
BRANCH   5  10
ATOM     10  C   UNL     1      45.302   4.752  11.275  0.00  0.00    +0.000 C 
ATOM     11  N   UNL     1      45.113   5.713  10.322  0.00  0.00    +0.000 N 
ATOM     12  O   UNL     1      44.815   3.637  11.123  0.00  0.00    +0.000 OA
ATOM     13  H   UNL     1      45.478   6.649  10.357  0.00  0.00    +0.000 HD
ATOM     14  H   UNL     1      44.569   5.451   9.511  0.00  0.00    +0.000 HD
ENDBRANCH   5  10
BRANCH   1  16
ATOM     15  C   UNL     1      50.184   9.094  15.472  0.00  0.00    +0.000 C 
ATOM     16  C   UNL     1      50.104   7.698  16.114  0.00  0.00    +0.000 C 
ATOM     17  C   UNL     1      51.497   7.030  15.998  0.00  0.00    +0.000 C 
ATOM     18  C   UNL     1      49.832   7.844  17.616  0.00  0.00    +0.000 C 
ENDBRANCH   1  16
BRANCH   9  19
ATOM     19  C   UNL     1      48.299   5.128  17.093  0.00  0.00    +0.000 C 
BRANCH  19  20
ATOM     20  C   UNL     1      49.332   4.020  17.153  0.00  0.00    +0.000 A 
ATOM     21  C   UNL     1      49.008   2.740  16.677  0.00  0.00    +0.000 A 
ATOM     22  C   UNL     1      49.922   1.688  16.779  0.00  0.00    +0.000 A 
ATOM     23  C   UNL     1      51.182   1.905  17.329  0.00  0.00    +0.000 A 
ATOM     24  C   UNL     1      51.540   3.181  17.755  0.00  0.00    +0.000 A 
ATOM     25  C   UNL     1      50.629   4.231  17.653  0.00  0.00    +0.000 A 
ENDBRANCH  19  20
ENDBRANCH   9  19
TORSDOF 4
ENDMDL
