MODEL 1
REMARK VINA RESULT:    -8.014      0.000      0.000
REMARK INTER + INTRA:         -12.717
REMARK INTER:                 -11.294
REMARK INTRA:                  -1.423
REMARK UNBOUND:                -1.423
REMARK  Name = 
REMARK  7 active torsions:
REMARK  status: ('A' for Active; 'I' for Inactive)
REMARK    1  A    between atoms: C_2  and  C_4
REMARK    2  A    between atoms: C_9  and  N_10
REMARK    3  A    between atoms: N_10  and  C_11
REMARK    4  A    between atoms: C_11  and  C_12
REMARK    5  A    between atoms: C_16  and  C_17
REMARK    6  A    between atoms: C_21  and  O_22
REMARK    7  A    between atoms: O_22  and  C_23
REMARK                            x       y       z     vdW  Elec       q    Type
REMARK                         _______ _______ _______ _____ _____    ______ ____
ROOT
ATOM      1  C   UNL     1      48.585   7.448  13.555  0.00  0.00    +0.000 C 
ATOM      2  C   UNL     1      49.785   7.842  12.685  0.00  0.00    +0.000 C 
ATOM      3  C   UNL     1      49.216   8.824  13.648  0.00  0.00    +0.000 C 
ENDROOT
BRANCH   1   4
ATOM      4  C   UNL     1      47.204   7.417  12.895  0.00  0.00    +0.000 A 
ATOM      5  C   UNL     1      46.338   8.518  12.942  0.00  0.00    +0.000 A 
ATOM      6  C   UNL     1      45.134   8.516  12.239  0.00  0.00    +0.000 A 
ATOM      7  C   UNL     1      44.773   7.406  11.471  0.00  0.00    +0.000 A 
ATOM      8  C   UNL     1      45.599   6.273  11.397  0.00  0.00    +0.000 A 
ATOM      9  C   UNL     1      46.789   6.299  12.148  0.00  0.00    +0.000 A 
BRANCH   8  10
ATOM     10  C   UNL     1      45.283   5.123  10.520  0.00  0.00    +0.000 A 
ATOM     11  C   UNL     1      44.567   4.008  10.987  0.00  0.00    +0.000 A 
ATOM     12  C   UNL     1      44.315   2.906  10.165  0.00  0.00    +0.000 A 
ATOM     13  C   UNL     1      44.767   2.895   8.845  0.00  0.00    +0.000 A 
ATOM     14  C   UNL     1      45.489   3.981   8.357  0.00  0.00    +0.000 A 
ATOM     15  C   UNL     1      45.733   5.080   9.188  0.00  0.00    +0.000 A 
BRANCH  14  16
ATOM     16  O   UNL     1      45.987   4.106   7.091  0.00  0.00    +0.000 OA
BRANCH  16  17
ATOM     17  C   UNL     1      46.680   2.980   6.584  0.00  0.00    +0.000 C 
ATOM     18  F   UNL     1      46.876   3.145   5.254  0.00  0.00    +0.000 F 
ATOM     19  F   UNL     1      47.908   2.972   7.162  0.00  0.00    +0.000 F 
ENDBRANCH  16  17
ENDBRANCH  14  16
ENDBRANCH   8  10
ENDBRANCH   1   4
BRANCH   1  20
ATOM     20  N   UNL     1      48.862   6.267  14.404  0.00  0.00    +0.000 N 
ATOM     21  H   UNL     1      48.586   5.397  13.947  0.00  0.00    +0.000 HD
BRANCH  20  27
ATOM     22  C   UNL     1      47.893   5.002  16.261  0.00  0.00    +0.000 A 
ATOM     23  C   UNL     1      47.572   4.897  17.622  0.00  0.00    +0.000 A 
ATOM     24  C   UNL     1      47.964   5.900  18.492  0.00  0.00    +0.000 A 
ATOM     25  C   UNL     1      48.643   6.981  17.962  0.00  0.00    +0.000 A 
ATOM     26  N   UNL     1      48.918   7.142  16.642  0.00  0.00    +0.000 NA
ATOM     27  C   UNL     1      48.535   6.164  15.781  0.00  0.00    +0.000 A 
BRANCH  22  29
ATOM     28  N   UNL     1      46.434   3.951  14.612  0.00  0.00    +0.000 N 
ATOM     29  C   UNL     1      47.533   3.835  15.414  0.00  0.00    +0.000 C 
ATOM     30  O   UNL     1      48.224   2.823  15.382  0.00  0.00    +0.000 OA
ATOM     31  H   UNL     1      46.271   3.223  13.927  0.00  0.00    +0.000 HD
ATOM     32  H   UNL     1      45.972   4.846  14.472  0.00  0.00    +0.000 HD
ENDBRANCH  22  29
ENDBRANCH  20  27
ENDBRANCH   1  20
TORSDOF 7
ENDMDL
MODEL 2
REMARK VINA RESULT:    -7.417      1.428      1.868
REMARK INTER + INTRA:         -11.875
REMARK INTER:                 -10.436
REMARK INTRA:                  -1.439
REMARK UNBOUND:                -1.423
REMARK  Name = 
REMARK  7 active torsions:
REMARK  status: ('A' for Active; 'I' for Inactive)
REMARK    1  A    between atoms: C_2  and  C_4
REMARK    2  A    between atoms: C_9  and  N_10
REMARK    3  A    between atoms: N_10  and  C_11
REMARK    4  A    between atoms: C_11  and  C_12
REMARK    5  A    between atoms: C_16  and  C_17
REMARK    6  A    between atoms: C_21  and  O_22
REMARK    7  A    between atoms: O_22  and  C_23
REMARK                            x       y       z     vdW  Elec       q    Type
REMARK                         _______ _______ _______ _____ _____    ______ ____
ROOT
ATOM      1  C   UNL     1      48.999   8.089  12.672  0.00  0.00    +0.000 C 
ATOM      2  C   UNL     1      50.031   7.702  11.605  0.00  0.00    +0.000 C 
ATOM      3  C   UNL     1      49.723   9.137  11.848  0.00  0.00    +0.000 C 
ENDROOT
BRANCH   1   4
ATOM      4  C   UNL     1      47.518   7.913  12.330  0.00  0.00    +0.000 A 
ATOM      5  C   UNL     1      46.606   8.973  12.425  0.00  0.00    +0.000 A 
ATOM      6  C   UNL     1      45.286   8.825  12.000  0.00  0.00    +0.000 A 
ATOM      7  C   UNL     1      44.853   7.608  11.468  0.00  0.00    +0.000 A 
ATOM      8  C   UNL     1      45.722   6.511  11.361  0.00  0.00    +0.000 A 
ATOM      9  C   UNL     1      47.036   6.688  11.831  0.00  0.00    +0.000 A 
BRANCH   8  10
ATOM     10  C   UNL     1      45.313   5.242  10.719  0.00  0.00    +0.000 A 
ATOM     11  C   UNL     1      44.753   4.184  11.456  0.00  0.00    +0.000 A 
ATOM     12  C   UNL     1      44.414   2.971  10.849  0.00  0.00    +0.000 A 
ATOM     13  C   UNL     1      44.618   2.787   9.482  0.00  0.00    +0.000 A 
ATOM     14  C   UNL     1      45.181   3.813   8.727  0.00  0.00    +0.000 A 
ATOM     15  C   UNL     1      45.514   5.024   9.344  0.00  0.00    +0.000 A 
BRANCH  14  16
ATOM     16  O   UNL     1      45.433   3.772   7.385  0.00  0.00    +0.000 OA
BRANCH  16  17
ATOM     17  C   UNL     1      46.752   3.416   7.013  0.00  0.00    +0.000 C 
ATOM     18  F   UNL     1      46.948   2.104   7.289  0.00  0.00    +0.000 F 
ATOM     19  F   UNL     1      46.837   3.548   5.664  0.00  0.00    +0.000 F 
ENDBRANCH  16  17
ENDBRANCH  14  16
ENDBRANCH   8  10
ENDBRANCH   1   4
BRANCH   1  20
ATOM     20  N   UNL     1      49.361   7.592  14.019  0.00  0.00    +0.000 N 
ATOM     21  H   UNL     1      49.170   6.594  14.118  0.00  0.00    +0.000 HD
BRANCH  20  27
ATOM     22  C   UNL     1      48.741   7.448  16.382  0.00  0.00    +0.000 A 
ATOM     23  C   UNL     1      48.404   8.077  17.589  0.00  0.00    +0.000 A 
ATOM     24  C   UNL     1      48.425   9.460  17.664  0.00  0.00    +0.000 A 
ATOM     25  C   UNL     1      48.761  10.159  16.521  0.00  0.00    +0.000 A 
ATOM     26  N   UNL     1      49.036   9.585  15.322  0.00  0.00    +0.000 NA
ATOM     27  C   UNL     1      49.016   8.230  15.238  0.00  0.00    +0.000 A 
BRANCH  22  29
ATOM     28  N   UNL     1      47.616   5.285  16.462  0.00  0.00    +0.000 N 
ATOM     29  C   UNL     1      48.800   5.963  16.414  0.00  0.00    +0.000 C 
ATOM     30  O   UNL     1      49.864   5.357  16.339  0.00  0.00    +0.000 OA
ATOM     31  H   UNL     1      47.643   4.280  16.334  0.00  0.00    +0.000 HD
ATOM     32  H   UNL     1      46.728   5.758  16.318  0.00  0.00    +0.000 HD
ENDBRANCH  22  29
ENDBRANCH  20  27
ENDBRANCH   1  20
TORSDOF 7
ENDMDL
MODEL 3
REMARK VINA RESULT:    -7.302      1.329      1.801
REMARK INTER + INTRA:         -11.713
REMARK INTER:                 -10.078
REMARK INTRA:                  -1.636
REMARK UNBOUND:                -1.423
REMARK  Name = 
REMARK  7 active torsions:
REMARK  status: ('A' for Active; 'I' for Inactive)
REMARK    1  A    between atoms: C_2  and  C_4
REMARK    2  A    between atoms: C_9  and  N_10
REMARK    3  A    between atoms: N_10  and  C_11
REMARK    4  A    between atoms: C_11  and  C_12
REMARK    5  A    between atoms: C_16  and  C_17
REMARK    6  A    between atoms: C_21  and  O_22
REMARK    7  A    between atoms: O_22  and  C_23
REMARK                            x       y       z     vdW  Elec       q    Type
REMARK                         _______ _______ _______ _____ _____    ______ ____
ROOT
ATOM      1  C   UNL     1      46.797   7.510  12.599  0.00  0.00    +0.000 C 
ATOM      2  C   UNL     1      47.346   8.741  11.868  0.00  0.00    +0.000 C 
ATOM      3  C   UNL     1      46.516   8.917  13.091  0.00  0.00    +0.000 C 
ENDROOT
BRANCH   1   4
ATOM      4  C   UNL     1      45.594   6.792  11.984  0.00  0.00    +0.000 A 
ATOM      5  C   UNL     1      44.291   7.295  12.106  0.00  0.00    +0.000 A 
ATOM      6  C   UNL     1      43.223   6.692  11.443  0.00  0.00    +0.000 A 
ATOM      7  C   UNL     1      43.440   5.569  10.640  0.00  0.00    +0.000 A 
ATOM      8  C   UNL     1      44.723   5.018  10.491  0.00  0.00    +0.000 A 
ATOM      9  C   UNL     1      45.769   5.634  11.203  0.00  0.00    +0.000 A 
BRANCH   8  10
ATOM     10  C   UNL     1      44.993   3.887   9.576  0.00  0.00    +0.000 A 
ATOM     11  C   UNL     1      44.609   2.571   9.889  0.00  0.00    +0.000 A 
ATOM     12  C   UNL     1      44.911   1.502   9.041  0.00  0.00    +0.000 A 
ATOM     13  C   UNL     1      45.600   1.722   7.849  0.00  0.00    +0.000 A 
ATOM     14  C   UNL     1      46.004   3.013   7.517  0.00  0.00    +0.000 A 
ATOM     15  C   UNL     1      45.694   4.077   8.372  0.00  0.00    +0.000 A 
BRANCH  14  16
ATOM     16  O   UNL     1      46.679   3.374   6.385  0.00  0.00    +0.000 OA
BRANCH  16  17
ATOM     17  C   UNL     1      47.609   2.427   5.891  0.00  0.00    +0.000 C 
ATOM     18  F   UNL     1      48.058   2.841   4.682  0.00  0.00    +0.000 F 
ATOM     19  F   UNL     1      48.676   2.440   6.730  0.00  0.00    +0.000 F 
ENDBRANCH  16  17
ENDBRANCH  14  16
ENDBRANCH   8  10
ENDBRANCH   1   4
BRANCH   1  20
ATOM     20  N   UNL     1      47.868   6.592  13.050  0.00  0.00    +0.000 N 
ATOM     21  H   UNL     1      47.821   5.690  12.574  0.00  0.00    +0.000 HD
BRANCH  20  27
ATOM     22  C   UNL     1      47.711   5.217  15.067  0.00  0.00    +0.000 A 
ATOM     23  C   UNL     1      48.058   4.981  16.406  0.00  0.00    +0.000 A 
ATOM     24  C   UNL     1      48.958   5.825  17.034  0.00  0.00    +0.000 A 
ATOM     25  C   UNL     1      49.459   6.886  16.305  0.00  0.00    +0.000 A 
ATOM     26  N   UNL     1      49.101   7.178  15.029  0.00  0.00    +0.000 NA
ATOM     27  C   UNL     1      48.217   6.357  14.405  0.00  0.00    +0.000 A 
BRANCH  22  29
ATOM     28  N   UNL     1      45.478   4.404  14.519  0.00  0.00    +0.000 N 
ATOM     29  C   UNL     1      46.826   4.204  14.434  0.00  0.00    +0.000 C 
ATOM     30  O   UNL     1      47.278   3.255  13.804  0.00  0.00    +0.000 OA
ATOM     31  H   UNL     1      44.877   3.804  13.966  0.00  0.00    +0.000 HD
ATOM     32  H   UNL     1      45.092   5.283  14.854  0.00  0.00    +0.000 HD
ENDBRANCH  22  29
ENDBRANCH  20  27
ENDBRANCH   1  20
TORSDOF 7
ENDMDL
MODEL 4
REMARK VINA RESULT:    -7.142      1.922      2.787
REMARK INTER + INTRA:         -11.488
REMARK INTER:                  -9.722
REMARK INTRA:                  -1.766
REMARK UNBOUND:                -1.423
REMARK  Name = 
REMARK  7 active torsions:
REMARK  status: ('A' for Active; 'I' for Inactive)
REMARK    1  A    between atoms: C_2  and  C_4
REMARK    2  A    between atoms: C_9  and  N_10
REMARK    3  A    between atoms: N_10  and  C_11
REMARK    4  A    between atoms: C_11  and  C_12
REMARK    5  A    between atoms: C_16  and  C_17
REMARK    6  A    between atoms: C_21  and  O_22
REMARK    7  A    between atoms: O_22  and  C_23
REMARK                            x       y       z     vdW  Elec       q    Type
REMARK                         _______ _______ _______ _____ _____    ______ ____
ROOT
ATOM      1  C   UNL     1      49.134   8.215  12.435  0.00  0.00    +0.000 C 
ATOM      2  C   UNL     1      49.959   8.624  11.209  0.00  0.00    +0.000 C 
ATOM      3  C   UNL     1      49.627   9.637  12.247  0.00  0.00    +0.000 C 
ENDROOT
BRANCH   1   4
ATOM      4  C   UNL     1      47.626   8.028  12.251  0.00  0.00    +0.000 A 
ATOM      5  C   UNL     1      46.719   9.076  12.467  0.00  0.00    +0.000 A 
ATOM      6  C   UNL     1      45.363   8.922  12.183  0.00  0.00    +0.000 A 
ATOM      7  C   UNL     1      44.886   7.711  11.674  0.00  0.00    +0.000 A 
ATOM      8  C   UNL     1      45.749   6.627  11.449  0.00  0.00    +0.000 A 
ATOM      9  C   UNL     1      47.104   6.809  11.780  0.00  0.00    +0.000 A 
BRANCH   8  10
ATOM     10  C   UNL     1      45.284   5.367  10.827  0.00  0.00    +0.000 A 
ATOM     11  C   UNL     1      44.653   4.358  11.576  0.00  0.00    +0.000 A 
ATOM     12  C   UNL     1      44.262   3.151  10.989  0.00  0.00    +0.000 A 
ATOM     13  C   UNL     1      44.483   2.925   9.631  0.00  0.00    +0.000 A 
ATOM     14  C   UNL     1      45.115   3.901   8.865  0.00  0.00    +0.000 A 
ATOM     15  C   UNL     1      45.502   5.106   9.462  0.00  0.00    +0.000 A 
BRANCH  14  16
ATOM     16  O   UNL     1      45.392   3.816   7.529  0.00  0.00    +0.000 OA
BRANCH  16  17
ATOM     17  C   UNL     1      46.757   3.650   7.189  0.00  0.00    +0.000 C 
ATOM     18  F   UNL     1      47.169   2.430   7.609  0.00  0.00    +0.000 F 
ATOM     19  F   UNL     1      46.833   3.643   5.834  0.00  0.00    +0.000 F 
ENDBRANCH  16  17
ENDBRANCH  14  16
ENDBRANCH   8  10
ENDBRANCH   1   4
BRANCH   1  20
ATOM     20  N   UNL     1      49.774   7.132  13.216  0.00  0.00    +0.000 N 
ATOM     21  H   UNL     1      49.609   6.215  12.799  0.00  0.00    +0.000 HD
BRANCH  20  27
ATOM     22  C   UNL     1      50.602   7.701  15.447  0.00  0.00    +0.000 A 
ATOM     23  C   UNL     1      50.524   7.569  16.841  0.00  0.00    +0.000 A 
ATOM     24  C   UNL     1      49.507   6.812  17.396  0.00  0.00    +0.000 A 
ATOM     25  C   UNL     1      48.621   6.196  16.534  0.00  0.00    +0.000 A 
ATOM     26  N   UNL     1      48.701   6.255  15.180  0.00  0.00    +0.000 NA
ATOM     27  C   UNL     1      49.697   6.994  14.626  0.00  0.00    +0.000 A 
BRANCH  22  29
ATOM     28  N   UNL     1      51.714   9.873  15.473  0.00  0.00    +0.000 N 
ATOM     29  C   UNL     1      51.654   8.619  14.936  0.00  0.00    +0.000 C 
ATOM     30  O   UNL     1      52.483   8.254  14.109  0.00  0.00    +0.000 OA
ATOM     31  H   UNL     1      52.515  10.447  15.240  0.00  0.00    +0.000 HD
ATOM     32  H   UNL     1      51.174  10.123  16.298  0.00  0.00    +0.000 HD
ENDBRANCH  22  29
ENDBRANCH  20  27
ENDBRANCH   1  20
TORSDOF 7
ENDMDL
MODEL 5
REMARK VINA RESULT:    -7.012      1.876      2.591
REMARK INTER + INTRA:         -11.305
REMARK INTER:                 -10.350
REMARK INTRA:                  -0.955
REMARK UNBOUND:                -1.423
REMARK  Name = 
REMARK  7 active torsions:
REMARK  status: ('A' for Active; 'I' for Inactive)
REMARK    1  A    between atoms: C_2  and  C_4
REMARK    2  A    between atoms: C_9  and  N_10
REMARK    3  A    between atoms: N_10  and  C_11
REMARK    4  A    between atoms: C_11  and  C_12
REMARK    5  A    between atoms: C_16  and  C_17
REMARK    6  A    between atoms: C_21  and  O_22
REMARK    7  A    between atoms: O_22  and  C_23
REMARK                            x       y       z     vdW  Elec       q    Type
REMARK                         _______ _______ _______ _____ _____    ______ ____
ROOT
ATOM      1  C   UNL     1      48.787   6.688  15.666  0.00  0.00    +0.000 C 
ATOM      2  C   UNL     1      50.307   6.653  15.862  0.00  0.00    +0.000 C 
ATOM      3  C   UNL     1      49.544   7.876  16.229  0.00  0.00    +0.000 C 
ENDROOT
BRANCH   1   4
ATOM      4  C   UNL     1      48.255   6.881  14.244  0.00  0.00    +0.000 A 
ATOM      5  C   UNL     1      48.874   7.748  13.334  0.00  0.00    +0.000 A 
ATOM      6  C   UNL     1      48.446   7.825  12.009  0.00  0.00    +0.000 A 
ATOM      7  C   UNL     1      47.386   7.029  11.568  0.00  0.00    +0.000 A 
ATOM      8  C   UNL     1      46.724   6.151  12.440  0.00  0.00    +0.000 A 
ATOM      9  C   UNL     1      47.161   6.127  13.777  0.00  0.00    +0.000 A 
BRANCH   8  10
ATOM     10  C   UNL     1      45.660   5.233  11.976  0.00  0.00    +0.000 A 
ATOM     11  C   UNL     1      44.958   4.400  12.866  0.00  0.00    +0.000 A 
ATOM     12  C   UNL     1      43.988   3.502  12.412  0.00  0.00    +0.000 A 
ATOM     13  C   UNL     1      43.687   3.418  11.053  0.00  0.00    +0.000 A 
ATOM     14  C   UNL     1      44.374   4.222  10.146  0.00  0.00    +0.000 A 
ATOM     15  C   UNL     1      45.341   5.119  10.611  0.00  0.00    +0.000 A 
BRANCH  14  16
ATOM     16  O   UNL     1      44.181   4.247   8.793  0.00  0.00    +0.000 OA
BRANCH  16  17
ATOM     17  C   UNL     1      45.125   3.528   8.020  0.00  0.00    +0.000 C 
ATOM     18  F   UNL     1      46.232   4.291   7.857  0.00  0.00    +0.000 F 
ATOM     19  F   UNL     1      45.500   2.446   8.750  0.00  0.00    +0.000 F 
ENDBRANCH  16  17
ENDBRANCH  14  16
ENDBRANCH   8  10
ENDBRANCH   1   4
BRANCH   1  20
ATOM     20  N   UNL     1      48.092   5.620  16.420  0.00  0.00    +0.000 N 
ATOM     21  H   UNL     1      47.124   5.509  16.115  0.00  0.00    +0.000 HD
BRANCH  20  27
ATOM     22  C   UNL     1      48.847   4.392  18.397  0.00  0.00    +0.000 A 
ATOM     23  C   UNL     1      48.888   4.242  19.791  0.00  0.00    +0.000 A 
ATOM     24  C   UNL     1      48.292   5.199  20.595  0.00  0.00    +0.000 A 
ATOM     25  C   UNL     1      47.658   6.256  19.973  0.00  0.00    +0.000 A 
ATOM     26  N   UNL     1      47.549   6.402  18.627  0.00  0.00    +0.000 NA
ATOM     27  C   UNL     1      48.129   5.468  17.830  0.00  0.00    +0.000 A 
BRANCH  22  29
ATOM     28  N   UNL     1      50.818   2.986  18.092  0.00  0.00    +0.000 N 
ATOM     29  C   UNL     1      49.603   3.383  17.610  0.00  0.00    +0.000 C 
ATOM     30  O   UNL     1      49.137   2.873  16.597  0.00  0.00    +0.000 OA
ATOM     31  H   UNL     1      51.266   2.196  17.645  0.00  0.00    +0.000 HD
ATOM     32  H   UNL     1      51.126   3.241  19.027  0.00  0.00    +0.000 HD
ENDBRANCH  22  29
ENDBRANCH  20  27
ENDBRANCH   1  20
TORSDOF 7
ENDMDL
MODEL 6
REMARK VINA RESULT:    -6.962      2.474      3.555
REMARK INTER + INTRA:         -11.233
REMARK INTER:                  -9.997
REMARK INTRA:                  -1.236
REMARK UNBOUND:                -1.423
REMARK  Name = 
REMARK  7 active torsions:
REMARK  status: ('A' for Active; 'I' for Inactive)
REMARK    1  A    between atoms: C_2  and  C_4
REMARK    2  A    between atoms: C_9  and  N_10
REMARK    3  A    between atoms: N_10  and  C_11
REMARK    4  A    between atoms: C_11  and  C_12
REMARK    5  A    between atoms: C_16  and  C_17
REMARK    6  A    between atoms: C_21  and  O_22
REMARK    7  A    between atoms: O_22  and  C_23
REMARK                            x       y       z     vdW  Elec       q    Type
REMARK                         _______ _______ _______ _____ _____    ______ ____
ROOT
ATOM      1  C   UNL     1      48.061   4.812  16.325  0.00  0.00    +0.000 C 
ATOM      2  C   UNL     1      46.989   4.027  17.090  0.00  0.00    +0.000 C 
ATOM      3  C   UNL     1      48.017   3.297  16.299  0.00  0.00    +0.000 C 
ENDROOT
BRANCH   1   4
ATOM      4  C   UNL     1      47.651   5.489  15.015  0.00  0.00    +0.000 A 
ATOM      5  C   UNL     1      48.262   6.670  14.570  0.00  0.00    +0.000 A 
ATOM      6  C   UNL     1      47.959   7.210  13.321  0.00  0.00    +0.000 A 
ATOM      7  C   UNL     1      47.035   6.574  12.488  0.00  0.00    +0.000 A 
ATOM      8  C   UNL     1      46.387   5.395  12.888  0.00  0.00    +0.000 A 
ATOM      9  C   UNL     1      46.693   4.900  14.169  0.00  0.00    +0.000 A 
BRANCH   8  10
ATOM     10  C   UNL     1      45.474   4.654  11.989  0.00  0.00    +0.000 A 
ATOM     11  C   UNL     1      44.534   3.732  12.481  0.00  0.00    +0.000 A 
ATOM     12  C   UNL     1      43.710   3.002  11.621  0.00  0.00    +0.000 A 
ATOM     13  C   UNL     1      43.798   3.181  10.241  0.00  0.00    +0.000 A 
ATOM     14  C   UNL     1      44.727   4.079   9.722  0.00  0.00    +0.000 A 
ATOM     15  C   UNL     1      45.546   4.807  10.593  0.00  0.00    +0.000 A 
BRANCH  14  16
ATOM     16  O   UNL     1      44.920   4.356   8.398  0.00  0.00    +0.000 OA
BRANCH  16  17
ATOM     17  C   UNL     1      45.992   3.674   7.772  0.00  0.00    +0.000 C 
ATOM     18  F   UNL     1      45.605   3.288   6.533  0.00  0.00    +0.000 F 
ATOM     19  F   UNL     1      46.995   4.574   7.606  0.00  0.00    +0.000 F 
ENDBRANCH  16  17
ENDBRANCH  14  16
ENDBRANCH   8  10
ENDBRANCH   1   4
BRANCH   1  20
ATOM     20  N   UNL     1      48.872   5.678  17.211  0.00  0.00    +0.000 N 
ATOM     21  H   UNL     1      48.946   6.630  16.849  0.00  0.00    +0.000 HD
BRANCH  20  27
ATOM     22  C   UNL     1      50.209   4.942  19.124  0.00  0.00    +0.000 A 
ATOM     23  C   UNL     1      51.450   4.584  19.672  0.00  0.00    +0.000 A 
ATOM     24  C   UNL     1      52.564   4.526  18.853  0.00  0.00    +0.000 A 
ATOM     25  C   UNL     1      52.399   4.851  17.520  0.00  0.00    +0.000 A 
ATOM     26  N   UNL     1      51.226   5.258  16.969  0.00  0.00    +0.000 NA
ATOM     27  C   UNL     1      50.128   5.320  17.766  0.00  0.00    +0.000 A 
BRANCH  22  29
ATOM     28  N   UNL     1      48.612   3.637  20.426  0.00  0.00    +0.000 N 
ATOM     29  C   UNL     1      49.045   4.875  20.045  0.00  0.00    +0.000 C 
ATOM     30  O   UNL     1      48.523   5.886  20.501  0.00  0.00    +0.000 OA
ATOM     31  H   UNL     1      47.921   3.587  21.165  0.00  0.00    +0.000 HD
ATOM     32  H   UNL     1      49.154   2.801  20.225  0.00  0.00    +0.000 HD
ENDBRANCH  22  29
ENDBRANCH  20  27
ENDBRANCH   1  20
TORSDOF 7
ENDMDL
MODEL 7
REMARK VINA RESULT:    -6.932      1.788      2.779
REMARK INTER + INTRA:         -11.191
REMARK INTER:                  -9.586
REMARK INTRA:                  -1.605
REMARK UNBOUND:                -1.423
REMARK  Name = 
REMARK  7 active torsions:
REMARK  status: ('A' for Active; 'I' for Inactive)
REMARK    1  A    between atoms: C_2  and  C_4
REMARK    2  A    between atoms: C_9  and  N_10
REMARK    3  A    between atoms: N_10  and  C_11
REMARK    4  A    between atoms: C_11  and  C_12
REMARK    5  A    between atoms: C_16  and  C_17
REMARK    6  A    between atoms: C_21  and  O_22
REMARK    7  A    between atoms: O_22  and  C_23
REMARK                            x       y       z     vdW  Elec       q    Type
REMARK                         _______ _______ _______ _____ _____    ______ ____
ROOT
ATOM      1  C   UNL     1      46.540   7.427  12.649  0.00  0.00    +0.000 C 
ATOM      2  C   UNL     1      46.944   8.746  11.979  0.00  0.00    +0.000 C 
ATOM      3  C   UNL     1      46.124   8.769  13.220  0.00  0.00    +0.000 C 
ENDROOT
BRANCH   1   4
ATOM      4  C   UNL     1      45.406   6.621  12.011  0.00  0.00    +0.000 A 
ATOM      5  C   UNL     1      44.064   7.005  12.137  0.00  0.00    +0.000 A 
ATOM      6  C   UNL     1      43.055   6.326  11.455  0.00  0.00    +0.000 A 
ATOM      7  C   UNL     1      43.372   5.245  10.628  0.00  0.00    +0.000 A 
ATOM      8  C   UNL     1      44.699   4.812  10.475  0.00  0.00    +0.000 A 
ATOM      9  C   UNL     1      45.685   5.500  11.206  0.00  0.00    +0.000 A 
BRANCH   8  10
ATOM     10  C   UNL     1      45.071   3.730   9.536  0.00  0.00    +0.000 A 
ATOM     11  C   UNL     1      44.617   2.410   9.709  0.00  0.00    +0.000 A 
ATOM     12  C   UNL     1      45.012   1.385   8.845  0.00  0.00    +0.000 A 
ATOM     13  C   UNL     1      45.867   1.655   7.776  0.00  0.00    +0.000 A 
ATOM     14  C   UNL     1      46.342   2.950   7.587  0.00  0.00    +0.000 A 
ATOM     15  C   UNL     1      45.938   3.970   8.456  0.00  0.00    +0.000 A 
BRANCH  14  16
ATOM     16  O   UNL     1      47.178   3.357   6.585  0.00  0.00    +0.000 OA
BRANCH  16  17
ATOM     17  C   UNL     1      47.328   2.459   5.500  0.00  0.00    +0.000 C 
ATOM     18  F   UNL     1      46.262   2.585   4.674  0.00  0.00    +0.000 F 
ATOM     19  F   UNL     1      48.417   2.859   4.797  0.00  0.00    +0.000 F 
ENDBRANCH  16  17
ENDBRANCH  14  16
ENDBRANCH   8  10
ENDBRANCH   1   4
BRANCH   1  20
ATOM     20  N   UNL     1      47.708   6.604  13.035  0.00  0.00    +0.000 N 
ATOM     21  H   UNL     1      47.988   5.967  12.287  0.00  0.00    +0.000 HD
BRANCH  20  27
ATOM     22  C   UNL     1      48.749   6.403  15.241  0.00  0.00    +0.000 A 
ATOM     23  C   UNL     1      48.882   5.730  16.463  0.00  0.00    +0.000 A 
ATOM     24  C   UNL     1      48.065   4.646  16.735  0.00  0.00    +0.000 A 
ATOM     25  C   UNL     1      47.161   4.264  15.763  0.00  0.00    +0.000 A 
ATOM     26  N   UNL     1      47.046   4.856  14.546  0.00  0.00    +0.000 NA
ATOM     27  C   UNL     1      47.845   5.919  14.270  0.00  0.00    +0.000 A 
BRANCH  22  29
ATOM     28  N   UNL     1      50.906   7.443  14.770  0.00  0.00    +0.000 N 
ATOM     29  C   UNL     1      49.586   7.621  15.072  0.00  0.00    +0.000 C 
ATOM     30  O   UNL     1      49.107   8.747  15.137  0.00  0.00    +0.000 OA
ATOM     31  H   UNL     1      51.443   8.260  14.508  0.00  0.00    +0.000 HD
ATOM     32  H   UNL     1      51.272   6.530  14.511  0.00  0.00    +0.000 HD
ENDBRANCH  22  29
ENDBRANCH  20  27
ENDBRANCH   1  20
TORSDOF 7
ENDMDL
MODEL 8
REMARK VINA RESULT:    -6.748      2.096      3.201
REMARK INTER + INTRA:         -10.932
REMARK INTER:                  -9.317
REMARK INTRA:                  -1.615
REMARK UNBOUND:                -1.423
REMARK  Name = 
REMARK  7 active torsions:
REMARK  status: ('A' for Active; 'I' for Inactive)
REMARK    1  A    between atoms: C_2  and  C_4
REMARK    2  A    between atoms: C_9  and  N_10
REMARK    3  A    between atoms: N_10  and  C_11
REMARK    4  A    between atoms: C_11  and  C_12
REMARK    5  A    between atoms: C_16  and  C_17
REMARK    6  A    between atoms: C_21  and  O_22
REMARK    7  A    between atoms: O_22  and  C_23
REMARK                            x       y       z     vdW  Elec       q    Type
REMARK                         _______ _______ _______ _____ _____    ______ ____
ROOT
ATOM      1  C   UNL     1      48.866   7.705  15.418  0.00  0.00    +0.000 C 
ATOM      2  C   UNL     1      49.502   9.028  15.858  0.00  0.00    +0.000 C 
ATOM      3  C   UNL     1      48.083   8.740  16.201  0.00  0.00    +0.000 C 
ENDROOT
BRANCH   1   4
ATOM      4  C   UNL     1      48.455   7.563  13.950  0.00  0.00    +0.000 A 
ATOM      5  C   UNL     1      49.330   7.886  12.903  0.00  0.00    +0.000 A 
ATOM      6  C   UNL     1      48.982   7.642  11.575  0.00  0.00    +0.000 A 
ATOM      7  C   UNL     1      47.746   7.067  11.268  0.00  0.00    +0.000 A 
ATOM      8  C   UNL     1      46.829   6.734  12.278  0.00  0.00    +0.000 A 
ATOM      9  C   UNL     1      47.201   7.026  13.603  0.00  0.00    +0.000 A 
BRANCH   8  10
ATOM     10  C   UNL     1      45.554   6.041  11.985  0.00  0.00    +0.000 A 
ATOM     11  C   UNL     1      44.534   5.928  12.946  0.00  0.00    +0.000 A 
ATOM     12  C   UNL     1      43.353   5.230  12.677  0.00  0.00    +0.000 A 
ATOM     13  C   UNL     1      43.156   4.633  11.433  0.00  0.00    +0.000 A 
ATOM     14  C   UNL     1      44.154   4.719  10.464  0.00  0.00    +0.000 A 
ATOM     15  C   UNL     1      45.331   5.421  10.743  0.00  0.00    +0.000 A 
BRANCH  14  16
ATOM     16  O   UNL     1      44.095   4.187   9.207  0.00  0.00    +0.000 OA
BRANCH  16  17
ATOM     17  C   UNL     1      45.319   3.705   8.681  0.00  0.00    +0.000 C 
ATOM     18  F   UNL     1      45.535   2.452   9.147  0.00  0.00    +0.000 F 
ATOM     19  F   UNL     1      45.162   3.600   7.336  0.00  0.00    +0.000 F 
ENDBRANCH  16  17
ENDBRANCH  14  16
ENDBRANCH   8  10
ENDBRANCH   1   4
BRANCH   1  20
ATOM     20  N   UNL     1      49.585   6.524  15.949  0.00  0.00    +0.000 N 
ATOM     21  H   UNL     1      50.269   6.164  15.281  0.00  0.00    +0.000 HD
BRANCH  20  27
ATOM     22  C   UNL     1      49.109   5.245  17.979  0.00  0.00    +0.000 A 
ATOM     23  C   UNL     1      48.496   4.153  18.611  0.00  0.00    +0.000 A 
ATOM     24  C   UNL     1      47.691   3.304  17.871  0.00  0.00    +0.000 A 
ATOM     25  C   UNL     1      47.549   3.568  16.522  0.00  0.00    +0.000 A 
ATOM     26  N   UNL     1      48.174   4.580  15.868  0.00  0.00    +0.000 NA
ATOM     27  C   UNL     1      48.968   5.417  16.585  0.00  0.00    +0.000 A 
BRANCH  22  29
ATOM     28  N   UNL     1      51.019   5.700  19.428  0.00  0.00    +0.000 N 
ATOM     29  C   UNL     1      49.868   6.169  18.864  0.00  0.00    +0.000 C 
ATOM     30  O   UNL     1      49.515   7.330  19.039  0.00  0.00    +0.000 OA
ATOM     31  H   UNL     1      51.614   6.365  19.906  0.00  0.00    +0.000 HD
ATOM     32  H   UNL     1      51.433   4.819  19.134  0.00  0.00    +0.000 HD
ENDBRANCH  22  29
ENDBRANCH  20  27
ENDBRANCH   1  20
TORSDOF 7
ENDMDL
MODEL 9
REMARK VINA RESULT:    -6.722      1.652      2.355
REMARK INTER + INTRA:         -10.896
REMARK INTER:                  -9.861
REMARK INTRA:                  -1.035
REMARK UNBOUND:                -1.423
REMARK  Name = 
REMARK  7 active torsions:
REMARK  status: ('A' for Active; 'I' for Inactive)
REMARK    1  A    between atoms: C_2  and  C_4
REMARK    2  A    between atoms: C_9  and  N_10
REMARK    3  A    between atoms: N_10  and  C_11
REMARK    4  A    between atoms: C_11  and  C_12
REMARK    5  A    between atoms: C_16  and  C_17
REMARK    6  A    between atoms: C_21  and  O_22
REMARK    7  A    between atoms: O_22  and  C_23
REMARK                            x       y       z     vdW  Elec       q    Type
REMARK                         _______ _______ _______ _____ _____    ______ ____
ROOT
ATOM      1  C   UNL     1      48.310   7.520  14.539  0.00  0.00    +0.000 C 
ATOM      2  C   UNL     1      49.639   7.024  13.958  0.00  0.00    +0.000 C 
ATOM      3  C   UNL     1      49.453   8.472  14.245  0.00  0.00    +0.000 C 
ENDROOT
BRANCH   1   4
ATOM      4  C   UNL     1      47.115   7.637  13.590  0.00  0.00    +0.000 A 
ATOM      5  C   UNL     1      46.572   8.880  13.235  0.00  0.00    +0.000 A 
ATOM      6  C   UNL     1      45.560   8.975  12.281  0.00  0.00    +0.000 A 
ATOM      7  C   UNL     1      45.070   7.823  11.660  0.00  0.00    +0.000 A 
ATOM      8  C   UNL     1      45.572   6.553  11.987  0.00  0.00    +0.000 A 
ATOM      9  C   UNL     1      46.568   6.494  12.978  0.00  0.00    +0.000 A 
BRANCH   8  10
ATOM     10  C   UNL     1      45.135   5.329  11.279  0.00  0.00    +0.000 A 
ATOM     11  C   UNL     1      44.601   4.225  11.967  0.00  0.00    +0.000 A 
ATOM     12  C   UNL     1      44.236   3.054  11.296  0.00  0.00    +0.000 A 
ATOM     13  C   UNL     1      44.387   2.960   9.913  0.00  0.00    +0.000 A 
ATOM     14  C   UNL     1      44.923   4.033   9.205  0.00  0.00    +0.000 A 
ATOM     15  C   UNL     1      45.283   5.201   9.887  0.00  0.00    +0.000 A 
BRANCH  14  16
ATOM     16  O   UNL     1      45.124   4.080   7.854  0.00  0.00    +0.000 OA
BRANCH  16  17
ATOM     17  C   UNL     1      46.291   3.435   7.378  0.00  0.00    +0.000 C 
ATOM     18  F   UNL     1      46.077   3.019   6.107  0.00  0.00    +0.000 F 
ATOM     19  F   UNL     1      47.272   4.371   7.323  0.00  0.00    +0.000 F 
ENDBRANCH  16  17
ENDBRANCH  14  16
ENDBRANCH   8  10
ENDBRANCH   1   4
BRANCH   1  20
ATOM     20  N   UNL     1      47.980   6.877  15.832  0.00  0.00    +0.000 N 
ATOM     21  H   UNL     1      48.180   7.491  16.623  0.00  0.00    +0.000 HD
BRANCH  20  27
ATOM     22  C   UNL     1      49.447   5.348  17.055  0.00  0.00    +0.000 A 
ATOM     23  C   UNL     1      49.807   4.042  17.419  0.00  0.00    +0.000 A 
ATOM     24  C   UNL     1      49.025   2.979  16.999  0.00  0.00    +0.000 A 
ATOM     25  C   UNL     1      47.927   3.262  16.210  0.00  0.00    +0.000 A 
ATOM     26  N   UNL     1      47.583   4.507  15.791  0.00  0.00    +0.000 NA
ATOM     27  C   UNL     1      48.345   5.556  16.197  0.00  0.00    +0.000 A 
BRANCH  22  29
ATOM     28  N   UNL     1      51.590   6.492  17.278  0.00  0.00    +0.000 N 
ATOM     29  C   UNL     1      50.273   6.438  17.636  0.00  0.00    +0.000 C 
ATOM     30  O   UNL     1      49.787   7.299  18.361  0.00  0.00    +0.000 OA
ATOM     31  H   UNL     1      52.118   7.313  17.549  0.00  0.00    +0.000 HD
ATOM     32  H   UNL     1      51.958   5.918  16.525  0.00  0.00    +0.000 HD
ENDBRANCH  22  29
ENDBRANCH  20  27
ENDBRANCH   1  20
TORSDOF 7
ENDMDL
