MODEL 1
REMARK VINA RESULT:    -8.604      0.000      0.000
REMARK INTER + INTRA:         -10.236
REMARK INTER:                 -10.616
REMARK INTRA:                   0.380
REMARK UNBOUND:                 0.380
REMARK  Name = 
REMARK  4 active torsions:
REMARK  status: ('A' for Active; 'I' for Inactive)
REMARK    1  A    between atoms: C_2  and  C_3
REMARK    2  A    between atoms: C_6  and  C_7
REMARK    3  A    between atoms: C_7  and  N_8
REMARK    4  A    between atoms: C_12  and  C_13
REMARK                            x       y       z     vdW  Elec       q    Type
REMARK                         _______ _______ _______ _____ _____    ______ ____
ROOT
ATOM      1  N   UNL     1      44.263   5.150   9.803  0.00  0.00    +0.000 N 
ATOM      2  C   UNL     1      45.001   4.184   9.111  0.00  0.00    +0.000 A 
ATOM      3  C   UNL     1      45.010   2.845   9.484  0.00  0.00    +0.000 A 
ATOM      4  C   UNL     1      45.750   1.920   8.748  0.00  0.00    +0.000 A 
ATOM      5  C   UNL     1      46.474   2.351   7.643  0.00  0.00    +0.000 A 
ATOM      6  C   UNL     1      46.404   3.703   7.329  0.00  0.00    +0.000 A 
ATOM      7  N   UNL     1      45.685   4.617   8.035  0.00  0.00    +0.000 NA
ATOM      8  H   UNL     1      44.489   6.057   9.400  0.00  0.00    +0.000 HD
ENDROOT
BRANCH   5   9
ATOM      9  C   UNL     1      47.306   1.459   6.801  0.00  0.00    +0.000 C 
ATOM     10  N   UNL     1      48.345   2.009   6.101  0.00  0.00    +0.000 N 
ATOM     11  O   UNL     1      47.072   0.262   6.723  0.00  0.00    +0.000 OA
ATOM     12  H   UNL     1      48.618   2.979   6.117  0.00  0.00    +0.000 HD
ATOM     13  H   UNL     1      48.896   1.381   5.531  0.00  0.00    +0.000 HD
ENDBRANCH   5   9
BRANCH   1  14
ATOM     14  C   UNL     1      43.932   5.043  11.231  0.00  0.00    +0.000 C 
ATOM     15  C   UNL     1      42.508   5.302  11.694  0.00  0.00    +0.000 C 
ATOM     16  C   UNL     1      43.016   3.899  11.644  0.00  0.00    +0.000 C 
BRANCH  14  20
ATOM     17  C   UNL     1      47.195   5.923  13.810  0.00  0.00    +0.000 A 
ATOM     18  N   UNL     1      46.869   4.626  13.661  0.00  0.00    +0.000 NA
ATOM     19  C   UNL     1      45.827   4.380  12.838  0.00  0.00    +0.000 A 
ATOM     20  C   UNL     1      45.094   5.344  12.162  0.00  0.00    +0.000 A 
ATOM     21  C   UNL     1      45.523   6.636  12.431  0.00  0.00    +0.000 A 
ATOM     22  N   UNL     1      46.562   6.959  13.233  0.00  0.00    +0.000 NA
BRANCH  17  24
ATOM     23  N   UNL     1      49.268   6.461  15.291  0.00  0.00    +0.000 NA
ATOM     24  C   UNL     1      48.336   6.222  14.633  0.00  0.00    +0.000 C 
ENDBRANCH  17  24
ENDBRANCH  14  20
ENDBRANCH   1  14
TORSDOF 4
ENDMDL
MODEL 2
REMARK VINA RESULT:    -7.484      3.020      6.920
REMARK INTER + INTRA:          -8.854
REMARK INTER:                  -8.776
REMARK INTRA:                  -0.078
REMARK UNBOUND:                 0.380
REMARK  Name = 
REMARK  4 active torsions:
REMARK  status: ('A' for Active; 'I' for Inactive)
REMARK    1  A    between atoms: C_2  and  C_3
REMARK    2  A    between atoms: C_6  and  C_7
REMARK    3  A    between atoms: C_7  and  N_8
REMARK    4  A    between atoms: C_12  and  C_13
REMARK                            x       y       z     vdW  Elec       q    Type
REMARK                         _______ _______ _______ _____ _____    ______ ____
ROOT
ATOM      1  N   UNL     1      44.390   5.936  10.937  0.00  0.00    +0.000 N 
ATOM      2  C   UNL     1      45.306   6.642  11.723  0.00  0.00    +0.000 A 
ATOM      3  C   UNL     1      46.558   6.132  12.047  0.00  0.00    +0.000 A 
ATOM      4  C   UNL     1      47.440   6.886  12.821  0.00  0.00    +0.000 A 
ATOM      5  C   UNL     1      47.053   8.146  13.262  0.00  0.00    +0.000 A 
ATOM      6  C   UNL     1      45.791   8.589  12.886  0.00  0.00    +0.000 A 
ATOM      7  N   UNL     1      44.921   7.867  12.129  0.00  0.00    +0.000 NA
ATOM      8  H   UNL     1      43.524   6.471  10.917  0.00  0.00    +0.000 HD
ENDROOT
BRANCH   5   9
ATOM      9  C   UNL     1      47.903   9.024  14.101  0.00  0.00    +0.000 C 
ATOM     10  N   UNL     1      47.526   9.246  15.398  0.00  0.00    +0.000 N 
ATOM     11  O   UNL     1      48.913   9.546  13.652  0.00  0.00    +0.000 OA
ATOM     12  H   UNL     1      46.720   8.848  15.854  0.00  0.00    +0.000 HD
ATOM     13  H   UNL     1      48.120   9.851  15.949  0.00  0.00    +0.000 HD
ENDBRANCH   5   9
BRANCH   1  14
ATOM     14  C   UNL     1      44.348   4.468  10.867  0.00  0.00    +0.000 C 
ATOM     15  C   UNL     1      44.186   3.659  12.143  0.00  0.00    +0.000 C 
ATOM     16  C   UNL     1      43.025   3.799  11.215  0.00  0.00    +0.000 C 
BRANCH  14  20
ATOM     17  C   UNL     1      46.494   2.790   7.604  0.00  0.00    +0.000 A 
ATOM     18  N   UNL     1      46.388   4.130   7.637  0.00  0.00    +0.000 NA
ATOM     19  C   UNL     1      45.698   4.632   8.684  0.00  0.00    +0.000 A 
ATOM     20  C   UNL     1      45.110   3.881   9.692  0.00  0.00    +0.000 A 
ATOM     21  C   UNL     1      45.277   2.515   9.514  0.00  0.00    +0.000 A 
ATOM     22  N   UNL     1      45.961   1.941   8.500  0.00  0.00    +0.000 NA
BRANCH  17  24
ATOM     23  N   UNL     1      47.909   1.766   5.673  0.00  0.00    +0.000 NA
ATOM     24  C   UNL     1      47.272   2.220   6.536  0.00  0.00    +0.000 C 
ENDBRANCH  17  24
ENDBRANCH  14  20
ENDBRANCH   1  14
TORSDOF 4
ENDMDL
MODEL 3
REMARK VINA RESULT:    -7.083      2.829      6.847
REMARK INTER + INTRA:          -8.359
REMARK INTER:                  -8.784
REMARK INTRA:                   0.425
REMARK UNBOUND:                 0.380
REMARK  Name = 
REMARK  4 active torsions:
REMARK  status: ('A' for Active; 'I' for Inactive)
REMARK    1  A    between atoms: C_2  and  C_3
REMARK    2  A    between atoms: C_6  and  C_7
REMARK    3  A    between atoms: C_7  and  N_8
REMARK    4  A    between atoms: C_12  and  C_13
REMARK                            x       y       z     vdW  Elec       q    Type
REMARK                         _______ _______ _______ _____ _____    ______ ____
ROOT
ATOM      1  N   UNL     1      45.390   3.760  12.448  0.00  0.00    +0.000 N 
ATOM      2  C   UNL     1      45.872   5.040  12.734  0.00  0.00    +0.000 A 
ATOM      3  C   UNL     1      45.125   6.188  12.499  0.00  0.00    +0.000 A 
ATOM      4  C   UNL     1      45.649   7.441  12.819  0.00  0.00    +0.000 A 
ATOM      5  C   UNL     1      46.920   7.525  13.374  0.00  0.00    +0.000 A 
ATOM      6  C   UNL     1      47.599   6.332  13.588  0.00  0.00    +0.000 A 
ATOM      7  N   UNL     1      47.100   5.103  13.284  0.00  0.00    +0.000 NA
ATOM      8  H   UNL     1      46.145   3.099  12.619  0.00  0.00    +0.000 HD
ENDROOT
BRANCH   5   9
ATOM      9  C   UNL     1      47.579   8.802  13.737  0.00  0.00    +0.000 C 
ATOM     10  N   UNL     1      47.497   9.231  15.034  0.00  0.00    +0.000 N 
ATOM     11  O   UNL     1      48.179   9.466  12.903  0.00  0.00    +0.000 OA
ATOM     12  H   UNL     1      47.038   8.743  15.787  0.00  0.00    +0.000 HD
ATOM     13  H   UNL     1      47.952  10.107  15.255  0.00  0.00    +0.000 HD
ENDBRANCH   5   9
BRANCH   1  14
ATOM     14  C   UNL     1      44.401   3.485  11.395  0.00  0.00    +0.000 C 
ATOM     15  C   UNL     1      43.138   2.712  11.732  0.00  0.00    +0.000 C 
ATOM     16  C   UNL     1      43.054   4.186  11.513  0.00  0.00    +0.000 C 
BRANCH  14  20
ATOM     17  C   UNL     1      46.075   3.191   7.498  0.00  0.00    +0.000 A 
ATOM     18  N   UNL     1      45.842   4.430   7.968  0.00  0.00    +0.000 NA
ATOM     19  C   UNL     1      45.307   4.489   9.207  0.00  0.00    +0.000 A 
ATOM     20  C   UNL     1      44.992   3.394   9.998  0.00  0.00    +0.000 A 
ATOM     21  C   UNL     1      45.260   2.184   9.376  0.00  0.00    +0.000 A 
ATOM     22  N   UNL     1      45.802   2.045   8.146  0.00  0.00    +0.000 NA
BRANCH  17  24
ATOM     23  N   UNL     1      47.193   2.999   5.155  0.00  0.00    +0.000 NA
ATOM     24  C   UNL     1      46.698   3.087   6.206  0.00  0.00    +0.000 C 
ENDBRANCH  17  24
ENDBRANCH  14  20
ENDBRANCH   1  14
TORSDOF 4
ENDMDL
MODEL 4
REMARK VINA RESULT:    -6.771      2.713      6.520
REMARK INTER + INTRA:          -7.975
REMARK INTER:                  -7.627
REMARK INTRA:                  -0.348
REMARK UNBOUND:                 0.380
REMARK  Name = 
REMARK  4 active torsions:
REMARK  status: ('A' for Active; 'I' for Inactive)
REMARK    1  A    between atoms: C_2  and  C_3
REMARK    2  A    between atoms: C_6  and  C_7
REMARK    3  A    between atoms: C_7  and  N_8
REMARK    4  A    between atoms: C_12  and  C_13
REMARK                            x       y       z     vdW  Elec       q    Type
REMARK                         _______ _______ _______ _____ _____    ______ ____
ROOT
ATOM      1  N   UNL     1      45.352   5.717  12.169  0.00  0.00    +0.000 N 
ATOM      2  C   UNL     1      46.059   4.983  13.126  0.00  0.00    +0.000 A 
ATOM      3  C   UNL     1      46.323   3.626  12.979  0.00  0.00    +0.000 A 
ATOM      4  C   UNL     1      47.048   2.946  13.957  0.00  0.00    +0.000 A 
ATOM      5  C   UNL     1      47.502   3.638  15.073  0.00  0.00    +0.000 A 
ATOM      6  C   UNL     1      47.208   4.994  15.140  0.00  0.00    +0.000 A 
ATOM      7  N   UNL     1      46.504   5.673  14.194  0.00  0.00    +0.000 NA
ATOM      8  H   UNL     1      45.210   6.654  12.541  0.00  0.00    +0.000 HD
ENDROOT
BRANCH   5   9
ATOM      9  C   UNL     1      48.266   3.013  16.178  0.00  0.00    +0.000 C 
ATOM     10  N   UNL     1      48.144   3.542  17.434  0.00  0.00    +0.000 N 
ATOM     11  O   UNL     1      48.996   2.052  15.980  0.00  0.00    +0.000 OA
ATOM     12  H   UNL     1      47.557   4.320  17.691  0.00  0.00    +0.000 HD
ATOM     13  H   UNL     1      48.678   3.100  18.171  0.00  0.00    +0.000 HD
ENDBRANCH   5   9
BRANCH   1  14
ATOM     14  C   UNL     1      44.345   5.122  11.276  0.00  0.00    +0.000 C 
ATOM     15  C   UNL     1      43.074   4.533  11.864  0.00  0.00    +0.000 C 
ATOM     16  C   UNL     1      43.012   5.848  11.160  0.00  0.00    +0.000 C 
BRANCH  14  20
ATOM     17  C   UNL     1      45.947   3.572   7.657  0.00  0.00    +0.000 A 
ATOM     18  N   UNL     1      45.123   2.768   8.351  0.00  0.00    +0.000 NA
ATOM     19  C   UNL     1      44.634   3.288   9.497  0.00  0.00    +0.000 A 
ATOM     20  C   UNL     1      44.917   4.553   9.989  0.00  0.00    +0.000 A 
ATOM     21  C   UNL     1      45.799   5.260   9.185  0.00  0.00    +0.000 A 
ATOM     22  N   UNL     1      46.322   4.811   8.023  0.00  0.00    +0.000 NA
BRANCH  17  24
ATOM     23  N   UNL     1      46.854   2.671   5.389  0.00  0.00    +0.000 NA
ATOM     24  C   UNL     1      46.443   3.077   6.401  0.00  0.00    +0.000 C 
ENDBRANCH  17  24
ENDBRANCH  14  20
ENDBRANCH   1  14
TORSDOF 4
ENDMDL
MODEL 5
REMARK VINA RESULT:    -6.266      4.065      6.785
REMARK INTER + INTRA:          -7.351
REMARK INTER:                  -7.409
REMARK INTRA:                   0.058
REMARK UNBOUND:                 0.380
REMARK  Name = 
REMARK  4 active torsions:
REMARK  status: ('A' for Active; 'I' for Inactive)
REMARK    1  A    between atoms: C_2  and  C_3
REMARK    2  A    between atoms: C_6  and  C_7
REMARK    3  A    between atoms: C_7  and  N_8
REMARK    4  A    between atoms: C_12  and  C_13
REMARK                            x       y       z     vdW  Elec       q    Type
REMARK                         _______ _______ _______ _____ _____    ______ ____
ROOT
ATOM      1  N   UNL     1      47.105   3.740  15.781  0.00  0.00    +0.000 N 
ATOM      2  C   UNL     1      46.799   4.396  14.585  0.00  0.00    +0.000 A 
ATOM      3  C   UNL     1      47.668   5.302  13.988  0.00  0.00    +0.000 A 
ATOM      4  C   UNL     1      47.319   5.916  12.785  0.00  0.00    +0.000 A 
ATOM      5  C   UNL     1      46.099   5.612  12.194  0.00  0.00    +0.000 A 
ATOM      6  C   UNL     1      45.292   4.688  12.847  0.00  0.00    +0.000 A 
ATOM      7  N   UNL     1      45.619   4.079  14.019  0.00  0.00    +0.000 NA
ATOM      8  H   UNL     1      46.284   3.206  16.059  0.00  0.00    +0.000 HD
ENDROOT
BRANCH   5   9
ATOM      9  C   UNL     1      45.621   6.215  10.928  0.00  0.00    +0.000 C 
ATOM     10  N   UNL     1      44.773   7.287  10.998  0.00  0.00    +0.000 N 
ATOM     11  O   UNL     1      45.967   5.770   9.843  0.00  0.00    +0.000 OA
ATOM     12  H   UNL     1      44.449   7.728  11.844  0.00  0.00    +0.000 HD
ATOM     13  H   UNL     1      44.459   7.679  10.120  0.00  0.00    +0.000 HD
ENDBRANCH   5   9
BRANCH   1  14
ATOM     14  C   UNL     1      47.995   4.304  16.807  0.00  0.00    +0.000 C 
ATOM     15  C   UNL     1      47.988   5.800  17.069  0.00  0.00    +0.000 C 
ATOM     16  C   UNL     1      47.335   4.885  18.050  0.00  0.00    +0.000 C 
BRANCH  14  20
ATOM     17  C   UNL     1      51.529   2.028  17.442  0.00  0.00    +0.000 A 
ATOM     18  N   UNL     1      51.580   3.333  17.763  0.00  0.00    +0.000 NA
ATOM     19  C   UNL     1      50.443   4.029  17.546  0.00  0.00    +0.000 A 
ATOM     20  C   UNL     1      49.267   3.504  17.031  0.00  0.00    +0.000 A 
ATOM     21  C   UNL     1      49.368   2.156  16.721  0.00  0.00    +0.000 A 
ATOM     22  N   UNL     1      50.466   1.393  16.918  0.00  0.00    +0.000 NA
BRANCH  17  24
ATOM     23  N   UNL     1      53.648   0.594  17.923  0.00  0.00    +0.000 NA
ATOM     24  C   UNL     1      52.702   1.240  17.712  0.00  0.00    +0.000 C 
ENDBRANCH  17  24
ENDBRANCH  14  20
ENDBRANCH   1  14
TORSDOF 4
ENDMDL
MODEL 6
REMARK VINA RESULT:    -5.875      3.495      5.386
REMARK INTER + INTRA:          -6.869
REMARK INTER:                  -6.535
REMARK INTRA:                  -0.334
REMARK UNBOUND:                 0.380
REMARK  Name = 
REMARK  4 active torsions:
REMARK  status: ('A' for Active; 'I' for Inactive)
REMARK    1  A    between atoms: C_2  and  C_3
REMARK    2  A    between atoms: C_6  and  C_7
REMARK    3  A    between atoms: C_7  and  N_8
REMARK    4  A    between atoms: C_12  and  C_13
REMARK                            x       y       z     vdW  Elec       q    Type
REMARK                         _______ _______ _______ _____ _____    ______ ____
ROOT
ATOM      1  N   UNL     1      46.899   8.095  12.341  0.00  0.00    +0.000 N 
ATOM      2  C   UNL     1      46.221   6.883  12.172  0.00  0.00    +0.000 A 
ATOM      3  C   UNL     1      46.615   5.713  12.810  0.00  0.00    +0.000 A 
ATOM      4  C   UNL     1      45.893   4.536  12.619  0.00  0.00    +0.000 A 
ATOM      5  C   UNL     1      44.779   4.548  11.788  0.00  0.00    +0.000 A 
ATOM      6  C   UNL     1      44.443   5.759  11.195  0.00  0.00    +0.000 A 
ATOM      7  N   UNL     1      45.136   6.916  11.374  0.00  0.00    +0.000 NA
ATOM      8  H   UNL     1      46.481   8.774  11.707  0.00  0.00    +0.000 HD
ENDROOT
BRANCH   5   9
ATOM      9  C   UNL     1      43.950   3.353  11.502  0.00  0.00    +0.000 C 
ATOM     10  N   UNL     1      43.763   2.437  12.501  0.00  0.00    +0.000 N 
ATOM     11  O   UNL     1      43.447   3.179  10.401  0.00  0.00    +0.000 OA
ATOM     12  H   UNL     1      44.126   2.506  13.439  0.00  0.00    +0.000 HD
ATOM     13  H   UNL     1      43.196   1.629  12.281  0.00  0.00    +0.000 HD
ENDBRANCH   5   9
BRANCH   1  14
ATOM     14  C   UNL     1      48.330   8.181  12.668  0.00  0.00    +0.000 C 
ATOM     15  C   UNL     1      49.360   7.674  11.674  0.00  0.00    +0.000 C 
ATOM     16  C   UNL     1      49.170   9.145  11.841  0.00  0.00    +0.000 C 
BRANCH  14  20
ATOM     17  C   UNL     1      49.175   8.005  16.830  0.00  0.00    +0.000 A 
ATOM     18  N   UNL     1      48.321   8.960  16.423  0.00  0.00    +0.000 NA
ATOM     19  C   UNL     1      48.076   8.992  15.095  0.00  0.00    +0.000 A 
ATOM     20  C   UNL     1      48.629   8.134  14.156  0.00  0.00    +0.000 A 
ATOM     21  C   UNL     1      49.510   7.219  14.714  0.00  0.00    +0.000 A 
ATOM     22  N   UNL     1      49.798   7.121  16.031  0.00  0.00    +0.000 NA
BRANCH  17  24
ATOM     23  N   UNL     1      49.603   7.819  19.392  0.00  0.00    +0.000 NA
ATOM     24  C   UNL     1      49.417   7.901  18.244  0.00  0.00    +0.000 C 
ENDBRANCH  17  24
ENDBRANCH  14  20
ENDBRANCH   1  14
TORSDOF 4
ENDMDL
MODEL 7
REMARK VINA RESULT:    -5.659      3.874      5.667
REMARK INTER + INTRA:          -6.602
REMARK INTER:                  -6.432
REMARK INTRA:                  -0.170
REMARK UNBOUND:                 0.380
REMARK  Name = 
REMARK  4 active torsions:
REMARK  status: ('A' for Active; 'I' for Inactive)
REMARK    1  A    between atoms: C_2  and  C_3
REMARK    2  A    between atoms: C_6  and  C_7
REMARK    3  A    between atoms: C_7  and  N_8
REMARK    4  A    between atoms: C_12  and  C_13
REMARK                            x       y       z     vdW  Elec       q    Type
REMARK                         _______ _______ _______ _____ _____    ______ ____
ROOT
ATOM      1  N   UNL     1      47.695   6.580  13.352  0.00  0.00    +0.000 N 
ATOM      2  C   UNL     1      46.767   5.827  12.626  0.00  0.00    +0.000 A 
ATOM      3  C   UNL     1      46.320   6.209  11.366  0.00  0.00    +0.000 A 
ATOM      4  C   UNL     1      45.405   5.411  10.679  0.00  0.00    +0.000 A 
ATOM      5  C   UNL     1      44.950   4.237  11.265  0.00  0.00    +0.000 A 
ATOM      6  C   UNL     1      45.453   3.919  12.521  0.00  0.00    +0.000 A 
ATOM      7  N   UNL     1      46.347   4.685  13.203  0.00  0.00    +0.000 NA
ATOM      8  H   UNL     1      47.792   6.149  14.270  0.00  0.00    +0.000 HD
ENDROOT
BRANCH   5   9
ATOM      9  C   UNL     1      43.969   3.324  10.632  0.00  0.00    +0.000 C 
ATOM     10  N   UNL     1      44.138   3.001   9.313  0.00  0.00    +0.000 N 
ATOM     11  O   UNL     1      43.024   2.873  11.263  0.00  0.00    +0.000 OA
ATOM     12  H   UNL     1      44.892   3.313   8.722  0.00  0.00    +0.000 HD
ATOM     13  H   UNL     1      43.454   2.379   8.903  0.00  0.00    +0.000 HD
ENDBRANCH   5   9
BRANCH   1  14
ATOM     14  C   UNL     1      47.846   8.035  13.206  0.00  0.00    +0.000 C 
ATOM     15  C   UNL     1      46.622   8.930  13.290  0.00  0.00    +0.000 C 
ATOM     16  C   UNL     1      47.573   8.885  14.440  0.00  0.00    +0.000 C 
BRANCH  14  20
ATOM     17  C   UNL     1      51.185   9.173  10.833  0.00  0.00    +0.000 A 
ATOM     18  N   UNL     1      50.232  10.102  11.029  0.00  0.00    +0.000 NA
ATOM     19  C   UNL     1      49.184   9.709  11.784  0.00  0.00    +0.000 A 
ATOM     20  C   UNL     1      49.030   8.452  12.350  0.00  0.00    +0.000 A 
ATOM     21  C   UNL     1      50.072   7.590  12.043  0.00  0.00    +0.000 A 
ATOM     22  N   UNL     1      51.157   7.914  11.303  0.00  0.00    +0.000 NA
BRANCH  17  24
ATOM     23  N   UNL     1      53.279   9.902   9.469  0.00  0.00    +0.000 NA
ATOM     24  C   UNL     1      52.345   9.571  10.082  0.00  0.00    +0.000 C 
ENDBRANCH  17  24
ENDBRANCH  14  20
ENDBRANCH   1  14
TORSDOF 4
ENDMDL
