MODEL 1
REMARK VINA RESULT:    -8.221      0.000      0.000
REMARK INTER + INTRA:         -12.386
REMARK INTER:                 -11.586
REMARK INTRA:                  -0.800
REMARK UNBOUND:                -0.800
REMARK  Name = 
REMARK  8 active torsions:
REMARK  status: ('A' for Active; 'I' for Inactive)
REMARK    1  A    between atoms: C_1  and  C_2
REMARK    2  A    between atoms: C_2  and  N_3
REMARK    3  A    between atoms: N_3  and  C_4
REMARK    4  A    between atoms: C_4  and  C_5
REMARK    5  A    between atoms: C_8  and  C_9
REMARK    6  A    between atoms: C_9  and  N_10
REMARK    7  A    between atoms: C_11  and  C_13
REMARK    8  A    between atoms: C_21  and  C_23
REMARK                            x       y       z     vdW  Elec       q    Type
REMARK                         _______ _______ _______ _____ _____    ______ ____
ROOT
ATOM      1  C   UNL     1      46.768   6.367  11.957  0.00  0.00    +0.000 C 
ENDROOT
BRANCH   1   2
ATOM      2  C   UNL     1      47.204   5.600  13.172  0.00  0.00    +0.000 A 
ATOM      3  C   UNL     1      47.864   6.256  14.222  0.00  0.00    +0.000 A 
ATOM      4  C   UNL     1      47.999   5.628  15.455  0.00  0.00    +0.000 A 
ATOM      5  C   UNL     1      47.493   4.339  15.601  0.00  0.00    +0.000 A 
ATOM      6  N   UNL     1      46.903   3.667  14.577  0.00  0.00    +0.000 NA
ATOM      7  C   UNL     1      46.771   4.308  13.395  0.00  0.00    +0.000 A 
BRANCH   5   8
ATOM      8  C   UNL     1      47.520   3.650  16.945  0.00  0.00    +0.000 C 
BRANCH   8   9
ATOM      9  N   UNL     1      48.869   3.456  17.444  0.00  0.00    +0.000 N 
ATOM     10  C   UNL     1      49.738   2.541  16.881  0.00  0.00    +0.000 C 
ATOM     11  O   UNL     1      49.366   1.821  15.964  0.00  0.00    +0.000 OA
ATOM     12  H   UNL     1      49.220   4.117  18.121  0.00  0.00    +0.000 HD
BRANCH  10  13
ATOM     13  C   UNL     1      51.075   2.497  17.448  0.00  0.00    +0.000 A 
ATOM     14  S   UNL     1      51.919   1.013  17.689  0.00  0.00    +0.000 S 
ATOM     15  C   UNL     1      53.244   1.876  18.335  0.00  0.00    +0.000 A 
ATOM     16  N   UNL     1      53.114   3.179  18.382  0.00  0.00    +0.000 NA
ATOM     17  C   UNL     1      51.875   3.546  17.876  0.00  0.00    +0.000 A 
ATOM     18 CL   UNL     1      51.480   5.216  17.833  0.00  0.00    +0.000 Cl
ENDBRANCH  10  13
ENDBRANCH   8   9
ENDBRANCH   5   8
ENDBRANCH   1   2
BRANCH   1  19
ATOM     19  N   UNL     1      45.520   7.111  11.894  0.00  0.00    +0.000 N 
ATOM     20  C   UNL     1      44.290   6.498  11.525  0.00  0.00    +0.000 C 
ATOM     21  O   UNL     1      43.275   7.185  11.415  0.00  0.00    +0.000 OA
BRANCH  20  22
ATOM     22  C   UNL     1      44.184   5.016  11.350  0.00  0.00    +0.000 A 
ATOM     23  C   UNL     1      43.427   4.161  12.140  0.00  0.00    +0.000 A 
ATOM     24  S   UNL     1      43.448   2.525  11.673  0.00  0.00    +0.000 S 
ATOM     25  C   UNL     1      44.251   2.919  10.236  0.00  0.00    +0.000 A 
ATOM     26  N   UNL     1      44.386   1.977   9.264  0.00  0.00    +0.000 NA
ATOM     27  C   UNL     1      45.029   2.391   8.226  0.00  0.00    +0.000 A 
ATOM     28  N   UNL     1      45.582   3.638   8.097  0.00  0.00    +0.000 N 
ATOM     29  C   UNL     1      45.473   4.625   9.059  0.00  0.00    +0.000 A 
ATOM     30  O   UNL     1      46.062   5.690   8.922  0.00  0.00    +0.000 OA
ATOM     31  C   UNL     1      44.675   4.237  10.213  0.00  0.00    +0.000 A 
ATOM     32  H   UNL     1      46.139   3.866   7.289  0.00  0.00    +0.000 HD
ENDBRANCH  20  22
BRANCH  19  34
ATOM     33  C   UNL     1      46.778   9.272  12.189  0.00  0.00    +0.000 C 
ATOM     34  C   UNL     1      45.475   8.503  12.368  0.00  0.00    +0.000 C 
ENDBRANCH  19  34
ENDBRANCH   1  19
TORSDOF 7
ENDMDL
MODEL 2
REMARK VINA RESULT:    -7.638      4.014      8.647
REMARK INTER + INTRA:         -11.564
REMARK INTER:                 -10.383
REMARK INTRA:                  -1.182
REMARK UNBOUND:                -0.800
REMARK  Name = 
REMARK  8 active torsions:
REMARK  status: ('A' for Active; 'I' for Inactive)
REMARK    1  A    between atoms: C_1  and  C_2
REMARK    2  A    between atoms: C_2  and  N_3
REMARK    3  A    between atoms: N_3  and  C_4
REMARK    4  A    between atoms: C_4  and  C_5
REMARK    5  A    between atoms: C_8  and  C_9
REMARK    6  A    between atoms: C_9  and  N_10
REMARK    7  A    between atoms: C_11  and  C_13
REMARK    8  A    between atoms: C_21  and  C_23
REMARK                            x       y       z     vdW  Elec       q    Type
REMARK                         _______ _______ _______ _____ _____    ______ ____
ROOT
ATOM      1  C   UNL     1      47.430   7.673  13.923  0.00  0.00    +0.000 C 
ENDROOT
BRANCH   1   2
ATOM      2  C   UNL     1      46.467   6.830  13.140  0.00  0.00    +0.000 A 
ATOM      3  C   UNL     1      45.933   7.304  11.932  0.00  0.00    +0.000 A 
ATOM      4  C   UNL     1      45.289   6.426  11.068  0.00  0.00    +0.000 A 
ATOM      5  C   UNL     1      45.168   5.092  11.447  0.00  0.00    +0.000 A 
ATOM      6  N   UNL     1      45.629   4.628  12.639  0.00  0.00    +0.000 NA
ATOM      7  C   UNL     1      46.264   5.499  13.453  0.00  0.00    +0.000 A 
BRANCH   5   8
ATOM      8  C   UNL     1      44.570   4.075  10.503  0.00  0.00    +0.000 C 
BRANCH   8   9
ATOM      9  N   UNL     1      45.465   3.736   9.411  0.00  0.00    +0.000 N 
ATOM     10  C   UNL     1      45.434   2.503   8.790  0.00  0.00    +0.000 C 
ATOM     11  O   UNL     1      44.673   1.631   9.187  0.00  0.00    +0.000 OA
ATOM     12  H   UNL     1      46.014   4.480   9.006  0.00  0.00    +0.000 HD
BRANCH  10  13
ATOM     13  C   UNL     1      46.348   2.327   7.674  0.00  0.00    +0.000 A 
ATOM     14  S   UNL     1      46.915   3.659   6.737  0.00  0.00    +0.000 S 
ATOM     15  C   UNL     1      47.820   2.585   5.765  0.00  0.00    +0.000 A 
ATOM     16  N   UNL     1      47.740   1.315   6.082  0.00  0.00    +0.000 NA
ATOM     17  C   UNL     1      46.899   1.156   7.175  0.00  0.00    +0.000 A 
ATOM     18 CL   UNL     1      46.644  -0.431   7.775  0.00  0.00    +0.000 Cl
ENDBRANCH  10  13
ENDBRANCH   8   9
ENDBRANCH   5   8
ENDBRANCH   1   2
BRANCH   1  19
ATOM     19  N   UNL     1      48.875   7.549  13.801  0.00  0.00    +0.000 N 
ATOM     20  C   UNL     1      49.752   7.812  14.890  0.00  0.00    +0.000 C 
ATOM     21  O   UNL     1      50.969   7.764  14.718  0.00  0.00    +0.000 OA
BRANCH  20  22
ATOM     22  C   UNL     1      49.225   8.062  16.268  0.00  0.00    +0.000 A 
ATOM     23  C   UNL     1      49.013   9.310  16.838  0.00  0.00    +0.000 A 
ATOM     24  S   UNL     1      48.349   9.294  18.404  0.00  0.00    +0.000 S 
ATOM     25  C   UNL     1      48.063   7.630  18.294  0.00  0.00    +0.000 A 
ATOM     26  N   UNL     1      47.303   7.016  19.241  0.00  0.00    +0.000 NA
ATOM     27  C   UNL     1      47.171   5.747  19.059  0.00  0.00    +0.000 A 
ATOM     28  N   UNL     1      47.763   5.039  18.046  0.00  0.00    +0.000 N 
ATOM     29  C   UNL     1      48.544   5.619  17.064  0.00  0.00    +0.000 A 
ATOM     30  O   UNL     1      49.116   4.921  16.236  0.00  0.00    +0.000 OA
ATOM     31  C   UNL     1      48.648   7.067  17.173  0.00  0.00    +0.000 A 
ATOM     32  H   UNL     1      47.679   4.035  18.010  0.00  0.00    +0.000 HD
ENDBRANCH  20  22
BRANCH  19  34
ATOM     33  C   UNL     1      49.579   7.984  11.423  0.00  0.00    +0.000 C 
ATOM     34  C   UNL     1      49.458   6.990  12.572  0.00  0.00    +0.000 C 
ENDBRANCH  19  34
ENDBRANCH   1  19
TORSDOF 7
ENDMDL
MODEL 3
REMARK VINA RESULT:    -7.221      3.213      8.523
REMARK INTER + INTRA:         -10.977
REMARK INTER:                  -9.558
REMARK INTRA:                  -1.419
REMARK UNBOUND:                -0.800
REMARK  Name = 
REMARK  8 active torsions:
REMARK  status: ('A' for Active; 'I' for Inactive)
REMARK    1  A    between atoms: C_1  and  C_2
REMARK    2  A    between atoms: C_2  and  N_3
REMARK    3  A    between atoms: N_3  and  C_4
REMARK    4  A    between atoms: C_4  and  C_5
REMARK    5  A    between atoms: C_8  and  C_9
REMARK    6  A    between atoms: C_9  and  N_10
REMARK    7  A    between atoms: C_11  and  C_13
REMARK    8  A    between atoms: C_21  and  C_23
REMARK                            x       y       z     vdW  Elec       q    Type
REMARK                         _______ _______ _______ _____ _____    ______ ____
ROOT
ATOM      1  C   UNL     1      49.474   7.406  16.355  0.00  0.00    +0.000 C 
ENDROOT
BRANCH   1   2
ATOM      2  C   UNL     1      48.734   7.481  15.050  0.00  0.00    +0.000 A 
ATOM      3  C   UNL     1      48.509   6.319  14.297  0.00  0.00    +0.000 A 
ATOM      4  C   UNL     1      47.584   6.334  13.260  0.00  0.00    +0.000 A 
ATOM      5  C   UNL     1      46.922   7.526  12.979  0.00  0.00    +0.000 A 
ATOM      6  N   UNL     1      47.171   8.676  13.661  0.00  0.00    +0.000 NA
ATOM      7  C   UNL     1      48.063   8.629  14.674  0.00  0.00    +0.000 A 
BRANCH   5   8
ATOM      8  C   UNL     1      45.834   7.574  11.933  0.00  0.00    +0.000 C 
BRANCH   8   9
ATOM      9  N   UNL     1      45.737   6.341  11.174  0.00  0.00    +0.000 N 
ATOM     10  C   UNL     1      44.591   5.570  11.164  0.00  0.00    +0.000 C 
ATOM     11  O   UNL     1      43.628   5.888  11.849  0.00  0.00    +0.000 OA
ATOM     12  H   UNL     1      46.479   6.132  10.522  0.00  0.00    +0.000 HD
BRANCH  10  13
ATOM     13  C   UNL     1      44.620   4.393  10.312  0.00  0.00    +0.000 A 
ATOM     14  S   UNL     1      45.338   4.417   8.744  0.00  0.00    +0.000 S 
ATOM     15  C   UNL     1      44.922   2.773   8.534  0.00  0.00    +0.000 A 
ATOM     16  N   UNL     1      44.296   2.205   9.535  0.00  0.00    +0.000 NA
ATOM     17  C   UNL     1      44.117   3.124  10.560  0.00  0.00    +0.000 A 
ATOM     18 CL   UNL     1      43.320   2.603  11.987  0.00  0.00    +0.000 Cl
ENDBRANCH  10  13
ENDBRANCH   8   9
ENDBRANCH   5   8
ENDBRANCH   1   2
BRANCH   1  19
ATOM     19  N   UNL     1      48.824   7.576  17.645  0.00  0.00    +0.000 N 
ATOM     20  C   UNL     1      48.214   6.491  18.335  0.00  0.00    +0.000 C 
ATOM     21  O   UNL     1      47.614   6.698  19.389  0.00  0.00    +0.000 OA
BRANCH  20  22
ATOM     22  C   UNL     1      48.360   5.083  17.849  0.00  0.00    +0.000 A 
ATOM     23  C   UNL     1      47.464   4.417  17.024  0.00  0.00    +0.000 A 
ATOM     24  S   UNL     1      47.915   2.836  16.583  0.00  0.00    +0.000 S 
ATOM     25  C   UNL     1      49.453   3.061  17.252  0.00  0.00    +0.000 A 
ATOM     26  N   UNL     1      50.427   2.139  17.020  0.00  0.00    +0.000 NA
ATOM     27  C   UNL     1      51.547   2.411  17.596  0.00  0.00    +0.000 A 
ATOM     28  N   UNL     1      51.763   3.491  18.410  0.00  0.00    +0.000 N 
ATOM     29  C   UNL     1      50.805   4.450  18.678  0.00  0.00    +0.000 A 
ATOM     30  O   UNL     1      51.032   5.345  19.483  0.00  0.00    +0.000 OA
ATOM     31  C   UNL     1      49.547   4.238  17.976  0.00  0.00    +0.000 A 
ATOM     32  H   UNL     1      52.643   3.599  18.890  0.00  0.00    +0.000 HD
ENDBRANCH  20  22
BRANCH  19  34
ATOM     33  C   UNL     1      47.809   9.850  18.016  0.00  0.00    +0.000 C 
ATOM     34  C   UNL     1      48.922   8.865  18.348  0.00  0.00    +0.000 C 
ENDBRANCH  19  34
ENDBRANCH   1  19
TORSDOF 7
ENDMDL
MODEL 4
REMARK VINA RESULT:    -7.208      3.335      8.343
REMARK INTER + INTRA:         -10.958
REMARK INTER:                  -9.250
REMARK INTRA:                  -1.708
REMARK UNBOUND:                -0.800
REMARK  Name = 
REMARK  8 active torsions:
REMARK  status: ('A' for Active; 'I' for Inactive)
REMARK    1  A    between atoms: C_1  and  C_2
REMARK    2  A    between atoms: C_2  and  N_3
REMARK    3  A    between atoms: N_3  and  C_4
REMARK    4  A    between atoms: C_4  and  C_5
REMARK    5  A    between atoms: C_8  and  C_9
REMARK    6  A    between atoms: C_9  and  N_10
REMARK    7  A    between atoms: C_11  and  C_13
REMARK    8  A    between atoms: C_21  and  C_23
REMARK                            x       y       z     vdW  Elec       q    Type
REMARK                         _______ _______ _______ _____ _____    ______ ____
ROOT
ATOM      1  C   UNL     1      49.169   8.204  17.241  0.00  0.00    +0.000 C 
ENDROOT
BRANCH   1   2
ATOM      2  C   UNL     1      48.876   8.111  15.772  0.00  0.00    +0.000 A 
ATOM      3  C   UNL     1      49.166   6.933  15.066  0.00  0.00    +0.000 A 
ATOM      4  C   UNL     1      48.632   6.736  13.798  0.00  0.00    +0.000 A 
ATOM      5  C   UNL     1      47.838   7.739  13.250  0.00  0.00    +0.000 A 
ATOM      6  N   UNL     1      47.593   8.910  13.896  0.00  0.00    +0.000 NA
ATOM      7  C   UNL     1      48.113   9.069  15.134  0.00  0.00    +0.000 A 
BRANCH   5   8
ATOM      8  C   UNL     1      47.148   7.535  11.922  0.00  0.00    +0.000 C 
BRANCH   8   9
ATOM      9  N   UNL     1      46.415   6.283  11.862  0.00  0.00    +0.000 N 
ATOM     10  C   UNL     1      45.069   6.232  11.557  0.00  0.00    +0.000 C 
ATOM     11  O   UNL     1      44.437   7.265  11.378  0.00  0.00    +0.000 OA
ATOM     12  H   UNL     1      46.946   5.426  11.898  0.00  0.00    +0.000 HD
BRANCH  10  13
ATOM     13  C   UNL     1      44.482   4.905  11.476  0.00  0.00    +0.000 A 
ATOM     14  S   UNL     1      43.722   4.157  12.831  0.00  0.00    +0.000 S 
ATOM     15  C   UNL     1      43.391   2.778  11.879  0.00  0.00    +0.000 A 
ATOM     16  N   UNL     1      43.796   2.828  10.633  0.00  0.00    +0.000 NA
ATOM     17  C   UNL     1      44.422   4.043  10.392  0.00  0.00    +0.000 A 
ATOM     18 CL   UNL     1      45.034   4.339   8.816  0.00  0.00    +0.000 Cl
ENDBRANCH  10  13
ENDBRANCH   8   9
ENDBRANCH   5   8
ENDBRANCH   1   2
BRANCH   1  19
ATOM     19  N   UNL     1      48.242   7.749  18.266  0.00  0.00    +0.000 N 
ATOM     20  C   UNL     1      48.293   6.433  18.804  0.00  0.00    +0.000 C 
ATOM     21  O   UNL     1      47.442   6.073  19.616  0.00  0.00    +0.000 OA
BRANCH  20  22
ATOM     22  C   UNL     1      49.415   5.501  18.469  0.00  0.00    +0.000 A 
ATOM     23  C   UNL     1      50.668   5.497  19.068  0.00  0.00    +0.000 A 
ATOM     24  S   UNL     1      51.731   4.283  18.527  0.00  0.00    +0.000 S 
ATOM     25  C   UNL     1      50.482   3.539  17.661  0.00  0.00    +0.000 A 
ATOM     26  N   UNL     1      50.679   2.303  17.129  0.00  0.00    +0.000 NA
ATOM     27  C   UNL     1      49.663   1.849  16.479  0.00  0.00    +0.000 A 
ATOM     28  N   UNL     1      48.495   2.536  16.281  0.00  0.00    +0.000 N 
ATOM     29  C   UNL     1      48.250   3.794  16.799  0.00  0.00    +0.000 A 
ATOM     30  O   UNL     1      47.220   4.390  16.514  0.00  0.00    +0.000 OA
ATOM     31  C   UNL     1      49.335   4.313  17.620  0.00  0.00    +0.000 A 
ATOM     32  H   UNL     1      47.770   2.149  15.695  0.00  0.00    +0.000 HD
ENDBRANCH  20  22
BRANCH  19  34
ATOM     33  C   UNL     1      47.765  10.160  18.814  0.00  0.00    +0.000 C 
ATOM     34  C   UNL     1      47.314   8.707  18.887  0.00  0.00    +0.000 C 
ENDBRANCH  19  34
ENDBRANCH   1  19
TORSDOF 7
ENDMDL
MODEL 5
REMARK VINA RESULT:    -6.965      3.369      8.466
REMARK INTER + INTRA:         -10.616
REMARK INTER:                  -8.787
REMARK INTRA:                  -1.829
REMARK UNBOUND:                -0.800
REMARK  Name = 
REMARK  8 active torsions:
REMARK  status: ('A' for Active; 'I' for Inactive)
REMARK    1  A    between atoms: C_1  and  C_2
REMARK    2  A    between atoms: C_2  and  N_3
REMARK    3  A    between atoms: N_3  and  C_4
REMARK    4  A    between atoms: C_4  and  C_5
REMARK    5  A    between atoms: C_8  and  C_9
REMARK    6  A    between atoms: C_9  and  N_10
REMARK    7  A    between atoms: C_11  and  C_13
REMARK    8  A    between atoms: C_21  and  C_23
REMARK                            x       y       z     vdW  Elec       q    Type
REMARK                         _______ _______ _______ _____ _____    ______ ____
ROOT
ATOM      1  C   UNL     1      50.670   7.539  17.281  0.00  0.00    +0.000 C 
ENDROOT
BRANCH   1   2
ATOM      2  C   UNL     1      49.801   7.853  16.097  0.00  0.00    +0.000 A 
ATOM      3  C   UNL     1      49.725   6.958  15.019  0.00  0.00    +0.000 A 
ATOM      4  C   UNL     1      48.714   7.095  14.076  0.00  0.00    +0.000 A 
ATOM      5  C   UNL     1      47.813   8.147  14.218  0.00  0.00    +0.000 A 
ATOM      6  N   UNL     1      47.907   9.057  15.223  0.00  0.00    +0.000 NA
ATOM      7  C   UNL     1      48.890   8.891  16.135  0.00  0.00    +0.000 A 
BRANCH   5   8
ATOM      8  C   UNL     1      46.634   8.282  13.282  0.00  0.00    +0.000 C 
BRANCH   8   9
ATOM      9  N   UNL     1      45.856   7.061  13.189  0.00  0.00    +0.000 N 
ATOM     10  C   UNL     1      45.717   6.366  12.003  0.00  0.00    +0.000 C 
ATOM     11  O   UNL     1      46.214   6.799  10.972  0.00  0.00    +0.000 OA
ATOM     12  H   UNL     1      45.537   6.640  14.048  0.00  0.00    +0.000 HD
BRANCH  10  13
ATOM     13  C   UNL     1      44.956   5.130  12.073  0.00  0.00    +0.000 A 
ATOM     14  S   UNL     1      43.401   4.970  11.345  0.00  0.00    +0.000 S 
ATOM     15  C   UNL     1      43.310   3.358  11.904  0.00  0.00    +0.000 A 
ATOM     16  N   UNL     1      44.343   2.926  12.585  0.00  0.00    +0.000 NA
ATOM     17  C   UNL     1      45.293   3.932  12.687  0.00  0.00    +0.000 A 
ATOM     18 CL   UNL     1      46.744   3.593  13.537  0.00  0.00    +0.000 Cl
ENDBRANCH  10  13
ENDBRANCH   8   9
ENDBRANCH   5   8
ENDBRANCH   1   2
BRANCH   1  19
ATOM     19  N   UNL     1      50.220   7.687  18.657  0.00  0.00    +0.000 N 
ATOM     20  C   UNL     1      49.287   6.791  19.249  0.00  0.00    +0.000 C 
ATOM     21  O   UNL     1      48.882   7.000  20.391  0.00  0.00    +0.000 OA
BRANCH  20  22
ATOM     22  C   UNL     1      48.851   5.546  18.542  0.00  0.00    +0.000 A 
ATOM     23  C   UNL     1      47.659   5.388  17.847  0.00  0.00    +0.000 A 
ATOM     24  S   UNL     1      47.452   3.878  17.090  0.00  0.00    +0.000 S 
ATOM     25  C   UNL     1      49.056   3.460  17.426  0.00  0.00    +0.000 A 
ATOM     26  N   UNL     1      49.595   2.351  16.850  0.00  0.00    +0.000 NA
ATOM     27  C   UNL     1      50.816   2.127  17.196  0.00  0.00    +0.000 A 
ATOM     28  N   UNL     1      51.524   2.884  18.092  0.00  0.00    +0.000 N 
ATOM     29  C   UNL     1      51.018   4.016  18.704  0.00  0.00    +0.000 A 
ATOM     30  O   UNL     1      51.670   4.600  19.560  0.00  0.00    +0.000 OA
ATOM     31  C   UNL     1      49.671   4.364  18.275  0.00  0.00    +0.000 A 
ATOM     32  H   UNL     1      52.451   2.605  18.374  0.00  0.00    +0.000 HD
ENDBRANCH  20  22
BRANCH  19  34
ATOM     33  C   UNL     1      52.212   8.288  20.075  0.00  0.00    +0.000 C 
ATOM     34  C   UNL     1      50.850   8.693  19.526  0.00  0.00    +0.000 C 
ENDBRANCH  19  34
ENDBRANCH   1  19
TORSDOF 7
ENDMDL
MODEL 6
REMARK VINA RESULT:    -6.755      3.459      8.612
REMARK INTER + INTRA:         -10.319
REMARK INTER:                  -9.182
REMARK INTRA:                  -1.137
REMARK UNBOUND:                -0.800
REMARK  Name = 
REMARK  8 active torsions:
REMARK  status: ('A' for Active; 'I' for Inactive)
REMARK    1  A    between atoms: C_1  and  C_2
REMARK    2  A    between atoms: C_2  and  N_3
REMARK    3  A    between atoms: N_3  and  C_4
REMARK    4  A    between atoms: C_4  and  C_5
REMARK    5  A    between atoms: C_8  and  C_9
REMARK    6  A    between atoms: C_9  and  N_10
REMARK    7  A    between atoms: C_11  and  C_13
REMARK    8  A    between atoms: C_21  and  C_23
REMARK                            x       y       z     vdW  Elec       q    Type
REMARK                         _______ _______ _______ _____ _____    ______ ____
ROOT
ATOM      1  C   UNL     1      51.040   7.787  16.158  0.00  0.00    +0.000 C 
ENDROOT
BRANCH   1   2
ATOM      2  C   UNL     1      50.205   7.432  14.961  0.00  0.00    +0.000 A 
ATOM      3  C   UNL     1      49.010   6.715  15.121  0.00  0.00    +0.000 A 
ATOM      4  C   UNL     1      48.099   6.646  14.073  0.00  0.00    +0.000 A 
ATOM      5  C   UNL     1      48.419   7.275  12.873  0.00  0.00    +0.000 A 
ATOM      6  N   UNL     1      49.598   7.924  12.683  0.00  0.00    +0.000 NA
ATOM      7  C   UNL     1      50.459   7.989  13.723  0.00  0.00    +0.000 A 
BRANCH   5   8
ATOM      8  C   UNL     1      47.424   7.320  11.738  0.00  0.00    +0.000 C 
BRANCH   8   9
ATOM      9  N   UNL     1      46.604   6.124  11.670  0.00  0.00    +0.000 N 
ATOM     10  C   UNL     1      45.230   6.181  11.533  0.00  0.00    +0.000 C 
ATOM     11  O   UNL     1      44.656   7.261  11.518  0.00  0.00    +0.000 OA
ATOM     12  H   UNL     1      47.074   5.237  11.569  0.00  0.00    +0.000 HD
BRANCH  10  13
ATOM     13  C   UNL     1      44.546   4.904  11.420  0.00  0.00    +0.000 A 
ATOM     14  S   UNL     1      43.752   4.169  12.762  0.00  0.00    +0.000 S 
ATOM     15  C   UNL     1      43.307   2.849  11.772  0.00  0.00    +0.000 A 
ATOM     16  N   UNL     1      43.698   2.911  10.523  0.00  0.00    +0.000 NA
ATOM     17  C   UNL     1      44.408   4.084  10.309  0.00  0.00    +0.000 A 
ATOM     18 CL   UNL     1      45.018   4.387   8.734  0.00  0.00    +0.000 Cl
ENDBRANCH  10  13
ENDBRANCH   8   9
ENDBRANCH   5   8
ENDBRANCH   1   2
BRANCH   1  19
ATOM     19  N   UNL     1      51.995   6.869  16.760  0.00  0.00    +0.000 N 
ATOM     20  C   UNL     1      51.636   5.992  17.821  0.00  0.00    +0.000 C 
ATOM     21  O   UNL     1      52.497   5.287  18.346  0.00  0.00    +0.000 OA
BRANCH  20  22
ATOM     22  C   UNL     1      50.213   5.844  18.258  0.00  0.00    +0.000 A 
ATOM     23  C   UNL     1      49.452   6.826  18.878  0.00  0.00    +0.000 A 
ATOM     24  S   UNL     1      47.839   6.397  19.212  0.00  0.00    +0.000 S 
ATOM     25  C   UNL     1      48.002   4.978  18.305  0.00  0.00    +0.000 A 
ATOM     26  N   UNL     1      46.896   4.243  18.007  0.00  0.00    +0.000 NA
ATOM     27  C   UNL     1      47.149   3.177  17.327  0.00  0.00    +0.000 A 
ATOM     28  N   UNL     1      48.403   2.766  16.961  0.00  0.00    +0.000 N 
ATOM     29  C   UNL     1      49.554   3.477  17.243  0.00  0.00    +0.000 A 
ATOM     30  O   UNL     1      50.653   3.014  16.964  0.00  0.00    +0.000 OA
ATOM     31  C   UNL     1      49.313   4.738  17.931  0.00  0.00    +0.000 A 
ATOM     32  H   UNL     1      48.533   1.880  16.497  0.00  0.00    +0.000 HD
ENDBRANCH  20  22
BRANCH  19  34
ATOM     33  C   UNL     1      53.652   7.716  15.065  0.00  0.00    +0.000 C 
ATOM     34  C   UNL     1      53.334   6.717  16.169  0.00  0.00    +0.000 C 
ENDBRANCH  19  34
ENDBRANCH   1  19
TORSDOF 7
ENDMDL
MODEL 7
REMARK VINA RESULT:    -6.658      3.251      8.427
REMARK INTER + INTRA:         -10.183
REMARK INTER:                  -9.185
REMARK INTRA:                  -0.999
REMARK UNBOUND:                -0.800
REMARK  Name = 
REMARK  8 active torsions:
REMARK  status: ('A' for Active; 'I' for Inactive)
REMARK    1  A    between atoms: C_1  and  C_2
REMARK    2  A    between atoms: C_2  and  N_3
REMARK    3  A    between atoms: N_3  and  C_4
REMARK    4  A    between atoms: C_4  and  C_5
REMARK    5  A    between atoms: C_8  and  C_9
REMARK    6  A    between atoms: C_9  and  N_10
REMARK    7  A    between atoms: C_11  and  C_13
REMARK    8  A    between atoms: C_21  and  C_23
REMARK                            x       y       z     vdW  Elec       q    Type
REMARK                         _______ _______ _______ _____ _____    ______ ____
ROOT
ATOM      1  C   UNL     1      49.429   6.997  14.933  0.00  0.00    +0.000 C 
ENDROOT
BRANCH   1   2
ATOM      2  C   UNL     1      48.109   7.034  14.218  0.00  0.00    +0.000 A 
ATOM      3  C   UNL     1      47.547   8.261  13.835  0.00  0.00    +0.000 A 
ATOM      4  C   UNL     1      46.496   8.287  12.927  0.00  0.00    +0.000 A 
ATOM      5  C   UNL     1      46.009   7.077  12.440  0.00  0.00    +0.000 A 
ATOM      6  N   UNL     1      46.504   5.877  12.844  0.00  0.00    +0.000 NA
ATOM      7  C   UNL     1      47.536   5.881  13.717  0.00  0.00    +0.000 A 
BRANCH   5   8
ATOM      8  C   UNL     1      44.940   7.050  11.374  0.00  0.00    +0.000 C 
BRANCH   8   9
ATOM      9  N   UNL     1      44.735   5.722  10.824  0.00  0.00    +0.000 N 
ATOM     10  C   UNL     1      45.464   5.250   9.750  0.00  0.00    +0.000 C 
ATOM     11  O   UNL     1      46.279   5.973   9.192  0.00  0.00    +0.000 OA
ATOM     12  H   UNL     1      44.150   5.084  11.342  0.00  0.00    +0.000 HD
BRANCH  10  13
ATOM     13  C   UNL     1      45.192   3.881   9.345  0.00  0.00    +0.000 A 
ATOM     14  S   UNL     1      44.149   2.850  10.252  0.00  0.00    +0.000 S 
ATOM     15  C   UNL     1      44.428   1.590   9.133  0.00  0.00    +0.000 A 
ATOM     16  N   UNL     1      45.231   1.873   8.136  0.00  0.00    +0.000 NA
ATOM     17  C   UNL     1      45.674   3.184   8.248  0.00  0.00    +0.000 A 
ATOM     18 CL   UNL     1      46.740   3.784   7.043  0.00  0.00    +0.000 Cl
ENDBRANCH  10  13
ENDBRANCH   8   9
ENDBRANCH   5   8
ENDBRANCH   1   2
BRANCH   1  19
ATOM     19  N   UNL     1      49.635   7.583  16.249  0.00  0.00    +0.000 N 
ATOM     20  C   UNL     1      49.321   6.883  17.447  0.00  0.00    +0.000 C 
ATOM     21  O   UNL     1      49.444   7.447  18.533  0.00  0.00    +0.000 OA
BRANCH  20  22
ATOM     22  C   UNL     1      48.923   5.440  17.422  0.00  0.00    +0.000 A 
ATOM     23  C   UNL     1      47.651   4.958  17.144  0.00  0.00    +0.000 A 
ATOM     24  S   UNL     1      47.501   3.263  17.128  0.00  0.00    +0.000 S 
ATOM     25  C   UNL     1      49.181   3.088  17.225  0.00  0.00    +0.000 A 
ATOM     26  N   UNL     1      49.739   1.861  17.037  0.00  0.00    +0.000 NA
ATOM     27  C   UNL     1      51.023   1.851  17.152  0.00  0.00    +0.000 A 
ATOM     28  N   UNL     1      51.785   2.942  17.479  0.00  0.00    +0.000 N 
ATOM     29  C   UNL     1      51.262   4.206  17.682  0.00  0.00    +0.000 A 
ATOM     30  O   UNL     1      51.985   5.121  18.056  0.00  0.00    +0.000 OA
ATOM     31  C   UNL     1      49.824   4.289  17.472  0.00  0.00    +0.000 A 
ATOM     32  H   UNL     1      52.777   2.844  17.628  0.00  0.00    +0.000 HD
ENDBRANCH  20  22
BRANCH  19  34
ATOM     33  C   UNL     1      49.404  10.081  16.461  0.00  0.00    +0.000 C 
ATOM     34  C   UNL     1      50.329   8.874  16.373  0.00  0.00    +0.000 C 
ENDBRANCH  19  34
ENDBRANCH   1  19
TORSDOF 7
ENDMDL
MODEL 8
REMARK VINA RESULT:    -6.393      5.984      8.690
REMARK INTER + INTRA:          -9.810
REMARK INTER:                  -8.683
REMARK INTRA:                  -1.126
REMARK UNBOUND:                -0.800
REMARK  Name = 
REMARK  8 active torsions:
REMARK  status: ('A' for Active; 'I' for Inactive)
REMARK    1  A    between atoms: C_1  and  C_2
REMARK    2  A    between atoms: C_2  and  N_3
REMARK    3  A    between atoms: N_3  and  C_4
REMARK    4  A    between atoms: C_4  and  C_5
REMARK    5  A    between atoms: C_8  and  C_9
REMARK    6  A    between atoms: C_9  and  N_10
REMARK    7  A    between atoms: C_11  and  C_13
REMARK    8  A    between atoms: C_21  and  C_23
REMARK                            x       y       z     vdW  Elec       q    Type
REMARK                         _______ _______ _______ _____ _____    ______ ____
ROOT
ATOM      1  C   UNL     1      51.017   9.205  10.856  0.00  0.00    +0.000 C 
ENDROOT
BRANCH   1   2
ATOM      2  C   UNL     1      49.912   8.608  11.679  0.00  0.00    +0.000 A 
ATOM      3  C   UNL     1      48.672   9.256  11.774  0.00  0.00    +0.000 A 
ATOM      4  C   UNL     1      47.570   8.574  12.277  0.00  0.00    +0.000 A 
ATOM      5  C   UNL     1      47.742   7.260  12.702  0.00  0.00    +0.000 A 
ATOM      6  N   UNL     1      48.950   6.635  12.672  0.00  0.00    +0.000 NA
ATOM      7  C   UNL     1      50.000   7.317  12.163  0.00  0.00    +0.000 A 
BRANCH   5   8
ATOM      8  C   UNL     1      46.560   6.438  13.160  0.00  0.00    +0.000 C 
BRANCH   8   9
ATOM      9  N   UNL     1      46.192   5.412  12.203  0.00  0.00    +0.000 N 
ATOM     10  C   UNL     1      45.128   5.563  11.334  0.00  0.00    +0.000 C 
ATOM     11  O   UNL     1      44.426   6.564  11.388  0.00  0.00    +0.000 OA
ATOM     12  H   UNL     1      46.827   4.638  12.075  0.00  0.00    +0.000 HD
BRANCH  10  13
ATOM     13  C   UNL     1      44.913   4.478  10.392  0.00  0.00    +0.000 A 
ATOM     14  S   UNL     1      45.533   4.527   8.784  0.00  0.00    +0.000 S 
ATOM     15  C   UNL     1      44.840   2.996   8.475  0.00  0.00    +0.000 A 
ATOM     16  N   UNL     1      44.189   2.447   9.471  0.00  0.00    +0.000 NA
ATOM     17  C   UNL     1      44.224   3.288  10.575  0.00  0.00    +0.000 A 
ATOM     18 CL   UNL     1      43.436   2.774  12.010  0.00  0.00    +0.000 Cl
ENDBRANCH  10  13
ENDBRANCH   8   9
ENDBRANCH   5   8
ENDBRANCH   1   2
BRANCH   1  19
ATOM     19  N   UNL     1      52.411   9.192  11.271  0.00  0.00    +0.000 N 
ATOM     20  C   UNL     1      53.448   8.703  10.428  0.00  0.00    +0.000 C 
ATOM     21  O   UNL     1      54.602   8.645  10.851  0.00  0.00    +0.000 OA
BRANCH  20  22
ATOM     22  C   UNL     1      53.180   8.335   9.002  0.00  0.00    +0.000 A 
ATOM     23  C   UNL     1      52.986   9.231   7.960  0.00  0.00    +0.000 A 
ATOM     24  S   UNL     1      52.758   8.528   6.426  0.00  0.00    +0.000 S 
ATOM     25  C   UNL     1      53.174   7.005   7.035  0.00  0.00    +0.000 A 
ATOM     26  N   UNL     1      53.384   5.973   6.173  0.00  0.00    +0.000 NA
ATOM     27  C   UNL     1      53.677   4.861   6.755  0.00  0.00    +0.000 A 
ATOM     28  N   UNL     1      53.734   4.684   8.112  0.00  0.00    +0.000 N 
ATOM     29  C   UNL     1      53.526   5.700   9.025  0.00  0.00    +0.000 A 
ATOM     30  O   UNL     1      53.506   5.458  10.226  0.00  0.00    +0.000 OA
ATOM     31  C   UNL     1      53.282   6.999   8.415  0.00  0.00    +0.000 A 
ATOM     32  H   UNL     1      53.894   3.766   8.499  0.00  0.00    +0.000 HD
ENDBRANCH  20  22
BRANCH  19  34
ATOM     33  C   UNL     1      52.835   8.907  13.736  0.00  0.00    +0.000 C 
ATOM     34  C   UNL     1      52.804   9.840  12.532  0.00  0.00    +0.000 C 
ENDBRANCH  19  34
ENDBRANCH   1  19
TORSDOF 7
ENDMDL
MODEL 9
REMARK VINA RESULT:    -6.325      2.881      3.889
REMARK INTER + INTRA:          -9.714
REMARK INTER:                  -8.281
REMARK INTRA:                  -1.433
REMARK UNBOUND:                -0.800
REMARK  Name = 
REMARK  8 active torsions:
REMARK  status: ('A' for Active; 'I' for Inactive)
REMARK    1  A    between atoms: C_1  and  C_2
REMARK    2  A    between atoms: C_2  and  N_3
REMARK    3  A    between atoms: N_3  and  C_4
REMARK    4  A    between atoms: C_4  and  C_5
REMARK    5  A    between atoms: C_8  and  C_9
REMARK    6  A    between atoms: C_9  and  N_10
REMARK    7  A    between atoms: C_11  and  C_13
REMARK    8  A    between atoms: C_21  and  C_23
REMARK                            x       y       z     vdW  Elec       q    Type
REMARK                         _______ _______ _______ _____ _____    ______ ____
ROOT
ATOM      1  C   UNL     1      47.670   8.690  14.356  0.00  0.00    +0.000 C 
ENDROOT
BRANCH   1   2
ATOM      2  C   UNL     1      48.669   8.498  15.460  0.00  0.00    +0.000 A 
ATOM      3  C   UNL     1      48.306   8.747  16.793  0.00  0.00    +0.000 A 
ATOM      4  C   UNL     1      49.115   8.292  17.827  0.00  0.00    +0.000 A 
ATOM      5  C   UNL     1      50.289   7.619  17.504  0.00  0.00    +0.000 A 
ATOM      6  N   UNL     1      50.685   7.420  16.218  0.00  0.00    +0.000 NA
ATOM      7  C   UNL     1      49.872   7.859  15.232  0.00  0.00    +0.000 A 
BRANCH   5   8
ATOM      8  C   UNL     1      51.152   7.013  18.585  0.00  0.00    +0.000 C 
BRANCH   8   9
ATOM      9  N   UNL     1      51.554   5.652  18.279  0.00  0.00    +0.000 N 
ATOM     10  C   UNL     1      50.678   4.588  18.374  0.00  0.00    +0.000 C 
ATOM     11  O   UNL     1      49.536   4.762  18.775  0.00  0.00    +0.000 OA
ATOM     12  H   UNL     1      52.454   5.514  17.844  0.00  0.00    +0.000 HD
BRANCH  10  13
ATOM     13  C   UNL     1      51.204   3.291  17.981  0.00  0.00    +0.000 A 
ATOM     14  S   UNL     1      52.816   2.806  18.355  0.00  0.00    +0.000 S 
ATOM     15  C   UNL     1      52.546   1.315  17.567  0.00  0.00    +0.000 A 
ATOM     16  N   UNL     1      51.354   1.144  17.051  0.00  0.00    +0.000 NA
ATOM     17  C   UNL     1      50.576   2.271  17.282  0.00  0.00    +0.000 A 
ATOM     18 CL   UNL     1      48.962   2.275  16.698  0.00  0.00    +0.000 Cl
ENDBRANCH  10  13
ENDBRANCH   8   9
ENDBRANCH   5   8
ENDBRANCH   1   2
BRANCH   1  19
ATOM     19  N   UNL     1      48.038   8.712  12.948  0.00  0.00    +0.000 N 
ATOM     20  C   UNL     1      47.912   7.566  12.115  0.00  0.00    +0.000 C 
ATOM     21  O   UNL     1      48.304   7.614  10.950  0.00  0.00    +0.000 OA
BRANCH  20  22
ATOM     22  C   UNL     1      47.232   6.325  12.600  0.00  0.00    +0.000 A 
ATOM     23  C   UNL     1      47.817   5.333  13.375  0.00  0.00    +0.000 A 
ATOM     24  S   UNL     1      46.786   4.059  13.830  0.00  0.00    +0.000 S 
ATOM     25  C   UNL     1      45.442   4.901  13.241  0.00  0.00    +0.000 A 
ATOM     26  N   UNL     1      44.191   4.445  13.518  0.00  0.00    +0.000 NA
ATOM     27  C   UNL     1      43.251   5.161  13.002  0.00  0.00    +0.000 A 
ATOM     28  N   UNL     1      43.454   6.256  12.205  0.00  0.00    +0.000 N 
ATOM     29  C   UNL     1      44.705   6.754  11.894  0.00  0.00    +0.000 A 
ATOM     30  O   UNL     1      44.823   7.684  11.107  0.00  0.00    +0.000 OA
ATOM     31  C   UNL     1      45.799   6.034  12.530  0.00  0.00    +0.000 A 
ATOM     32  H   UNL     1      42.672   6.722  11.771  0.00  0.00    +0.000 HD
ENDBRANCH  20  22
BRANCH  19  34
ATOM     33  C   UNL     1      47.249  10.955  12.120  0.00  0.00    +0.000 C 
ATOM     34  C   UNL     1      48.408   9.986  12.311  0.00  0.00    +0.000 C 
ENDBRANCH  19  34
ENDBRANCH   1  19
TORSDOF 7
ENDMDL
