MODEL 1
REMARK VINA RESULT:    -7.852      0.000      0.000
REMARK INTER + INTRA:         -13.192
REMARK INTER:                 -11.983
REMARK INTRA:                  -1.209
REMARK UNBOUND:                -1.209
REMARK  Name = 
REMARK  13 active torsions:
REMARK  status: ('A' for Active; 'I' for Inactive)
REMARK    1  A    between atoms: C_1  and  C_2
REMARK    2  A    between atoms: C_2  and  C_3
REMARK    3  A    between atoms: C_2  and  C_4
REMARK    4  A    between atoms: C_2  and  O_5
REMARK    5  A    between atoms: O_5  and  C_6
REMARK    6  A    between atoms: N_8  and  CA_9
REMARK    7  A    between atoms: CA_9  and  C_10
REMARK    8  A    between atoms: CA_9  and  C_12
REMARK    9  A    between atoms: C_10  and  O_11
REMARK   10  A    between atoms: N_14  and  C_15
REMARK   11  A    between atoms: C_15  and  C_16
REMARK   12  A    between atoms: C_19  and  C_20
REMARK   13  A    between atoms: C_20  and  N_21
REMARK                            x       y       z     vdW  Elec       q    Type
REMARK                         _______ _______ _______ _____ _____    ______ ____
ROOT
ATOM      1  C   UNL     1      45.545   7.002  12.067  0.00  0.00    +0.000 A 
ATOM      2  C   UNL     1      44.645   6.544  11.119  0.00  0.00    +0.000 A 
ATOM      3  N   UNL     1      44.590   5.173  11.184  0.00  0.00    +0.000 N 
ATOM      4  C   UNL     1      45.397   4.718  12.202  0.00  0.00    +0.000 A 
ATOM      5  C   UNL     1      45.645   3.429  12.670  0.00  0.00    +0.000 A 
ATOM      6  N   UNL     1      46.516   3.244  13.686  0.00  0.00    +0.000 NA
ATOM      7  C   UNL     1      47.121   4.318  14.231  0.00  0.00    +0.000 A 
ATOM      8  C   UNL     1      46.918   5.630  13.827  0.00  0.00    +0.000 A 
ATOM      9  C   UNL     1      46.017   5.838  12.767  0.00  0.00    +0.000 A 
ENDROOT
BRANCH   1  10
ATOM     10  CA  UNL     1      45.964   8.426  12.319  0.00  0.00    +0.000 C 
BRANCH  10  13
ATOM     11  C   UNL     1      48.194   9.459  12.399  0.00  0.00    +0.000 C 
ATOM     12  O   UNL     1      47.913  10.104  13.392  0.00  0.00    +0.000 OA
ATOM     13  N   UNL     1      47.313   8.623  11.794  0.00  0.00    +0.000 N 
ATOM     14  H   UNL     1      47.592   8.219  10.911  0.00  0.00    +0.000 HD
BRANCH  11  15
ATOM     15  O   UNL     1      49.373   9.478  11.735  0.00  0.00    +0.000 OA
BRANCH  15  17
ATOM     16  C   UNL     1      51.083   7.859  11.056  0.00  0.00    +0.000 C 
ATOM     17  C   UNL     1      50.456   8.641  12.220  0.00  0.00    +0.000 C 
ATOM     18  C   UNL     1      50.000   7.723  13.363  0.00  0.00    +0.000 C 
ATOM     19  C   UNL     1      51.523   9.594  12.782  0.00  0.00    +0.000 C 
ENDBRANCH  15  17
ENDBRANCH  11  15
ENDBRANCH  10  13
BRANCH  10  20
ATOM     20  C   UNL     1      44.960   9.450  11.739  0.00  0.00    +0.000 C 
BRANCH  20  21
ATOM     21  O   UNL     1      44.995  10.726  12.385  0.00  0.00    +0.000 OA
ATOM     22  H   UNL     1      45.864  10.837  12.817  0.00  0.00    +0.000 HD
ENDBRANCH  20  21
ENDBRANCH  10  20
ENDBRANCH   1  10
BRANCH   3  23
ATOM     23  C   UNL     1      43.829   4.346  10.249  0.00  0.00    +0.000 C 
BRANCH  23  24
ATOM     24  C   UNL     1      44.731   3.638   9.272  0.00  0.00    +0.000 A 
ATOM     25  C   UNL     1      44.846   2.240   9.282  0.00  0.00    +0.000 A 
ATOM     26  C   UNL     1      45.748   1.592   8.437  0.00  0.00    +0.000 A 
ATOM     27  C   UNL     1      46.547   2.327   7.552  0.00  0.00    +0.000 A 
ATOM     28  C   UNL     1      46.380   3.717   7.492  0.00  0.00    +0.000 A 
ATOM     29  C   UNL     1      45.482   4.367   8.343  0.00  0.00    +0.000 A 
BRANCH  27  30
ATOM     30  C   UNL     1      47.610   1.643   6.735  0.00  0.00    +0.000 C 
BRANCH  30  31
ATOM     31  N   UNL     1      48.668   2.557   6.328  0.00  0.00    +0.000 NA
ATOM     32  H   UNL     1      48.771   2.508   5.315  0.00  0.00    +0.000 HD
ATOM     33  H   UNL     1      49.549   2.233   6.722  0.00  0.00    +0.000 HD
ENDBRANCH  30  31
ENDBRANCH  27  30
ENDBRANCH  23  24
ENDBRANCH   3  23
TORSDOF 10
ENDMDL
MODEL 2
REMARK VINA RESULT:    -7.439      2.702      4.003
REMARK INTER + INTRA:         -12.562
REMARK INTER:                 -12.210
REMARK INTRA:                  -0.352
REMARK UNBOUND:                -1.209
REMARK  Name = 
REMARK  13 active torsions:
REMARK  status: ('A' for Active; 'I' for Inactive)
REMARK    1  A    between atoms: C_1  and  C_2
REMARK    2  A    between atoms: C_2  and  C_3
REMARK    3  A    between atoms: C_2  and  C_4
REMARK    4  A    between atoms: C_2  and  O_5
REMARK    5  A    between atoms: O_5  and  C_6
REMARK    6  A    between atoms: N_8  and  CA_9
REMARK    7  A    between atoms: CA_9  and  C_10
REMARK    8  A    between atoms: CA_9  and  C_12
REMARK    9  A    between atoms: C_10  and  O_11
REMARK   10  A    between atoms: N_14  and  C_15
REMARK   11  A    between atoms: C_15  and  C_16
REMARK   12  A    between atoms: C_19  and  C_20
REMARK   13  A    between atoms: C_20  and  N_21
REMARK                            x       y       z     vdW  Elec       q    Type
REMARK                         _______ _______ _______ _____ _____    ______ ____
ROOT
ATOM      1  C   UNL     1      46.498   5.665  13.110  0.00  0.00    +0.000 A 
ATOM      2  C   UNL     1      45.913   4.689  12.319  0.00  0.00    +0.000 A 
ATOM      3  N   UNL     1      45.001   5.283  11.482  0.00  0.00    +0.000 N 
ATOM      4  C   UNL     1      45.013   6.648  11.666  0.00  0.00    +0.000 A 
ATOM      5  C   UNL     1      44.297   7.665  11.039  0.00  0.00    +0.000 A 
ATOM      6  N   UNL     1      44.478   8.946  11.428  0.00  0.00    +0.000 NA
ATOM      7  C   UNL     1      45.358   9.211  12.413  0.00  0.00    +0.000 A 
ATOM      8  C   UNL     1      46.113   8.255  13.077  0.00  0.00    +0.000 A 
ATOM      9  C   UNL     1      45.933   6.916  12.686  0.00  0.00    +0.000 A 
ENDROOT
BRANCH   1  10
ATOM     10  CA  UNL     1      47.514   5.468  14.204  0.00  0.00    +0.000 C 
BRANCH  10  13
ATOM     11  C   UNL     1      48.908   7.054  15.464  0.00  0.00    +0.000 C 
ATOM     12  O   UNL     1      49.863   6.300  15.451  0.00  0.00    +0.000 OA
ATOM     13  N   UNL     1      47.718   6.739  14.895  0.00  0.00    +0.000 N 
ATOM     14  H   UNL     1      46.947   7.374  15.055  0.00  0.00    +0.000 HD
BRANCH  11  15
ATOM     15  O   UNL     1      48.857   8.277  16.043  0.00  0.00    +0.000 OA
BRANCH  15  17
ATOM     16  C   UNL     1      50.283   8.724  17.986  0.00  0.00    +0.000 C 
ATOM     17  C   UNL     1      48.875   8.359  17.492  0.00  0.00    +0.000 C 
ATOM     18  C   UNL     1      48.342   7.075  18.144  0.00  0.00    +0.000 C 
ATOM     19  C   UNL     1      47.926   9.507  17.874  0.00  0.00    +0.000 C 
ENDBRANCH  15  17
ENDBRANCH  11  15
ENDBRANCH  10  13
BRANCH  10  20
ATOM     20  C   UNL     1      47.122   4.333  15.180  0.00  0.00    +0.000 C 
BRANCH  20  21
ATOM     21  O   UNL     1      47.602   3.043  14.791  0.00  0.00    +0.000 OA
ATOM     22  H   UNL     1      46.837   2.464  14.606  0.00  0.00    +0.000 HD
ENDBRANCH  20  21
ENDBRANCH  10  20
ENDBRANCH   1  10
BRANCH   3  23
ATOM     23  C   UNL     1      44.113   4.540  10.590  0.00  0.00    +0.000 C 
BRANCH  23  24
ATOM     24  C   UNL     1      44.883   3.803   9.526  0.00  0.00    +0.000 A 
ATOM     25  C   UNL     1      44.915   2.401   9.501  0.00  0.00    +0.000 A 
ATOM     26  C   UNL     1      45.701   1.721   8.569  0.00  0.00    +0.000 A 
ATOM     27  C   UNL     1      46.462   2.429   7.631  0.00  0.00    +0.000 A 
ATOM     28  C   UNL     1      46.374   3.827   7.610  0.00  0.00    +0.000 A 
ATOM     29  C   UNL     1      45.593   4.509   8.547  0.00  0.00    +0.000 A 
BRANCH  27  30
ATOM     30  C   UNL     1      47.409   1.704   6.711  0.00  0.00    +0.000 C 
BRANCH  30  31
ATOM     31  N   UNL     1      48.561   2.516   6.351  0.00  0.00    +0.000 NA
ATOM     32  H   UNL     1      49.408   1.968   6.500  0.00  0.00    +0.000 HD
ATOM     33  H   UNL     1      48.616   3.307   6.990  0.00  0.00    +0.000 HD
ENDBRANCH  30  31
ENDBRANCH  27  30
ENDBRANCH  23  24
ENDBRANCH   3  23
TORSDOF 10
ENDMDL
MODEL 3
REMARK VINA RESULT:    -6.910      2.560      4.505
REMARK INTER + INTRA:         -11.755
REMARK INTER:                 -11.124
REMARK INTRA:                  -0.631
REMARK UNBOUND:                -1.209
REMARK  Name = 
REMARK  13 active torsions:
REMARK  status: ('A' for Active; 'I' for Inactive)
REMARK    1  A    between atoms: C_1  and  C_2
REMARK    2  A    between atoms: C_2  and  C_3
REMARK    3  A    between atoms: C_2  and  C_4
REMARK    4  A    between atoms: C_2  and  O_5
REMARK    5  A    between atoms: O_5  and  C_6
REMARK    6  A    between atoms: N_8  and  CA_9
REMARK    7  A    between atoms: CA_9  and  C_10
REMARK    8  A    between atoms: CA_9  and  C_12
REMARK    9  A    between atoms: C_10  and  O_11
REMARK   10  A    between atoms: N_14  and  C_15
REMARK   11  A    between atoms: C_15  and  C_16
REMARK   12  A    between atoms: C_19  and  C_20
REMARK   13  A    between atoms: C_20  and  N_21
REMARK                            x       y       z     vdW  Elec       q    Type
REMARK                         _______ _______ _______ _____ _____    ______ ____
ROOT
ATOM      1  C   UNL     1      46.636   6.724  13.122  0.00  0.00    +0.000 A 
ATOM      2  C   UNL     1      46.199   5.487  12.677  0.00  0.00    +0.000 A 
ATOM      3  N   UNL     1      45.103   5.666  11.869  0.00  0.00    +0.000 N 
ATOM      4  C   UNL     1      44.842   7.011  11.724  0.00  0.00    +0.000 A 
ATOM      5  C   UNL     1      43.867   7.681  10.988  0.00  0.00    +0.000 A 
ATOM      6  N   UNL     1      43.806   9.030  11.035  0.00  0.00    +0.000 NA
ATOM      7  C   UNL     1      44.701   9.698  11.790  0.00  0.00    +0.000 A 
ATOM      8  C   UNL     1      45.704   9.102  12.540  0.00  0.00    +0.000 A 
ATOM      9  C   UNL     1      45.777   7.698  12.505  0.00  0.00    +0.000 A 
ENDROOT
BRANCH   1  10
ATOM     10  CA  UNL     1      47.772   7.007  14.069  0.00  0.00    +0.000 C 
BRANCH  10  13
ATOM     11  C   UNL     1      48.608   5.858  16.076  0.00  0.00    +0.000 C 
ATOM     12  O   UNL     1      48.903   6.909  16.614  0.00  0.00    +0.000 OA
ATOM     13  N   UNL     1      48.063   5.798  14.835  0.00  0.00    +0.000 N 
ATOM     14  H   UNL     1      47.958   4.881  14.421  0.00  0.00    +0.000 HD
BRANCH  11  15
ATOM     15  O   UNL     1      48.785   4.617  16.586  0.00  0.00    +0.000 OA
BRANCH  15  17
ATOM     16  C   UNL     1      47.268   2.926  17.505  0.00  0.00    +0.000 C 
ATOM     17  C   UNL     1      48.026   4.236  17.764  0.00  0.00    +0.000 C 
ATOM     18  C   UNL     1      47.098   5.365  18.236  0.00  0.00    +0.000 C 
ATOM     19  C   UNL     1      49.054   3.978  18.877  0.00  0.00    +0.000 C 
ENDBRANCH  15  17
ENDBRANCH  11  15
ENDBRANCH  10  13
BRANCH  10  20
ATOM     20  C   UNL     1      49.026   7.551  13.345  0.00  0.00    +0.000 C 
BRANCH  20  21
ATOM     21  O   UNL     1      49.737   6.561  12.594  0.00  0.00    +0.000 OA
ATOM     22  H   UNL     1      50.406   6.147  13.172  0.00  0.00    +0.000 HD
ENDBRANCH  20  21
ENDBRANCH  10  20
ENDBRANCH   1  10
BRANCH   3  23
ATOM     23  C   UNL     1      44.313   4.568  11.318  0.00  0.00    +0.000 C 
BRANCH  23  24
ATOM     24  C   UNL     1      44.923   4.023  10.053  0.00  0.00    +0.000 A 
ATOM     25  C   UNL     1      44.934   2.644   9.795  0.00  0.00    +0.000 A 
ATOM     26  C   UNL     1      45.578   2.135   8.667  0.00  0.00    +0.000 A 
ATOM     27  C   UNL     1      46.215   2.994   7.763  0.00  0.00    +0.000 A 
ATOM     28  C   UNL     1      46.142   4.376   7.983  0.00  0.00    +0.000 A 
ATOM     29  C   UNL     1      45.504   4.887   9.116  0.00  0.00    +0.000 A 
BRANCH  27  30
ATOM     30  C   UNL     1      47.020   2.439   6.618  0.00  0.00    +0.000 C 
BRANCH  30  31
ATOM     31  N   UNL     1      47.970   1.424   7.050  0.00  0.00    +0.000 NA
ATOM     32  H   UNL     1      47.547   0.505   6.921  0.00  0.00    +0.000 HD
ATOM     33  H   UNL     1      48.128   1.528   8.050  0.00  0.00    +0.000 HD
ENDBRANCH  30  31
ENDBRANCH  27  30
ENDBRANCH  23  24
ENDBRANCH   3  23
TORSDOF 10
ENDMDL
MODEL 4
REMARK VINA RESULT:    -6.839      3.039      4.528
REMARK INTER + INTRA:         -11.646
REMARK INTER:                 -11.185
REMARK INTRA:                  -0.461
REMARK UNBOUND:                -1.209
REMARK  Name = 
REMARK  13 active torsions:
REMARK  status: ('A' for Active; 'I' for Inactive)
REMARK    1  A    between atoms: C_1  and  C_2
REMARK    2  A    between atoms: C_2  and  C_3
REMARK    3  A    between atoms: C_2  and  C_4
REMARK    4  A    between atoms: C_2  and  O_5
REMARK    5  A    between atoms: O_5  and  C_6
REMARK    6  A    between atoms: N_8  and  CA_9
REMARK    7  A    between atoms: CA_9  and  C_10
REMARK    8  A    between atoms: CA_9  and  C_12
REMARK    9  A    between atoms: C_10  and  O_11
REMARK   10  A    between atoms: N_14  and  C_15
REMARK   11  A    between atoms: C_15  and  C_16
REMARK   12  A    between atoms: C_19  and  C_20
REMARK   13  A    between atoms: C_20  and  N_21
REMARK                            x       y       z     vdW  Elec       q    Type
REMARK                         _______ _______ _______ _____ _____    ______ ____
ROOT
ATOM      1  C   UNL     1      46.748   5.237  13.536  0.00  0.00    +0.000 A 
ATOM      2  C   UNL     1      46.111   4.322  12.713  0.00  0.00    +0.000 A 
ATOM      3  N   UNL     1      45.308   5.001  11.831  0.00  0.00    +0.000 N 
ATOM      4  C   UNL     1      45.447   6.359  12.018  0.00  0.00    +0.000 A 
ATOM      5  C   UNL     1      44.870   7.440  11.356  0.00  0.00    +0.000 A 
ATOM      6  N   UNL     1      45.157   8.698  11.757  0.00  0.00    +0.000 NA
ATOM      7  C   UNL     1      46.006   8.877  12.788  0.00  0.00    +0.000 A 
ATOM      8  C   UNL     1      46.626   7.853  13.488  0.00  0.00    +0.000 A 
ATOM      9  C   UNL     1      46.333   6.537  13.085  0.00  0.00    +0.000 A 
ENDROOT
BRANCH   1  10
ATOM     10  CA  UNL     1      47.680   4.943  14.681  0.00  0.00    +0.000 C 
BRANCH  10  13
ATOM     11  C   UNL     1      48.911   6.404  16.231  0.00  0.00    +0.000 C 
ATOM     12  O   UNL     1      49.883   5.672  16.224  0.00  0.00    +0.000 OA
ATOM     13  N   UNL     1      47.786   6.133  15.523  0.00  0.00    +0.000 N 
ATOM     14  H   UNL     1      46.987   6.733  15.678  0.00  0.00    +0.000 HD
BRANCH  11  15
ATOM     15  O   UNL     1      48.775   7.553  16.932  0.00  0.00    +0.000 OA
BRANCH  15  17
ATOM     16  C   UNL     1      47.836   6.086  18.657  0.00  0.00    +0.000 C 
ATOM     17  C   UNL     1      48.421   7.470  18.338  0.00  0.00    +0.000 C 
ATOM     18  C   UNL     1      47.485   8.612  18.760  0.00  0.00    +0.000 C 
ATOM     19  C   UNL     1      49.732   7.625  19.125  0.00  0.00    +0.000 C 
ENDBRANCH  15  17
ENDBRANCH  11  15
ENDBRANCH  10  13
BRANCH  10  20
ATOM     20  C   UNL     1      47.251   3.697  15.490  0.00  0.00    +0.000 C 
BRANCH  20  21
ATOM     21  O   UNL     1      48.346   2.946  16.024  0.00  0.00    +0.000 OA
ATOM     22  H   UNL     1      48.750   2.423  15.305  0.00  0.00    +0.000 HD
ENDBRANCH  20  21
ENDBRANCH  10  20
ENDBRANCH   1  10
BRANCH   3  23
ATOM     23  C   UNL     1      44.399   4.347  10.892  0.00  0.00    +0.000 C 
BRANCH  23  24
ATOM     24  C   UNL     1      45.134   3.788   9.702  0.00  0.00    +0.000 A 
ATOM     25  C   UNL     1      45.720   4.639   8.753  0.00  0.00    +0.000 A 
ATOM     26  C   UNL     1      46.323   4.120   7.606  0.00  0.00    +0.000 A 
ATOM     27  C   UNL     1      46.367   2.738   7.389  0.00  0.00    +0.000 A 
ATOM     28  C   UNL     1      45.845   1.886   8.372  0.00  0.00    +0.000 A 
ATOM     29  C   UNL     1      45.235   2.404   9.517  0.00  0.00    +0.000 A 
BRANCH  27  30
ATOM     30  C   UNL     1      46.900   2.183   6.095  0.00  0.00    +0.000 C 
BRANCH  30  31
ATOM     31  N   UNL     1      48.295   1.782   6.198  0.00  0.00    +0.000 NA
ATOM     32  H   UNL     1      48.600   1.425   5.293  0.00  0.00    +0.000 HD
ATOM     33  H   UNL     1      48.364   1.003   6.851  0.00  0.00    +0.000 HD
ENDBRANCH  30  31
ENDBRANCH  27  30
ENDBRANCH  23  24
ENDBRANCH   3  23
TORSDOF 10
ENDMDL
MODEL 5
REMARK VINA RESULT:    -5.990      3.171      6.769
REMARK INTER + INTRA:         -10.350
REMARK INTER:                  -9.926
REMARK INTRA:                  -0.424
REMARK UNBOUND:                -1.209
REMARK  Name = 
REMARK  13 active torsions:
REMARK  status: ('A' for Active; 'I' for Inactive)
REMARK    1  A    between atoms: C_1  and  C_2
REMARK    2  A    between atoms: C_2  and  C_3
REMARK    3  A    between atoms: C_2  and  C_4
REMARK    4  A    between atoms: C_2  and  O_5
REMARK    5  A    between atoms: O_5  and  C_6
REMARK    6  A    between atoms: N_8  and  CA_9
REMARK    7  A    between atoms: CA_9  and  C_10
REMARK    8  A    between atoms: CA_9  and  C_12
REMARK    9  A    between atoms: C_10  and  O_11
REMARK   10  A    between atoms: N_14  and  C_15
REMARK   11  A    between atoms: C_15  and  C_16
REMARK   12  A    between atoms: C_19  and  C_20
REMARK   13  A    between atoms: C_20  and  N_21
REMARK                            x       y       z     vdW  Elec       q    Type
REMARK                         _______ _______ _______ _____ _____    ______ ____
ROOT
ATOM      1  C   UNL     1      45.219   5.308  11.472  0.00  0.00    +0.000 A 
ATOM      2  C   UNL     1      45.486   6.661  11.335  0.00  0.00    +0.000 A 
ATOM      3  N   UNL     1      46.345   7.049  12.333  0.00  0.00    +0.000 N 
ATOM      4  C   UNL     1      46.700   5.960  13.098  0.00  0.00    +0.000 A 
ATOM      5  C   UNL     1      47.558   5.845  14.189  0.00  0.00    +0.000 A 
ATOM      6  N   UNL     1      47.717   4.645  14.789  0.00  0.00    +0.000 NA
ATOM      7  C   UNL     1      47.044   3.581  14.309  0.00  0.00    +0.000 A 
ATOM      8  C   UNL     1      46.182   3.614  13.223  0.00  0.00    +0.000 A 
ATOM      9  C   UNL     1      46.002   4.858  12.590  0.00  0.00    +0.000 A 
ENDROOT
BRANCH   1  10
ATOM     10  CA  UNL     1      44.291   4.469  10.635  0.00  0.00    +0.000 C 
BRANCH  10  13
ATOM     11  C   UNL     1      44.954   3.313   8.568  0.00  0.00    +0.000 C 
ATOM     12  O   UNL     1      44.177   3.966   7.897  0.00  0.00    +0.000 OA
ATOM     13  N   UNL     1      45.077   3.473   9.910  0.00  0.00    +0.000 N 
ATOM     14  H   UNL     1      45.660   2.810  10.402  0.00  0.00    +0.000 HD
BRANCH  11  15
ATOM     15  O   UNL     1      45.778   2.337   8.122  0.00  0.00    +0.000 OA
BRANCH  15  17
ATOM     16  C   UNL     1      47.922   1.659   7.148  0.00  0.00    +0.000 C 
ATOM     17  C   UNL     1      46.769   2.673   7.115  0.00  0.00    +0.000 C 
ATOM     18  C   UNL     1      47.261   4.121   7.258  0.00  0.00    +0.000 C 
ATOM     19  C   UNL     1      46.066   2.549   5.755  0.00  0.00    +0.000 C 
ENDBRANCH  15  17
ENDBRANCH  11  15
ENDBRANCH  10  13
BRANCH  10  20
ATOM     20  C   UNL     1      43.163   3.820  11.472  0.00  0.00    +0.000 C 
BRANCH  20  21
ATOM     21  O   UNL     1      43.217   2.390  11.508  0.00  0.00    +0.000 OA
ATOM     22  H   UNL     1      42.623   2.070  12.214  0.00  0.00    +0.000 HD
ENDBRANCH  20  21
ENDBRANCH  10  20
ENDBRANCH   1  10
BRANCH   3  23
ATOM     23  C   UNL     1      46.749   8.435  12.563  0.00  0.00    +0.000 C 
BRANCH  23  24
ATOM     24  C   UNL     1      48.118   8.716  12.004  0.00  0.00    +0.000 A 
ATOM     25  C   UNL     1      49.005   7.669  11.709  0.00  0.00    +0.000 A 
ATOM     26  C   UNL     1      50.304   7.936  11.275  0.00  0.00    +0.000 A 
ATOM     27  C   UNL     1      50.743   9.255  11.113  0.00  0.00    +0.000 A 
ATOM     28  C   UNL     1      49.836  10.299  11.339  0.00  0.00    +0.000 A 
ATOM     29  C   UNL     1      48.536  10.033  11.780  0.00  0.00    +0.000 A 
BRANCH  27  30
ATOM     30  C   UNL     1      52.181   9.546  10.771  0.00  0.00    +0.000 C 
BRANCH  30  31
ATOM     31  N   UNL     1      52.333  10.071   9.422  0.00  0.00    +0.000 NA
ATOM     32  H   UNL     1      53.258   9.817   9.075  0.00  0.00    +0.000 HD
ATOM     33  H   UNL     1      52.312  11.088   9.463  0.00  0.00    +0.000 HD
ENDBRANCH  30  31
ENDBRANCH  27  30
ENDBRANCH  23  24
ENDBRANCH   3  23
TORSDOF 10
ENDMDL
MODEL 6
REMARK VINA RESULT:    -5.890      3.578      7.773
REMARK INTER + INTRA:         -10.199
REMARK INTER:                  -9.593
REMARK INTRA:                  -0.605
REMARK UNBOUND:                -1.209
REMARK  Name = 
REMARK  13 active torsions:
REMARK  status: ('A' for Active; 'I' for Inactive)
REMARK    1  A    between atoms: C_1  and  C_2
REMARK    2  A    between atoms: C_2  and  C_3
REMARK    3  A    between atoms: C_2  and  C_4
REMARK    4  A    between atoms: C_2  and  O_5
REMARK    5  A    between atoms: O_5  and  C_6
REMARK    6  A    between atoms: N_8  and  CA_9
REMARK    7  A    between atoms: CA_9  and  C_10
REMARK    8  A    between atoms: CA_9  and  C_12
REMARK    9  A    between atoms: C_10  and  O_11
REMARK   10  A    between atoms: N_14  and  C_15
REMARK   11  A    between atoms: C_15  and  C_16
REMARK   12  A    between atoms: C_19  and  C_20
REMARK   13  A    between atoms: C_20  and  N_21
REMARK                            x       y       z     vdW  Elec       q    Type
REMARK                         _______ _______ _______ _____ _____    ______ ____
ROOT
ATOM      1  C   UNL     1      45.217   5.050  11.829  0.00  0.00    +0.000 A 
ATOM      2  C   UNL     1      46.348   4.719  12.559  0.00  0.00    +0.000 A 
ATOM      3  N   UNL     1      46.975   5.874  12.957  0.00  0.00    +0.000 N 
ATOM      4  C   UNL     1      46.244   6.969  12.551  0.00  0.00    +0.000 A 
ATOM      5  C   UNL     1      46.454   8.333  12.741  0.00  0.00    +0.000 A 
ATOM      6  N   UNL     1      45.585   9.221  12.210  0.00  0.00    +0.000 NA
ATOM      7  C   UNL     1      44.527   8.763  11.513  0.00  0.00    +0.000 A 
ATOM      8  C   UNL     1      44.247   7.423  11.291  0.00  0.00    +0.000 A 
ATOM      9  C   UNL     1      45.145   6.486  11.834  0.00  0.00    +0.000 A 
ENDROOT
BRANCH   1  10
ATOM     10  CA  UNL     1      44.257   4.109  11.153  0.00  0.00    +0.000 C 
BRANCH  10  13
ATOM     11  C   UNL     1      44.932   3.256   8.947  0.00  0.00    +0.000 C 
ATOM     12  O   UNL     1      44.221   4.055   8.367  0.00  0.00    +0.000 OA
ATOM     13  N   UNL     1      45.011   3.193  10.300  0.00  0.00    +0.000 N 
ATOM     14  H   UNL     1      45.535   2.424  10.697  0.00  0.00    +0.000 HD
BRANCH  11  15
ATOM     15  O   UNL     1      45.716   2.313   8.375  0.00  0.00    +0.000 OA
BRANCH  15  17
ATOM     16  C   UNL     1      47.098   4.118   7.461  0.00  0.00    +0.000 C 
ATOM     17  C   UNL     1      46.556   2.696   7.254  0.00  0.00    +0.000 C 
ATOM     18  C   UNL     1      45.827   2.537   5.912  0.00  0.00    +0.000 C 
ATOM     19  C   UNL     1      47.750   1.728   7.256  0.00  0.00    +0.000 C 
ENDBRANCH  15  17
ENDBRANCH  11  15
ENDBRANCH  10  13
BRANCH  10  20
ATOM     20  C   UNL     1      43.358   3.354  12.161  0.00  0.00    +0.000 C 
BRANCH  20  21
ATOM     21  O   UNL     1      43.317   1.939  11.955  0.00  0.00    +0.000 OA
ATOM     22  H   UNL     1      42.903   1.519  12.734  0.00  0.00    +0.000 HD
ENDBRANCH  20  21
ENDBRANCH  10  20
ENDBRANCH   1  10
BRANCH   3  23
ATOM     23  C   UNL     1      48.263   5.902  13.647  0.00  0.00    +0.000 C 
BRANCH  23  24
ATOM     24  C   UNL     1      48.103   5.712  15.132  0.00  0.00    +0.000 A 
ATOM     25  C   UNL     1      48.679   6.612  16.040  0.00  0.00    +0.000 A 
ATOM     26  C   UNL     1      48.605   6.385  17.415  0.00  0.00    +0.000 A 
ATOM     27  C   UNL     1      47.941   5.258  17.915  0.00  0.00    +0.000 A 
ATOM     28  C   UNL     1      47.304   4.396  17.011  0.00  0.00    +0.000 A 
ATOM     29  C   UNL     1      47.384   4.619  15.634  0.00  0.00    +0.000 A 
BRANCH  27  30
ATOM     30  C   UNL     1      47.972   4.942  19.387  0.00  0.00    +0.000 C 
BRANCH  30  31
ATOM     31  N   UNL     1      48.429   3.586  19.652  0.00  0.00    +0.000 NA
ATOM     32  H   UNL     1      48.144   3.323  20.595  0.00  0.00    +0.000 HD
ATOM     33  H   UNL     1      49.447   3.578  19.649  0.00  0.00    +0.000 HD
ENDBRANCH  30  31
ENDBRANCH  27  30
ENDBRANCH  23  24
ENDBRANCH   3  23
TORSDOF 10
ENDMDL
MODEL 7
REMARK VINA RESULT:    -5.875      3.422      5.030
REMARK INTER + INTRA:         -10.174
REMARK INTER:                  -9.384
REMARK INTRA:                  -0.790
REMARK UNBOUND:                -1.209
REMARK  Name = 
REMARK  13 active torsions:
REMARK  status: ('A' for Active; 'I' for Inactive)
REMARK    1  A    between atoms: C_1  and  C_2
REMARK    2  A    between atoms: C_2  and  C_3
REMARK    3  A    between atoms: C_2  and  C_4
REMARK    4  A    between atoms: C_2  and  O_5
REMARK    5  A    between atoms: O_5  and  C_6
REMARK    6  A    between atoms: N_8  and  CA_9
REMARK    7  A    between atoms: CA_9  and  C_10
REMARK    8  A    between atoms: CA_9  and  C_12
REMARK    9  A    between atoms: C_10  and  O_11
REMARK   10  A    between atoms: N_14  and  C_15
REMARK   11  A    between atoms: C_15  and  C_16
REMARK   12  A    between atoms: C_19  and  C_20
REMARK   13  A    between atoms: C_20  and  N_21
REMARK                            x       y       z     vdW  Elec       q    Type
REMARK                         _______ _______ _______ _____ _____    ______ ____
ROOT
ATOM      1  C   UNL     1      47.766   5.881  14.522  0.00  0.00    +0.000 A 
ATOM      2  C   UNL     1      46.593   5.728  13.802  0.00  0.00    +0.000 A 
ATOM      3  N   UNL     1      46.629   6.560  12.710  0.00  0.00    +0.000 N 
ATOM      4  C   UNL     1      47.837   7.222  12.663  0.00  0.00    +0.000 A 
ATOM      5  C   UNL     1      48.348   8.134  11.743  0.00  0.00    +0.000 A 
ATOM      6  N   UNL     1      49.573   8.667  11.943  0.00  0.00    +0.000 NA
ATOM      7  C   UNL     1      50.278   8.294  13.029  0.00  0.00    +0.000 A 
ATOM      8  C   UNL     1      49.841   7.386  13.982  0.00  0.00    +0.000 A 
ATOM      9  C   UNL     1      48.565   6.825  13.790  0.00  0.00    +0.000 A 
ENDROOT
BRANCH   1  10
ATOM     10  CA  UNL     1      48.139   5.209  15.817  0.00  0.00    +0.000 C 
BRANCH  10  13
ATOM     11  C   UNL     1      48.887   6.700  17.625  0.00  0.00    +0.000 C 
ATOM     12  O   UNL     1      50.059   6.469  17.396  0.00  0.00    +0.000 OA
ATOM     13  N   UNL     1      47.877   6.130  16.921  0.00  0.00    +0.000 N 
ATOM     14  H   UNL     1      46.935   6.289  17.254  0.00  0.00    +0.000 HD
BRANCH  11  15
ATOM     15  O   UNL     1      48.401   7.512  18.593  0.00  0.00    +0.000 OA
BRANCH  15  17
ATOM     16  C   UNL     1      49.907   9.442  18.698  0.00  0.00    +0.000 C 
ATOM     17  C   UNL     1      48.484   8.948  18.400  0.00  0.00    +0.000 C 
ATOM     18  C   UNL     1      47.423   9.697  19.219  0.00  0.00    +0.000 C 
ATOM     19  C   UNL     1      48.194   9.204  16.913  0.00  0.00    +0.000 C 
ENDBRANCH  15  17
ENDBRANCH  11  15
ENDBRANCH  10  13
BRANCH  10  20
ATOM     20  C   UNL     1      47.421   3.853  16.010  0.00  0.00    +0.000 C 
BRANCH  20  21
ATOM     21  O   UNL     1      47.846   2.836  15.097  0.00  0.00    +0.000 OA
ATOM     22  H   UNL     1      47.697   1.962  15.507  0.00  0.00    +0.000 HD
ENDBRANCH  20  21
ENDBRANCH  10  20
ENDBRANCH   1  10
BRANCH   3  23
ATOM     23  C   UNL     1      45.507   6.745  11.792  0.00  0.00    +0.000 C 
BRANCH  23  24
ATOM     24  C   UNL     1      45.223   5.495  11.002  0.00  0.00    +0.000 A 
ATOM     25  C   UNL     1      44.537   4.417  11.582  0.00  0.00    +0.000 A 
ATOM     26  C   UNL     1      44.353   3.226  10.877  0.00  0.00    +0.000 A 
ATOM     27  C   UNL     1      44.839   3.091   9.571  0.00  0.00    +0.000 A 
ATOM     28  C   UNL     1      45.460   4.193   8.966  0.00  0.00    +0.000 A 
ATOM     29  C   UNL     1      45.651   5.383   9.673  0.00  0.00    +0.000 A 
BRANCH  27  30
ATOM     30  C   UNL     1      44.756   1.767   8.858  0.00  0.00    +0.000 C 
BRANCH  30  31
ATOM     31  N   UNL     1      46.061   1.290   8.425  0.00  0.00    +0.000 NA
ATOM     32  H   UNL     1      45.927   0.536   7.752  0.00  0.00    +0.000 HD
ATOM     33  H   UNL     1      46.541   0.879   9.223  0.00  0.00    +0.000 HD
ENDBRANCH  30  31
ENDBRANCH  27  30
ENDBRANCH  23  24
ENDBRANCH   3  23
TORSDOF 10
ENDMDL
MODEL 8
REMARK VINA RESULT:    -5.636      3.130      7.460
REMARK INTER + INTRA:          -9.810
REMARK INTER:                  -8.906
REMARK INTRA:                  -0.904
REMARK UNBOUND:                -1.209
REMARK  Name = 
REMARK  13 active torsions:
REMARK  status: ('A' for Active; 'I' for Inactive)
REMARK    1  A    between atoms: C_1  and  C_2
REMARK    2  A    between atoms: C_2  and  C_3
REMARK    3  A    between atoms: C_2  and  C_4
REMARK    4  A    between atoms: C_2  and  O_5
REMARK    5  A    between atoms: O_5  and  C_6
REMARK    6  A    between atoms: N_8  and  CA_9
REMARK    7  A    between atoms: CA_9  and  C_10
REMARK    8  A    between atoms: CA_9  and  C_12
REMARK    9  A    between atoms: C_10  and  O_11
REMARK   10  A    between atoms: N_14  and  C_15
REMARK   11  A    between atoms: C_15  and  C_16
REMARK   12  A    between atoms: C_19  and  C_20
REMARK   13  A    between atoms: C_20  and  N_21
REMARK                            x       y       z     vdW  Elec       q    Type
REMARK                         _______ _______ _______ _____ _____    ______ ____
ROOT
ATOM      1  C   UNL     1      47.634   8.031  13.129  0.00  0.00    +0.000 A 
ATOM      2  C   UNL     1      47.687   8.016  14.514  0.00  0.00    +0.000 A 
ATOM      3  N   UNL     1      48.999   8.098  14.910  0.00  0.00    +0.000 N 
ATOM      4  C   UNL     1      49.816   8.225  13.808  0.00  0.00    +0.000 A 
ATOM      5  C   UNL     1      51.198   8.368  13.702  0.00  0.00    +0.000 A 
ATOM      6  N   UNL     1      51.768   8.448  12.480  0.00  0.00    +0.000 NA
ATOM      7  C   UNL     1      50.981   8.396  11.388  0.00  0.00    +0.000 A 
ATOM      8  C   UNL     1      49.600   8.264  11.413  0.00  0.00    +0.000 A 
ATOM      9  C   UNL     1      48.992   8.175  12.679  0.00  0.00    +0.000 A 
ENDROOT
BRANCH   1  10
ATOM     10  CA  UNL     1      46.412   7.909  12.258  0.00  0.00    +0.000 C 
BRANCH  10  13
ATOM     11  C   UNL     1      45.773   5.706  11.372  0.00  0.00    +0.000 C 
ATOM     12  O   UNL     1      46.144   5.996  10.250  0.00  0.00    +0.000 OA
ATOM     13  N   UNL     1      45.850   6.570  12.415  0.00  0.00    +0.000 N 
ATOM     14  H   UNL     1      45.413   6.287  13.282  0.00  0.00    +0.000 HD
BRANCH  11  15
ATOM     15  O   UNL     1      45.219   4.533  11.757  0.00  0.00    +0.000 OA
BRANCH  15  17
ATOM     16  C   UNL     1      44.211   3.619   9.719  0.00  0.00    +0.000 C 
ATOM     17  C   UNL     1      43.966   4.125  11.148  0.00  0.00    +0.000 C 
ATOM     18  C   UNL     1      42.914   5.242  11.201  0.00  0.00    +0.000 C 
ATOM     19  C   UNL     1      43.440   2.947  11.985  0.00  0.00    +0.000 C 
ENDBRANCH  15  17
ENDBRANCH  11  15
ENDBRANCH  10  13
BRANCH  10  20
ATOM     20  C   UNL     1      45.368   9.014  12.545  0.00  0.00    +0.000 C 
BRANCH  20  21
ATOM     21  O   UNL     1      44.222   8.964  11.690  0.00  0.00    +0.000 OA
ATOM     22  H   UNL     1      43.448   9.305  12.179  0.00  0.00    +0.000 HD
ENDBRANCH  20  21
ENDBRANCH  10  20
ENDBRANCH   1  10
BRANCH   3  23
ATOM     23  C   UNL     1      49.435   7.992  16.301  0.00  0.00    +0.000 C 
BRANCH  23  24
ATOM     24  C   UNL     1      49.654   6.558  16.708  0.00  0.00    +0.000 A 
ATOM     25  C   UNL     1      50.939   6.083  17.009  0.00  0.00    +0.000 A 
ATOM     26  C   UNL     1      51.151   4.734  17.298  0.00  0.00    +0.000 A 
ATOM     27  C   UNL     1      50.081   3.832  17.307  0.00  0.00    +0.000 A 
ATOM     28  C   UNL     1      48.787   4.320  17.077  0.00  0.00    +0.000 A 
ATOM     29  C   UNL     1      48.574   5.669  16.780  0.00  0.00    +0.000 A 
BRANCH  27  30
ATOM     30  C   UNL     1      50.325   2.357  17.491  0.00  0.00    +0.000 C 
BRANCH  30  31
ATOM     31  N   UNL     1      49.974   1.587  16.307  0.00  0.00    +0.000 NA
ATOM     32  H   UNL     1      50.830   1.232  15.882  0.00  0.00    +0.000 HD
ATOM     33  H   UNL     1      49.552   2.212  15.623  0.00  0.00    +0.000 HD
ENDBRANCH  30  31
ENDBRANCH  27  30
ENDBRANCH  23  24
ENDBRANCH   3  23
TORSDOF 10
ENDMDL
MODEL 9
REMARK VINA RESULT:    -5.595      2.590      4.780
REMARK INTER + INTRA:          -9.747
REMARK INTER:                  -8.949
REMARK INTRA:                  -0.798
REMARK UNBOUND:                -1.209
REMARK  Name = 
REMARK  13 active torsions:
REMARK  status: ('A' for Active; 'I' for Inactive)
REMARK    1  A    between atoms: C_1  and  C_2
REMARK    2  A    between atoms: C_2  and  C_3
REMARK    3  A    between atoms: C_2  and  C_4
REMARK    4  A    between atoms: C_2  and  O_5
REMARK    5  A    between atoms: O_5  and  C_6
REMARK    6  A    between atoms: N_8  and  CA_9
REMARK    7  A    between atoms: CA_9  and  C_10
REMARK    8  A    between atoms: CA_9  and  C_12
REMARK    9  A    between atoms: C_10  and  O_11
REMARK   10  A    between atoms: N_14  and  C_15
REMARK   11  A    between atoms: C_15  and  C_16
REMARK   12  A    between atoms: C_19  and  C_20
REMARK   13  A    between atoms: C_20  and  N_21
REMARK                            x       y       z     vdW  Elec       q    Type
REMARK                         _______ _______ _______ _____ _____    ______ ____
ROOT
ATOM      1  C   UNL     1      47.603   8.043  12.954  0.00  0.00    +0.000 A 
ATOM      2  C   UNL     1      46.785   6.926  13.005  0.00  0.00    +0.000 A 
ATOM      3  N   UNL     1      45.544   7.260  12.521  0.00  0.00    +0.000 N 
ATOM      4  C   UNL     1      45.542   8.570  12.096  0.00  0.00    +0.000 A 
ATOM      5  C   UNL     1      44.542   9.343  11.512  0.00  0.00    +0.000 A 
ATOM      6  N   UNL     1      44.791  10.636  11.205  0.00  0.00    +0.000 NA
ATOM      7  C   UNL     1      46.011  11.145  11.466  0.00  0.00    +0.000 A 
ATOM      8  C   UNL     1      47.059  10.435  12.035  0.00  0.00    +0.000 A 
ATOM      9  C   UNL     1      46.813   9.090  12.364  0.00  0.00    +0.000 A 
ENDROOT
BRANCH   1  10
ATOM     10  CA  UNL     1      49.027   8.158  13.428  0.00  0.00    +0.000 C 
BRANCH  10  13
ATOM     11  C   UNL     1      50.037   7.199  15.456  0.00  0.00    +0.000 C 
ATOM     12  O   UNL     1      50.485   8.277  15.800  0.00  0.00    +0.000 OA
ATOM     13  N   UNL     1      49.324   7.034  14.313  0.00  0.00    +0.000 N 
ATOM     14  H   UNL     1      49.091   6.086  14.048  0.00  0.00    +0.000 HD
BRANCH  11  15
ATOM     15  O   UNL     1      50.183   6.022  16.107  0.00  0.00    +0.000 OA
BRANCH  15  17
ATOM     16  C   UNL     1      48.629   7.031  17.712  0.00  0.00    +0.000 C 
ATOM     17  C   UNL     1      49.312   5.740  17.234  0.00  0.00    +0.000 C 
ATOM     18  C   UNL     1      50.058   5.020  18.366  0.00  0.00    +0.000 C 
ATOM     19  C   UNL     1      48.221   4.791  16.713  0.00  0.00    +0.000 C 
ENDBRANCH  15  17
ENDBRANCH  11  15
ENDBRANCH  10  13
BRANCH  10  20
ATOM     20  C   UNL     1      50.035   8.256  12.259  0.00  0.00    +0.000 C 
BRANCH  20  21
ATOM     21  O   UNL     1      50.481   6.988  11.770  0.00  0.00    +0.000 OA
ATOM     22  H   UNL     1      51.428   7.054  11.540  0.00  0.00    +0.000 HD
ENDBRANCH  20  21
ENDBRANCH  10  20
ENDBRANCH   1  10
BRANCH   3  23
ATOM     23  C   UNL     1      44.397   6.355  12.535  0.00  0.00    +0.000 C 
BRANCH  23  24
ATOM     24  C   UNL     1      44.596   5.188  11.604  0.00  0.00    +0.000 A 
ATOM     25  C   UNL     1      45.078   5.381  10.301  0.00  0.00    +0.000 A 
ATOM     26  C   UNL     1      45.177   4.311   9.411  0.00  0.00    +0.000 A 
ATOM     27  C   UNL     1      44.810   3.020   9.808  0.00  0.00    +0.000 A 
ATOM     28  C   UNL     1      44.397   2.815  11.132  0.00  0.00    +0.000 A 
ATOM     29  C   UNL     1      44.291   3.887  12.022  0.00  0.00    +0.000 A 
BRANCH  27  30
ATOM     30  C   UNL     1      44.794   1.889   8.814  0.00  0.00    +0.000 C 
BRANCH  30  31
ATOM     31  N   UNL     1      46.134   1.456   8.446  0.00  0.00    +0.000 NA
ATOM     32  H   UNL     1      46.551   0.974   9.242  0.00  0.00    +0.000 HD
ATOM     33  H   UNL     1      46.709   2.279   8.276  0.00  0.00    +0.000 HD
ENDBRANCH  30  31
ENDBRANCH  27  30
ENDBRANCH  23  24
ENDBRANCH   3  23
TORSDOF 10
ENDMDL
