MODEL 1
REMARK VINA RESULT:    -9.061      0.000      0.000
REMARK INTER + INTRA:         -12.400
REMARK INTER:                 -12.239
REMARK INTRA:                  -0.160
REMARK UNBOUND:                -0.160
REMARK  Name = 
REMARK  7 active torsions:
REMARK  status: ('A' for Active; 'I' for Inactive)
REMARK    1  A    between atoms: C_1  and  O_2
REMARK    2  A    between atoms: O_2  and  C_3
REMARK    3  A    between atoms: C_6  and  C_7
REMARK    4  A    between atoms: C_11  and  C_12
REMARK    5  A    between atoms: C_12  and  N_13
REMARK    6  A    between atoms: N_13  and  C_14
REMARK    7  A    between atoms: C_17  and  C_18
REMARK                            x       y       z     vdW  Elec       q    Type
REMARK                         _______ _______ _______ _____ _____    ______ ____
ROOT
ATOM      1  C   UNL     1      43.876   5.084  11.337  0.00  0.00    +0.000 C 
ATOM      2  C   UNL     1      42.668   5.411  12.199  0.00  0.00    +0.000 C 
ATOM      3  C   UNL     1      43.212   4.022  12.207  0.00  0.00    +0.000 C 
ENDROOT
BRANCH   1   8
ATOM      4  C   UNL     1      46.974   5.601  13.377  0.00  0.00    +0.000 A 
ATOM      5  C   UNL     1      47.663   6.596  12.687  0.00  0.00    +0.000 A 
ATOM      6  C   UNL     1      47.122   7.101  11.513  0.00  0.00    +0.000 A 
ATOM      7  C   UNL     1      45.903   6.610  11.063  0.00  0.00    +0.000 A 
ATOM      8  C   UNL     1      45.239   5.623  11.792  0.00  0.00    +0.000 A 
ATOM      9  N   UNL     1      45.786   5.119  12.933  0.00  0.00    +0.000 NA
BRANCH   4  13
ATOM     10  C   UNL     1      48.275   3.959  17.006  0.00  0.00    +0.000 A 
ATOM     11  N   UNL     1      47.474   3.208  16.241  0.00  0.00    +0.000 NA
ATOM     12  C   UNL     1      47.096   3.761  15.066  0.00  0.00    +0.000 A 
ATOM     13  C   UNL     1      47.450   5.029  14.637  0.00  0.00    +0.000 A 
ATOM     14  C   UNL     1      48.284   5.690  15.521  0.00  0.00    +0.000 A 
ATOM     15  N   UNL     1      48.707   5.192  16.701  0.00  0.00    +0.000 NA
BRANCH  10  17
ATOM     16  C   UNL     1      48.717   4.395  19.236  0.00  0.00    +0.000 C 
ATOM     17  O   UNL     1      48.614   3.406  18.220  0.00  0.00    +0.000 OA
ENDBRANCH  10  17
ENDBRANCH   4  13
ENDBRANCH   1   8
BRANCH   1  18
ATOM     18  N   UNL     1      43.769   4.842   9.878  0.00  0.00    +0.000 N 
ATOM     19  H   UNL     1      42.820   4.912   9.516  0.00  0.00    +0.000 HD
BRANCH  18  20
ATOM     20  C   UNL     1      44.544   3.888   9.191  0.00  0.00    +0.000 A 
ATOM     21  C   UNL     1      45.510   4.320   8.276  0.00  0.00    +0.000 A 
ATOM     22  C   UNL     1      46.357   3.400   7.652  0.00  0.00    +0.000 A 
ATOM     23  C   UNL     1      46.220   2.060   7.982  0.00  0.00    +0.000 A 
ATOM     24  N   UNL     1      45.314   1.590   8.877  0.00  0.00    +0.000 NA
ATOM     25  C   UNL     1      44.524   2.521   9.465  0.00  0.00    +0.000 A 
BRANCH  23  26
ATOM     26  C   UNL     1      47.102   1.031   7.350  0.00  0.00    +0.000 C 
ATOM     27  N   UNL     1      46.782  -0.265   7.667  0.00  0.00    +0.000 N 
ATOM     28  O   UNL     1      48.034   1.309   6.611  0.00  0.00    +0.000 OA
ATOM     29  H   UNL     1      46.009  -0.443   8.300  0.00  0.00    +0.000 HD
ATOM     30  H   UNL     1      47.335  -1.021   7.297  0.00  0.00    +0.000 HD
ENDBRANCH  23  26
ENDBRANCH  18  20
ENDBRANCH   1  18
TORSDOF 6
ENDMDL
MODEL 2
REMARK VINA RESULT:    -8.741      3.158      4.375
REMARK INTER + INTRA:         -11.968
REMARK INTER:                 -11.034
REMARK INTRA:                  -0.934
REMARK UNBOUND:                -0.160
REMARK  Name = 
REMARK  7 active torsions:
REMARK  status: ('A' for Active; 'I' for Inactive)
REMARK    1  A    between atoms: C_1  and  O_2
REMARK    2  A    between atoms: O_2  and  C_3
REMARK    3  A    between atoms: C_6  and  C_7
REMARK    4  A    between atoms: C_11  and  C_12
REMARK    5  A    between atoms: C_12  and  N_13
REMARK    6  A    between atoms: N_13  and  C_14
REMARK    7  A    between atoms: C_17  and  C_18
REMARK                            x       y       z     vdW  Elec       q    Type
REMARK                         _______ _______ _______ _____ _____    ______ ____
ROOT
ATOM      1  C   UNL     1      43.795   5.001  11.352  0.00  0.00    +0.000 C 
ATOM      2  C   UNL     1      43.009   6.271  11.070  0.00  0.00    +0.000 C 
ATOM      3  C   UNL     1      42.513   5.326  12.113  0.00  0.00    +0.000 C 
ENDROOT
BRANCH   1   8
ATOM      4  C   UNL     1      47.075   6.382  12.514  0.00  0.00    +0.000 A 
ATOM      5  C   UNL     1      47.547   5.416  13.399  0.00  0.00    +0.000 A 
ATOM      6  C   UNL     1      46.772   4.292  13.648  0.00  0.00    +0.000 A 
ATOM      7  C   UNL     1      45.551   4.155  12.998  0.00  0.00    +0.000 A 
ATOM      8  C   UNL     1      45.123   5.140  12.108  0.00  0.00    +0.000 A 
ATOM      9  N   UNL     1      45.880   6.249  11.885  0.00  0.00    +0.000 NA
BRANCH   4  13
ATOM     10  C   UNL     1      49.288   9.815  11.575  0.00  0.00    +0.000 A 
ATOM     11  N   UNL     1      49.928   8.640  11.541  0.00  0.00    +0.000 NA
ATOM     12  C   UNL     1      49.176   7.553  11.825  0.00  0.00    +0.000 A 
ATOM     13  C   UNL     1      47.834   7.585  12.168  0.00  0.00    +0.000 A 
ATOM     14  C   UNL     1      47.300   8.860  12.156  0.00  0.00    +0.000 A 
ATOM     15  N   UNL     1      47.990   9.984  11.872  0.00  0.00    +0.000 NA
BRANCH  10  17
ATOM     16  C   UNL     1      51.190  10.970  12.211  0.00  0.00    +0.000 C 
ATOM     17  O   UNL     1      50.074  10.918  11.331  0.00  0.00    +0.000 OA
ENDBRANCH  10  17
ENDBRANCH   4  13
ENDBRANCH   1   8
BRANCH   1  18
ATOM     18  N   UNL     1      43.708   3.803  10.482  0.00  0.00    +0.000 N 
ATOM     19  H   UNL     1      43.308   2.986  10.941  0.00  0.00    +0.000 HD
BRANCH  18  20
ATOM     20  C   UNL     1      44.684   3.466   9.526  0.00  0.00    +0.000 A 
ATOM     21  C   UNL     1      45.063   2.127   9.376  0.00  0.00    +0.000 A 
ATOM     22  C   UNL     1      45.959   1.752   8.372  0.00  0.00    +0.000 A 
ATOM     23  C   UNL     1      46.440   2.740   7.525  0.00  0.00    +0.000 A 
ATOM     24  N   UNL     1      46.090   4.048   7.614  0.00  0.00    +0.000 NA
ATOM     25  C   UNL     1      45.210   4.361   8.596  0.00  0.00    +0.000 A 
BRANCH  23  26
ATOM     26  C   UNL     1      47.397   2.396   6.429  0.00  0.00    +0.000 C 
ATOM     27  N   UNL     1      47.303   3.200   5.319  0.00  0.00    +0.000 N 
ATOM     28  O   UNL     1      48.200   1.479   6.502  0.00  0.00    +0.000 OA
ATOM     29  H   UNL     1      46.608   3.937   5.301  0.00  0.00    +0.000 HD
ATOM     30  H   UNL     1      47.901   3.029   4.527  0.00  0.00    +0.000 HD
ENDBRANCH  23  26
ENDBRANCH  18  20
ENDBRANCH   1  18
TORSDOF 6
ENDMDL
MODEL 3
REMARK VINA RESULT:    -8.118      1.401      7.739
REMARK INTER + INTRA:         -11.125
REMARK INTER:                 -10.277
REMARK INTRA:                  -0.849
REMARK UNBOUND:                -0.160
REMARK  Name = 
REMARK  7 active torsions:
REMARK  status: ('A' for Active; 'I' for Inactive)
REMARK    1  A    between atoms: C_1  and  O_2
REMARK    2  A    between atoms: O_2  and  C_3
REMARK    3  A    between atoms: C_6  and  C_7
REMARK    4  A    between atoms: C_11  and  C_12
REMARK    5  A    between atoms: C_12  and  N_13
REMARK    6  A    between atoms: N_13  and  C_14
REMARK    7  A    between atoms: C_17  and  C_18
REMARK                            x       y       z     vdW  Elec       q    Type
REMARK                         _______ _______ _______ _____ _____    ______ ____
ROOT
ATOM      1  C   UNL     1      46.280   7.310  12.534  0.00  0.00    +0.000 C 
ATOM      2  C   UNL     1      45.759   8.554  13.234  0.00  0.00    +0.000 C 
ATOM      3  C   UNL     1      46.454   8.696  11.922  0.00  0.00    +0.000 C 
ENDROOT
BRANCH   1   8
ATOM      4  C   UNL     1      44.778   4.688  10.322  0.00  0.00    +0.000 A 
ATOM      5  C   UNL     1      43.426   4.707  10.657  0.00  0.00    +0.000 A 
ATOM      6  C   UNL     1      42.987   5.577  11.644  0.00  0.00    +0.000 A 
ATOM      7  C   UNL     1      43.905   6.415  12.264  0.00  0.00    +0.000 A 
ATOM      8  C   UNL     1      45.249   6.374  11.889  0.00  0.00    +0.000 A 
ATOM      9  N   UNL     1      45.674   5.503  10.933  0.00  0.00    +0.000 NA
BRANCH   4  13
ATOM     10  C   UNL     1      46.400   2.197   7.368  0.00  0.00    +0.000 A 
ATOM     11  N   UNL     1      45.877   1.610   8.451  0.00  0.00    +0.000 NA
ATOM     12  C   UNL     1      45.340   2.444   9.370  0.00  0.00    +0.000 A 
ATOM     13  C   UNL     1      45.329   3.825   9.275  0.00  0.00    +0.000 A 
ATOM     14  C   UNL     1      45.894   4.296   8.104  0.00  0.00    +0.000 A 
ATOM     15  N   UNL     1      46.436   3.519   7.143  0.00  0.00    +0.000 NA
BRANCH  10  17
ATOM     16  C   UNL     1      47.920   2.018   5.631  0.00  0.00    +0.000 C 
ATOM     17  O   UNL     1      46.985   1.342   6.462  0.00  0.00    +0.000 OA
ENDBRANCH  10  17
ENDBRANCH   4  13
ENDBRANCH   1   8
BRANCH   1  18
ATOM     18  N   UNL     1      47.546   6.646  12.929  0.00  0.00    +0.000 N 
ATOM     19  H   UNL     1      48.093   6.297  12.144  0.00  0.00    +0.000 HD
BRANCH  18  20
ATOM     20  C   UNL     1      47.678   5.847  14.080  0.00  0.00    +0.000 A 
ATOM     21  C   UNL     1      48.376   6.347  15.186  0.00  0.00    +0.000 A 
ATOM     22  C   UNL     1      48.440   5.615  16.373  0.00  0.00    +0.000 A 
ATOM     23  C   UNL     1      47.778   4.397  16.425  0.00  0.00    +0.000 A 
ATOM     24  N   UNL     1      47.071   3.875  15.390  0.00  0.00    +0.000 NA
ATOM     25  C   UNL     1      47.028   4.628  14.263  0.00  0.00    +0.000 A 
BRANCH  23  26
ATOM     26  C   UNL     1      47.807   3.572  17.672  0.00  0.00    +0.000 C 
ATOM     27  N   UNL     1      46.786   2.660  17.775  0.00  0.00    +0.000 N 
ATOM     28  O   UNL     1      48.664   3.690  18.535  0.00  0.00    +0.000 OA
ATOM     29  H   UNL     1      46.090   2.613  17.039  0.00  0.00    +0.000 HD
ATOM     30  H   UNL     1      46.721   2.074  18.591  0.00  0.00    +0.000 HD
ENDBRANCH  23  26
ENDBRANCH  18  20
ENDBRANCH   1  18
TORSDOF 6
ENDMDL
MODEL 4
REMARK VINA RESULT:    -7.810      2.198      2.869
REMARK INTER + INTRA:         -10.710
REMARK INTER:                 -10.890
REMARK INTRA:                   0.180
REMARK UNBOUND:                -0.160
REMARK  Name = 
REMARK  7 active torsions:
REMARK  status: ('A' for Active; 'I' for Inactive)
REMARK    1  A    between atoms: C_1  and  O_2
REMARK    2  A    between atoms: O_2  and  C_3
REMARK    3  A    between atoms: C_6  and  C_7
REMARK    4  A    between atoms: C_11  and  C_12
REMARK    5  A    between atoms: C_12  and  N_13
REMARK    6  A    between atoms: N_13  and  C_14
REMARK    7  A    between atoms: C_17  and  C_18
REMARK                            x       y       z     vdW  Elec       q    Type
REMARK                         _______ _______ _______ _____ _____    ______ ____
ROOT
ATOM      1  C   UNL     1      44.286   4.932  11.642  0.00  0.00    +0.000 C 
ATOM      2  C   UNL     1      43.547   4.327  12.825  0.00  0.00    +0.000 C 
ATOM      3  C   UNL     1      44.854   3.740  12.407  0.00  0.00    +0.000 C 
ENDROOT
BRANCH   1   8
ATOM      4  C   UNL     1      46.754   7.527  12.734  0.00  0.00    +0.000 A 
ATOM      5  C   UNL     1      46.193   8.724  12.295  0.00  0.00    +0.000 A 
ATOM      6  C   UNL     1      44.990   8.692  11.605  0.00  0.00    +0.000 A 
ATOM      7  C   UNL     1      44.372   7.468  11.379  0.00  0.00    +0.000 A 
ATOM      8  C   UNL     1      44.961   6.294  11.848  0.00  0.00    +0.000 A 
ATOM      9  N   UNL     1      46.152   6.332  12.508  0.00  0.00    +0.000 NA
BRANCH   4  13
ATOM     10  C   UNL     1      50.362   7.324  14.856  0.00  0.00    +0.000 A 
ATOM     11  N   UNL     1      50.297   8.183  13.832  0.00  0.00    +0.000 NA
ATOM     12  C   UNL     1      49.109   8.239  13.188  0.00  0.00    +0.000 A 
ATOM     13  C   UNL     1      48.004   7.463  13.495  0.00  0.00    +0.000 A 
ATOM     14  C   UNL     1      48.209   6.627  14.577  0.00  0.00    +0.000 A 
ATOM     15  N   UNL     1      49.363   6.531  15.269  0.00  0.00    +0.000 NA
BRANCH  10  17
ATOM     16  C   UNL     1      52.531   8.134  14.891  0.00  0.00    +0.000 C 
ATOM     17  O   UNL     1      51.590   7.242  15.474  0.00  0.00    +0.000 OA
ENDBRANCH  10  17
ENDBRANCH   4  13
ENDBRANCH   1   8
BRANCH   1  18
ATOM     18  N   UNL     1      43.910   4.640  10.237  0.00  0.00    +0.000 N 
ATOM     19  H   UNL     1      42.917   4.457  10.104  0.00  0.00    +0.000 HD
BRANCH  18  20
ATOM     20  C   UNL     1      44.722   3.904   9.353  0.00  0.00    +0.000 A 
ATOM     21  C   UNL     1      45.603   4.584   8.504  0.00  0.00    +0.000 A 
ATOM     22  C   UNL     1      46.486   3.876   7.686  0.00  0.00    +0.000 A 
ATOM     23  C   UNL     1      46.473   2.491   7.758  0.00  0.00    +0.000 A 
ATOM     24  N   UNL     1      45.655   1.783   8.577  0.00  0.00    +0.000 NA
ATOM     25  C   UNL     1      44.824   2.514   9.361  0.00  0.00    +0.000 A 
BRANCH  23  26
ATOM     26  C   UNL     1      47.401   1.681   6.910  0.00  0.00    +0.000 C 
ATOM     27  N   UNL     1      48.472   2.379   6.411  0.00  0.00    +0.000 N 
ATOM     28  O   UNL     1      47.230   0.494   6.674  0.00  0.00    +0.000 OA
ATOM     29  H   UNL     1      48.559   3.367   6.623  0.00  0.00    +0.000 HD
ATOM     30  H   UNL     1      49.139   1.913   5.817  0.00  0.00    +0.000 HD
ENDBRANCH  23  26
ENDBRANCH  18  20
ENDBRANCH   1  18
TORSDOF 6
ENDMDL
MODEL 5
REMARK VINA RESULT:    -7.412      3.228      8.288
REMARK INTER + INTRA:         -10.173
REMARK INTER:                  -9.706
REMARK INTRA:                  -0.467
REMARK UNBOUND:                -0.160
REMARK  Name = 
REMARK  7 active torsions:
REMARK  status: ('A' for Active; 'I' for Inactive)
REMARK    1  A    between atoms: C_1  and  O_2
REMARK    2  A    between atoms: O_2  and  C_3
REMARK    3  A    between atoms: C_6  and  C_7
REMARK    4  A    between atoms: C_11  and  C_12
REMARK    5  A    between atoms: C_12  and  N_13
REMARK    6  A    between atoms: N_13  and  C_14
REMARK    7  A    between atoms: C_17  and  C_18
REMARK                            x       y       z     vdW  Elec       q    Type
REMARK                         _______ _______ _______ _____ _____    ______ ____
ROOT
ATOM      1  C   UNL     1      48.311   4.804  17.169  0.00  0.00    +0.000 C 
ATOM      2  C   UNL     1      47.276   3.727  17.452  0.00  0.00    +0.000 C 
ATOM      3  C   UNL     1      47.166   5.042  18.148  0.00  0.00    +0.000 C 
ENDROOT
BRANCH   1   8
ATOM      4  C   UNL     1      47.306   5.641  13.661  0.00  0.00    +0.000 A 
ATOM      5  C   UNL     1      48.119   6.723  13.333  0.00  0.00    +0.000 A 
ATOM      6  C   UNL     1      49.005   7.214  14.281  0.00  0.00    +0.000 A 
ATOM      7  C   UNL     1      49.066   6.606  15.529  0.00  0.00    +0.000 A 
ATOM      8  C   UNL     1      48.243   5.515  15.812  0.00  0.00    +0.000 A 
ATOM      9  N   UNL     1      47.363   5.052  14.882  0.00  0.00    +0.000 NA
BRANCH   4  13
ATOM     10  C   UNL     1      44.649   3.864  10.951  0.00  0.00    +0.000 A 
ATOM     11  N   UNL     1      44.979   3.161  12.042  0.00  0.00    +0.000 NA
ATOM     12  C   UNL     1      45.818   3.778  12.905  0.00  0.00    +0.000 A 
ATOM     13  C   UNL     1      46.362   5.037  12.719  0.00  0.00    +0.000 A 
ATOM     14  C   UNL     1      45.930   5.650  11.557  0.00  0.00    +0.000 A 
ATOM     15  N   UNL     1      45.088   5.097  10.660  0.00  0.00    +0.000 NA
BRANCH  10  17
ATOM     16  C   UNL     1      44.577   2.353   9.199  0.00  0.00    +0.000 C 
ATOM     17  O   UNL     1      43.833   3.208  10.057  0.00  0.00    +0.000 OA
ENDBRANCH  10  17
ENDBRANCH   4  13
ENDBRANCH   1   8
BRANCH   1  18
ATOM     18  N   UNL     1      49.659   4.792  17.789  0.00  0.00    +0.000 N 
ATOM     19  H   UNL     1      50.122   5.699  17.788  0.00  0.00    +0.000 HD
BRANCH  18  20
ATOM     20  C   UNL     1      50.562   3.720  17.660  0.00  0.00    +0.000 A 
ATOM     21  C   UNL     1      51.890   3.889  18.071  0.00  0.00    +0.000 A 
ATOM     22  C   UNL     1      52.782   2.815  18.044  0.00  0.00    +0.000 A 
ATOM     23  C   UNL     1      52.307   1.584  17.618  0.00  0.00    +0.000 A 
ATOM     24  N   UNL     1      51.027   1.360  17.229  0.00  0.00    +0.000 NA
ATOM     25  C   UNL     1      50.195   2.429  17.284  0.00  0.00    +0.000 A 
BRANCH  23  26
ATOM     26  C   UNL     1      53.216   0.397  17.574  0.00  0.00    +0.000 C 
ATOM     27  N   UNL     1      52.884  -0.608  18.449  0.00  0.00    +0.000 N 
ATOM     28  O   UNL     1      54.178   0.315  16.825  0.00  0.00    +0.000 OA
ATOM     29  H   UNL     1      52.085  -0.484  19.062  0.00  0.00    +0.000 HD
ATOM     30  H   UNL     1      53.452  -1.438  18.495  0.00  0.00    +0.000 HD
ENDBRANCH  23  26
ENDBRANCH  18  20
ENDBRANCH   1  18
TORSDOF 6
ENDMDL
MODEL 6
REMARK VINA RESULT:    -7.320      2.857      4.930
REMARK INTER + INTRA:         -10.047
REMARK INTER:                  -9.254
REMARK INTRA:                  -0.793
REMARK UNBOUND:                -0.160
REMARK  Name = 
REMARK  7 active torsions:
REMARK  status: ('A' for Active; 'I' for Inactive)
REMARK    1  A    between atoms: C_1  and  O_2
REMARK    2  A    between atoms: O_2  and  C_3
REMARK    3  A    between atoms: C_6  and  C_7
REMARK    4  A    between atoms: C_11  and  C_12
REMARK    5  A    between atoms: C_12  and  N_13
REMARK    6  A    between atoms: N_13  and  C_14
REMARK    7  A    between atoms: C_17  and  C_18
REMARK                            x       y       z     vdW  Elec       q    Type
REMARK                         _______ _______ _______ _____ _____    ______ ____
ROOT
ATOM      1  C   UNL     1      48.021   7.490  13.615  0.00  0.00    +0.000 C 
ATOM      2  C   UNL     1      48.980   7.085  12.507  0.00  0.00    +0.000 C 
ATOM      3  C   UNL     1      48.743   8.534  12.770  0.00  0.00    +0.000 C 
ENDROOT
BRANCH   1   8
ATOM      4  C   UNL     1      49.387   5.889  16.712  0.00  0.00    +0.000 A 
ATOM      5  C   UNL     1      49.296   6.894  17.672  0.00  0.00    +0.000 A 
ATOM      6  C   UNL     1      48.800   8.136  17.304  0.00  0.00    +0.000 A 
ATOM      7  C   UNL     1      48.395   8.341  15.991  0.00  0.00    +0.000 A 
ATOM      8  C   UNL     1      48.490   7.302  15.064  0.00  0.00    +0.000 A 
ATOM      9  N   UNL     1      48.996   6.093  15.428  0.00  0.00    +0.000 NA
BRANCH   4  13
ATOM     10  C   UNL     1      50.814   2.033  17.524  0.00  0.00    +0.000 A 
ATOM     11  N   UNL     1      51.665   3.053  17.689  0.00  0.00    +0.000 NA
ATOM     12  C   UNL     1      51.161   4.284  17.443  0.00  0.00    +0.000 A 
ATOM     13  C   UNL     1      49.870   4.540  17.012  0.00  0.00    +0.000 A 
ATOM     14  C   UNL     1      49.100   3.398  16.890  0.00  0.00    +0.000 A 
ATOM     15  N   UNL     1      49.536   2.144  17.131  0.00  0.00    +0.000 NA
BRANCH  10  17
ATOM     16  C   UNL     1      52.773   0.816  17.727  0.00  0.00    +0.000 C 
ATOM     17  O   UNL     1      51.351   0.783  17.731  0.00  0.00    +0.000 OA
ENDBRANCH  10  17
ENDBRANCH   4  13
ENDBRANCH   1   8
BRANCH   1  18
ATOM     18  N   UNL     1      46.549   7.465  13.439  0.00  0.00    +0.000 N 
ATOM     19  H   UNL     1      46.035   7.935  14.182  0.00  0.00    +0.000 HD
BRANCH  18  20
ATOM     20  C   UNL     1      45.849   6.365  12.907  0.00  0.00    +0.000 A 
ATOM     21  C   UNL     1      45.387   6.419  11.587  0.00  0.00    +0.000 A 
ATOM     22  C   UNL     1      44.775   5.308  11.004  0.00  0.00    +0.000 A 
ATOM     23  C   UNL     1      44.658   4.154  11.765  0.00  0.00    +0.000 A 
ATOM     24  N   UNL     1      45.106   4.041  13.041  0.00  0.00    +0.000 NA
ATOM     25  C   UNL     1      45.704   5.141  13.559  0.00  0.00    +0.000 A 
BRANCH  23  26
ATOM     26  C   UNL     1      44.016   2.931  11.191  0.00  0.00    +0.000 C 
ATOM     27  N   UNL     1      44.678   2.392  10.116  0.00  0.00    +0.000 N 
ATOM     28  O   UNL     1      42.989   2.442  11.635  0.00  0.00    +0.000 OA
ATOM     29  H   UNL     1      45.519   2.846   9.775  0.00  0.00    +0.000 HD
ATOM     30  H   UNL     1      44.306   1.575   9.659  0.00  0.00    +0.000 HD
ENDBRANCH  23  26
ENDBRANCH  18  20
ENDBRANCH   1  18
TORSDOF 6
ENDMDL
MODEL 7
REMARK VINA RESULT:    -6.806      3.353      7.888
REMARK INTER + INTRA:          -9.353
REMARK INTER:                  -8.507
REMARK INTRA:                  -0.846
REMARK UNBOUND:                -0.160
REMARK  Name = 
REMARK  7 active torsions:
REMARK  status: ('A' for Active; 'I' for Inactive)
REMARK    1  A    between atoms: C_1  and  O_2
REMARK    2  A    between atoms: O_2  and  C_3
REMARK    3  A    between atoms: C_6  and  C_7
REMARK    4  A    between atoms: C_11  and  C_12
REMARK    5  A    between atoms: C_12  and  N_13
REMARK    6  A    between atoms: N_13  and  C_14
REMARK    7  A    between atoms: C_17  and  C_18
REMARK                            x       y       z     vdW  Elec       q    Type
REMARK                         _______ _______ _______ _____ _____    ______ ____
ROOT
ATOM      1  C   UNL     1      49.095   8.545  16.934  0.00  0.00    +0.000 C 
ATOM      2  C   UNL     1      47.856   9.320  17.350  0.00  0.00    +0.000 C 
ATOM      3  C   UNL     1      49.158  10.038  17.237  0.00  0.00    +0.000 C 
ENDROOT
BRANCH   1   8
ATOM      4  C   UNL     1      48.315   6.892  13.665  0.00  0.00    +0.000 A 
ATOM      5  C   UNL     1      49.376   7.264  12.844  0.00  0.00    +0.000 A 
ATOM      6  C   UNL     1      50.365   8.094  13.353  0.00  0.00    +0.000 A 
ATOM      7  C   UNL     1      50.275   8.522  14.672  0.00  0.00    +0.000 A 
ATOM      8  C   UNL     1      49.203   8.114  15.465  0.00  0.00    +0.000 A 
ATOM      9  N   UNL     1      48.227   7.316  14.952  0.00  0.00    +0.000 NA
BRANCH   4  13
ATOM     10  C   UNL     1      45.202   4.384  12.408  0.00  0.00    +0.000 A 
ATOM     11  N   UNL     1      45.570   5.371  11.583  0.00  0.00    +0.000 NA
ATOM     12  C   UNL     1      46.594   6.144  12.011  0.00  0.00    +0.000 A 
ATOM     13  C   UNL     1      47.242   5.998  13.226  0.00  0.00    +0.000 A 
ATOM     14  C   UNL     1      46.766   4.936  13.974  0.00  0.00    +0.000 A 
ATOM     15  N   UNL     1      45.757   4.121  13.601  0.00  0.00    +0.000 NA
BRANCH  10  17
ATOM     16  C   UNL     1      43.035   4.458  11.597  0.00  0.00    +0.000 C 
ATOM     17  O   UNL     1      44.128   3.634  11.983  0.00  0.00    +0.000 OA
ENDBRANCH  10  17
ENDBRANCH   4  13
ENDBRANCH   1   8
BRANCH   1  18
ATOM     18  N   UNL     1      49.852   7.690  17.880  0.00  0.00    +0.000 N 
ATOM     19  H   UNL     1      50.705   8.121  18.234  0.00  0.00    +0.000 HD
BRANCH  18  20
ATOM     20  C   UNL     1      49.964   6.294  17.746  0.00  0.00    +0.000 A 
ATOM     21  C   UNL     1      48.812   5.503  17.819  0.00  0.00    +0.000 A 
ATOM     22  C   UNL     1      48.882   4.126  17.595  0.00  0.00    +0.000 A 
ATOM     23  C   UNL     1      50.117   3.578  17.282  0.00  0.00    +0.000 A 
ATOM     24  N   UNL     1      51.261   4.301  17.179  0.00  0.00    +0.000 NA
ATOM     25  C   UNL     1      51.141   5.635  17.393  0.00  0.00    +0.000 A 
BRANCH  23  26
ATOM     26  C   UNL     1      50.251   2.111  17.026  0.00  0.00    +0.000 C 
ATOM     27  N   UNL     1      51.104   1.460  17.882  0.00  0.00    +0.000 N 
ATOM     28  O   UNL     1      49.655   1.529  16.132  0.00  0.00    +0.000 OA
ATOM     29  H   UNL     1      51.588   1.992  18.597  0.00  0.00    +0.000 HD
ATOM     30  H   UNL     1      51.265   0.472  17.771  0.00  0.00    +0.000 HD
ENDBRANCH  23  26
ENDBRANCH  18  20
ENDBRANCH   1  18
TORSDOF 6
ENDMDL
MODEL 8
REMARK VINA RESULT:    -6.701      2.179      8.105
REMARK INTER + INTRA:          -9.212
REMARK INTER:                  -8.284
REMARK INTRA:                  -0.928
REMARK UNBOUND:                -0.160
REMARK  Name = 
REMARK  7 active torsions:
REMARK  status: ('A' for Active; 'I' for Inactive)
REMARK    1  A    between atoms: C_1  and  O_2
REMARK    2  A    between atoms: O_2  and  C_3
REMARK    3  A    between atoms: C_6  and  C_7
REMARK    4  A    between atoms: C_11  and  C_12
REMARK    5  A    between atoms: C_12  and  N_13
REMARK    6  A    between atoms: N_13  and  C_14
REMARK    7  A    between atoms: C_17  and  C_18
REMARK                            x       y       z     vdW  Elec       q    Type
REMARK                         _______ _______ _______ _____ _____    ______ ____
ROOT
ATOM      1  C   UNL     1      48.949   8.187  12.895  0.00  0.00    +0.000 C 
ATOM      2  C   UNL     1      49.507   9.591  13.052  0.00  0.00    +0.000 C 
ATOM      3  C   UNL     1      49.899   8.782  11.861  0.00  0.00    +0.000 C 
ENDROOT
BRANCH   1   8
ATOM      4  C   UNL     1      45.769   6.756  11.530  0.00  0.00    +0.000 A 
ATOM      5  C   UNL     1      44.836   7.771  11.729  0.00  0.00    +0.000 A 
ATOM      6  C   UNL     1      45.240   8.947  12.345  0.00  0.00    +0.000 A 
ATOM      7  C   UNL     1      46.566   9.086  12.735  0.00  0.00    +0.000 A 
ATOM      8  C   UNL     1      47.471   8.049  12.503  0.00  0.00    +0.000 A 
ATOM      9  N   UNL     1      47.062   6.891  11.917  0.00  0.00    +0.000 NA
BRANCH   4  13
ATOM     10  C   UNL     1      44.882   3.110   9.662  0.00  0.00    +0.000 A 
ATOM     11  N   UNL     1      44.644   3.205  10.976  0.00  0.00    +0.000 NA
ATOM     12  C   UNL     1      44.918   4.404  11.538  0.00  0.00    +0.000 A 
ATOM     13  C   UNL     1      45.443   5.493  10.864  0.00  0.00    +0.000 A 
ATOM     14  C   UNL     1      45.633   5.259   9.514  0.00  0.00    +0.000 A 
ATOM     15  N   UNL     1      45.370   4.093   8.889  0.00  0.00    +0.000 NA
BRANCH  10  17
ATOM     16  C   UNL     1      45.772   1.397   8.386  0.00  0.00    +0.000 C 
ATOM     17  O   UNL     1      44.645   1.872   9.111  0.00  0.00    +0.000 OA
ENDBRANCH  10  17
ENDBRANCH   4  13
ENDBRANCH   1   8
BRANCH   1  18
ATOM     18  N   UNL     1      49.496   7.026  13.639  0.00  0.00    +0.000 N 
ATOM     19  H   UNL     1      49.713   6.223  13.051  0.00  0.00    +0.000 HD
BRANCH  18  20
ATOM     20  C   UNL     1      49.064   6.656  14.926  0.00  0.00    +0.000 A 
ATOM     21  C   UNL     1      48.212   5.556  15.074  0.00  0.00    +0.000 A 
ATOM     22  C   UNL     1      47.845   5.110  16.346  0.00  0.00    +0.000 A 
ATOM     23  C   UNL     1      48.364   5.776  17.446  0.00  0.00    +0.000 A 
ATOM     24  N   UNL     1      49.209   6.835  17.360  0.00  0.00    +0.000 NA
ATOM     25  C   UNL     1      49.546   7.224  16.105  0.00  0.00    +0.000 A 
BRANCH  23  26
ATOM     26  C   UNL     1      48.011   5.339  18.832  0.00  0.00    +0.000 C 
ATOM     27  N   UNL     1      46.698   5.545  19.176  0.00  0.00    +0.000 N 
ATOM     28  O   UNL     1      48.816   4.838  19.603  0.00  0.00    +0.000 OA
ATOM     29  H   UNL     1      46.074   5.979  18.505  0.00  0.00    +0.000 HD
ATOM     30  H   UNL     1      46.378   5.292  20.097  0.00  0.00    +0.000 HD
ENDBRANCH  23  26
ENDBRANCH  18  20
ENDBRANCH   1  18
TORSDOF 6
ENDMDL
