MODEL 1
REMARK VINA RESULT:    -8.838      0.000      0.000
REMARK INTER + INTRA:         -12.539
REMARK INTER:                 -11.937
REMARK INTRA:                  -0.602
REMARK UNBOUND:                -0.602
REMARK  Name = 
REMARK  6 active torsions:
REMARK  status: ('A' for Active; 'I' for Inactive)
REMARK    1  A    between atoms: C_2  and  C_4
REMARK    2  A    between atoms: C_9  and  C_10
REMARK    3  A    between atoms: N_12  and  C_13
REMARK    4  A    between atoms: C_13  and  C_14
REMARK    5  A    between atoms: C_17  and  C_18
REMARK    6  A    between atoms: C_18  and  C_19
REMARK                            x       y       z     vdW  Elec       q    Type
REMARK                         _______ _______ _______ _____ _____    ______ ____
ROOT
ATOM      1  C   UNL     1      46.337   4.359  14.077  0.00  0.00    +0.000 C 
ATOM      2  O   UNL     1      46.589   3.216  13.705  0.00  0.00    +0.000 OA
ATOM      3  N   UNL     1      45.104   4.922  13.885  0.00  0.00    +0.000 N 
ATOM      4  H   UNL     1      44.927   5.882  14.163  0.00  0.00    +0.000 HD
ENDROOT
BRANCH   1  10
ATOM      5  C   UNL     1      49.332   5.390  18.413  0.00  0.00    +0.000 A 
ATOM      6  N   UNL     1      49.656   6.196  17.449  0.00  0.00    +0.000 NA
ATOM      7  C   UNL     1      48.911   6.031  16.321  0.00  0.00    +0.000 A 
ATOM      8  S   UNL     1      49.178   7.016  14.962  0.00  0.00    +0.000 S 
ATOM      9  C   UNL     1      47.975   6.204  14.072  0.00  0.00    +0.000 A 
ATOM     10  C   UNL     1      47.357   5.171  14.766  0.00  0.00    +0.000 A 
ATOM     11  C   UNL     1      47.895   5.111  16.110  0.00  0.00    +0.000 A 
ATOM     12  C   UNL     1      47.560   4.252  17.234  0.00  0.00    +0.000 A 
ATOM     13  O   UNL     1      46.664   3.416  17.219  0.00  0.00    +0.000 OA
ATOM     14  N   UNL     1      48.327   4.455  18.351  0.00  0.00    +0.000 N 
ATOM     15  H   UNL     1      48.143   3.883  19.168  0.00  0.00    +0.000 HD
BRANCH   5  17
ATOM     16  N   UNL     1      49.748   4.416  20.614  0.00  0.00    +0.000 N 
ATOM     17  C   UNL     1      50.073   5.412  19.742  0.00  0.00    +0.000 C 
ATOM     18  O   UNL     1      50.893   6.291  19.960  0.00  0.00    +0.000 OA
ATOM     19  H   UNL     1      50.207   4.369  21.512  0.00  0.00    +0.000 HD
ATOM     20  H   UNL     1      49.073   3.707  20.351  0.00  0.00    +0.000 HD
ENDBRANCH   5  17
ENDBRANCH   1  10
BRANCH   3  21
ATOM     21  C   UNL     1      44.010   4.227  13.250  0.00  0.00    +0.000 C 
BRANCH  21  22
ATOM     22  C   UNL     1      44.245   4.083  11.767  0.00  0.00    +0.000 A 
ATOM     23  C   UNL     1      43.916   2.895  11.101  0.00  0.00    +0.000 A 
ATOM     24  C   UNL     1      44.119   2.770   9.723  0.00  0.00    +0.000 A 
ATOM     25  C   UNL     1      44.663   3.828   8.981  0.00  0.00    +0.000 A 
ATOM     26  C   UNL     1      45.008   5.009   9.652  0.00  0.00    +0.000 A 
ATOM     27  C   UNL     1      44.810   5.131  11.032  0.00  0.00    +0.000 A 
BRANCH  25  28
ATOM     28  C   UNL     1      44.848   3.710   7.484  0.00  0.00    +0.000 C 
BRANCH  28  29
ATOM     29  C   UNL     1      46.065   2.908   7.087  0.00  0.00    +0.000 A 
ATOM     30  C   UNL     1      46.820   3.259   5.963  0.00  0.00    +0.000 A 
ATOM     31  C   UNL     1      47.893   2.458   5.603  0.00  0.00    +0.000 A 
ATOM     32  N   UNL     1      48.267   1.351   6.279  0.00  0.00    +0.000 NA
ATOM     33  C   UNL     1      47.533   1.033   7.365  0.00  0.00    +0.000 A 
ATOM     34  C   UNL     1      46.441   1.767   7.804  0.00  0.00    +0.000 A 
ENDBRANCH  28  29
ENDBRANCH  25  28
ENDBRANCH  21  22
ENDBRANCH   3  21
TORSDOF 6
ENDMDL
MODEL 2
REMARK VINA RESULT:    -8.578      2.754      3.838
REMARK INTER + INTRA:         -12.188
REMARK INTER:                 -11.109
REMARK INTRA:                  -1.079
REMARK UNBOUND:                -0.602
REMARK  Name = 
REMARK  6 active torsions:
REMARK  status: ('A' for Active; 'I' for Inactive)
REMARK    1  A    between atoms: C_2  and  C_4
REMARK    2  A    between atoms: C_9  and  C_10
REMARK    3  A    between atoms: N_12  and  C_13
REMARK    4  A    between atoms: C_13  and  C_14
REMARK    5  A    between atoms: C_17  and  C_18
REMARK    6  A    between atoms: C_18  and  C_19
REMARK                            x       y       z     vdW  Elec       q    Type
REMARK                         _______ _______ _______ _____ _____    ______ ____
ROOT
ATOM      1  C   UNL     1      46.819   4.881  14.374  0.00  0.00    +0.000 C 
ATOM      2  O   UNL     1      46.834   3.663  14.536  0.00  0.00    +0.000 OA
ATOM      3  N   UNL     1      45.749   5.517  13.806  0.00  0.00    +0.000 N 
ATOM      4  H   UNL     1      45.771   6.519  13.644  0.00  0.00    +0.000 HD
ENDROOT
BRANCH   1  10
ATOM      5  C   UNL     1      50.363   8.799  13.412  0.00  0.00    +0.000 A 
ATOM      6  N   UNL     1      50.503   8.363  14.626  0.00  0.00    +0.000 NA
ATOM      7  C   UNL     1      49.668   7.334  14.941  0.00  0.00    +0.000 A 
ATOM      8  S   UNL     1      49.726   6.619  16.481  0.00  0.00    +0.000 S 
ATOM      9  C   UNL     1      48.460   5.550  16.091  0.00  0.00    +0.000 A 
ATOM     10  C   UNL     1      47.957   5.714  14.805  0.00  0.00    +0.000 A 
ATOM     11  C   UNL     1      48.713   6.746  14.126  0.00  0.00    +0.000 A 
ATOM     12  C   UNL     1      48.619   7.259  12.768  0.00  0.00    +0.000 A 
ATOM     13  O   UNL     1      47.854   6.822  11.917  0.00  0.00    +0.000 OA
ATOM     14  N   UNL     1      49.481   8.288  12.491  0.00  0.00    +0.000 N 
ATOM     15  H   UNL     1      49.460   8.691  11.560  0.00  0.00    +0.000 HD
BRANCH   5  17
ATOM     16  N   UNL     1      51.236  10.095  11.536  0.00  0.00    +0.000 N 
ATOM     17  C   UNL     1      51.194   9.962  12.892  0.00  0.00    +0.000 C 
ATOM     18  O   UNL     1      51.767  10.695  13.683  0.00  0.00    +0.000 OA
ATOM     19  H   UNL     1      51.765  10.850  11.123  0.00  0.00    +0.000 HD
ATOM     20  H   UNL     1      50.714   9.459  10.943  0.00  0.00    +0.000 HD
ENDBRANCH   5  17
ENDBRANCH   1  10
BRANCH   3  21
ATOM     21  C   UNL     1      44.561   4.824  13.367  0.00  0.00    +0.000 C 
BRANCH  21  22
ATOM     22  C   UNL     1      44.629   4.506  11.894  0.00  0.00    +0.000 A 
ATOM     23  C   UNL     1      44.066   3.328  11.388  0.00  0.00    +0.000 A 
ATOM     24  C   UNL     1      44.116   3.045  10.019  0.00  0.00    +0.000 A 
ATOM     25  C   UNL     1      44.738   3.930   9.127  0.00  0.00    +0.000 A 
ATOM     26  C   UNL     1      45.316   5.100   9.638  0.00  0.00    +0.000 A 
ATOM     27  C   UNL     1      45.271   5.380  11.008  0.00  0.00    +0.000 A 
BRANCH  25  28
ATOM     28  C   UNL     1      44.759   3.646   7.641  0.00  0.00    +0.000 C 
BRANCH  28  29
ATOM     29  C   UNL     1      45.986   2.890   7.188  0.00  0.00    +0.000 A 
ATOM     30  C   UNL     1      46.689   3.283   6.045  0.00  0.00    +0.000 A 
ATOM     31  C   UNL     1      47.774   2.522   5.634  0.00  0.00    +0.000 A 
ATOM     32  N   UNL     1      48.208   1.420   6.279  0.00  0.00    +0.000 NA
ATOM     33  C   UNL     1      47.524   1.061   7.385  0.00  0.00    +0.000 A 
ATOM     34  C   UNL     1      46.425   1.753   7.874  0.00  0.00    +0.000 A 
ENDBRANCH  28  29
ENDBRANCH  25  28
ENDBRANCH  21  22
ENDBRANCH   3  21
TORSDOF 6
ENDMDL
MODEL 3
REMARK VINA RESULT:    -8.550      1.738      2.396
REMARK INTER + INTRA:         -12.151
REMARK INTER:                 -11.517
REMARK INTRA:                  -0.634
REMARK UNBOUND:                -0.602
REMARK  Name = 
REMARK  6 active torsions:
REMARK  status: ('A' for Active; 'I' for Inactive)
REMARK    1  A    between atoms: C_2  and  C_4
REMARK    2  A    between atoms: C_9  and  C_10
REMARK    3  A    between atoms: N_12  and  C_13
REMARK    4  A    between atoms: C_13  and  C_14
REMARK    5  A    between atoms: C_17  and  C_18
REMARK    6  A    between atoms: C_18  and  C_19
REMARK                            x       y       z     vdW  Elec       q    Type
REMARK                         _______ _______ _______ _____ _____    ______ ____
ROOT
ATOM      1  C   UNL     1      47.238   7.474  13.088  0.00  0.00    +0.000 C 
ATOM      2  O   UNL     1      47.727   7.940  12.063  0.00  0.00    +0.000 OA
ATOM      3  N   UNL     1      45.902   7.191  13.183  0.00  0.00    +0.000 N 
ATOM      4  H   UNL     1      45.508   6.843  14.051  0.00  0.00    +0.000 HD
ENDROOT
BRANCH   1  10
ATOM      5  C   UNL     1      48.777   4.151  17.015  0.00  0.00    +0.000 A 
ATOM      6  N   UNL     1      49.505   5.226  17.034  0.00  0.00    +0.000 NA
ATOM      7  C   UNL     1      49.151   6.145  16.093  0.00  0.00    +0.000 A 
ATOM      8  S   UNL     1      49.978   7.625  15.983  0.00  0.00    +0.000 S 
ATOM      9  C   UNL     1      49.028   8.118  14.658  0.00  0.00    +0.000 A 
ATOM     10  C   UNL     1      48.081   7.180  14.261  0.00  0.00    +0.000 A 
ATOM     11  C   UNL     1      48.141   6.037  15.148  0.00  0.00    +0.000 A 
ATOM     12  C   UNL     1      47.343   4.822  15.194  0.00  0.00    +0.000 A 
ATOM     13  O   UNL     1      46.394   4.593  14.454  0.00  0.00    +0.000 OA
ATOM     14  N   UNL     1      47.727   3.927  16.158  0.00  0.00    +0.000 N 
ATOM     15  H   UNL     1      47.211   3.058  16.237  0.00  0.00    +0.000 HD
BRANCH   5  17
ATOM     16  N   UNL     1      48.366   3.057  19.160  0.00  0.00    +0.000 N 
ATOM     17  C   UNL     1      49.043   3.003  17.978  0.00  0.00    +0.000 C 
ATOM     18  O   UNL     1      49.825   2.119  17.662  0.00  0.00    +0.000 OA
ATOM     19  H   UNL     1      48.492   2.324  19.843  0.00  0.00    +0.000 HD
ATOM     20  H   UNL     1      47.715   3.813  19.342  0.00  0.00    +0.000 HD
ENDBRANCH   5  17
ENDBRANCH   1  10
BRANCH   3  21
ATOM     21  C   UNL     1      44.972   7.404  12.099  0.00  0.00    +0.000 C 
BRANCH  21  22
ATOM     22  C   UNL     1      44.838   6.166  11.247  0.00  0.00    +0.000 A 
ATOM     23  C   UNL     1      45.730   5.920  10.195  0.00  0.00    +0.000 A 
ATOM     24  C   UNL     1      45.613   4.763   9.417  0.00  0.00    +0.000 A 
ATOM     25  C   UNL     1      44.597   3.831   9.669  0.00  0.00    +0.000 A 
ATOM     26  C   UNL     1      43.695   4.088  10.711  0.00  0.00    +0.000 A 
ATOM     27  C   UNL     1      43.808   5.248  11.485  0.00  0.00    +0.000 A 
BRANCH  25  28
ATOM     28  C   UNL     1      44.492   2.559   8.855  0.00  0.00    +0.000 C 
BRANCH  28  29
ATOM     29  C   UNL     1      45.681   2.321   7.953  0.00  0.00    +0.000 A 
ATOM     30  C   UNL     1      45.997   3.221   6.931  0.00  0.00    +0.000 A 
ATOM     31  C   UNL     1      47.060   2.930   6.089  0.00  0.00    +0.000 A 
ATOM     32  N   UNL     1      47.827   1.825   6.200  0.00  0.00    +0.000 NA
ATOM     33  C   UNL     1      47.514   0.973   7.198  0.00  0.00    +0.000 A 
ATOM     34  C   UNL     1      46.468   1.173   8.088  0.00  0.00    +0.000 A 
ENDBRANCH  28  29
ENDBRANCH  25  28
ENDBRANCH  21  22
ENDBRANCH   3  21
TORSDOF 6
ENDMDL
MODEL 4
REMARK VINA RESULT:    -8.202      2.888      3.600
REMARK INTER + INTRA:         -11.681
REMARK INTER:                 -10.677
REMARK INTRA:                  -1.004
REMARK UNBOUND:                -0.602
REMARK  Name = 
REMARK  6 active torsions:
REMARK  status: ('A' for Active; 'I' for Inactive)
REMARK    1  A    between atoms: C_2  and  C_4
REMARK    2  A    between atoms: C_9  and  C_10
REMARK    3  A    between atoms: N_12  and  C_13
REMARK    4  A    between atoms: C_13  and  C_14
REMARK    5  A    between atoms: C_17  and  C_18
REMARK    6  A    between atoms: C_18  and  C_19
REMARK                            x       y       z     vdW  Elec       q    Type
REMARK                         _______ _______ _______ _____ _____    ______ ____
ROOT
ATOM      1  C   UNL     1      47.011   7.826  13.351  0.00  0.00    +0.000 C 
ATOM      2  O   UNL     1      46.001   8.521  13.275  0.00  0.00    +0.000 OA
ATOM      3  N   UNL     1      46.942   6.461  13.410  0.00  0.00    +0.000 N 
ATOM      4  H   UNL     1      47.785   5.906  13.513  0.00  0.00    +0.000 HD
ENDROOT
BRANCH   1  10
ATOM      5  C   UNL     1      52.121   7.851  15.000  0.00  0.00    +0.000 A 
ATOM      6  N   UNL     1      51.923   8.819  14.159  0.00  0.00    +0.000 NA
ATOM      7  C   UNL     1      50.636   8.911  13.722  0.00  0.00    +0.000 A 
ATOM      8  S   UNL     1      50.184  10.135  12.632  0.00  0.00    +0.000 S 
ATOM      9  C   UNL     1      48.580   9.567  12.578  0.00  0.00    +0.000 A 
ATOM     10  C   UNL     1      48.351   8.442  13.363  0.00  0.00    +0.000 A 
ATOM     11  C   UNL     1      49.569   8.094  14.064  0.00  0.00    +0.000 A 
ATOM     12  C   UNL     1      49.847   7.044  15.031  0.00  0.00    +0.000 A 
ATOM     13  O   UNL     1      49.005   6.265  15.462  0.00  0.00    +0.000 OA
ATOM     14  N   UNL     1      51.150   6.989  15.450  0.00  0.00    +0.000 N 
ATOM     15  H   UNL     1      51.407   6.274  16.122  0.00  0.00    +0.000 HD
BRANCH   5  17
ATOM     16  N   UNL     1      54.212   8.681  15.952  0.00  0.00    +0.000 N 
ATOM     17  C   UNL     1      53.503   7.579  15.576  0.00  0.00    +0.000 C 
ATOM     18  O   UNL     1      53.902   6.428  15.669  0.00  0.00    +0.000 OA
ATOM     19  H   UNL     1      55.135   8.571  16.347  0.00  0.00    +0.000 HD
ATOM     20  H   UNL     1      53.804   9.605  15.864  0.00  0.00    +0.000 HD
ENDBRANCH   5  17
ENDBRANCH   1  10
BRANCH   3  21
ATOM     21  C   UNL     1      45.696   5.732  13.378  0.00  0.00    +0.000 C 
BRANCH  21  22
ATOM     22  C   UNL     1      45.420   5.187  11.999  0.00  0.00    +0.000 A 
ATOM     23  C   UNL     1      45.813   5.895  10.856  0.00  0.00    +0.000 A 
ATOM     24  C   UNL     1      45.570   5.379   9.579  0.00  0.00    +0.000 A 
ATOM     25  C   UNL     1      44.924   4.145   9.417  0.00  0.00    +0.000 A 
ATOM     26  C   UNL     1      44.517   3.446  10.561  0.00  0.00    +0.000 A 
ATOM     27  C   UNL     1      44.753   3.966  11.838  0.00  0.00    +0.000 A 
BRANCH  25  28
ATOM     28  C   UNL     1      44.696   3.565   8.037  0.00  0.00    +0.000 C 
BRANCH  28  29
ATOM     29  C   UNL     1      45.883   2.800   7.501  0.00  0.00    +0.000 A 
ATOM     30  C   UNL     1      46.648   3.310   6.447  0.00  0.00    +0.000 A 
ATOM     31  C   UNL     1      47.692   2.544   5.948  0.00  0.00    +0.000 A 
ATOM     32  N   UNL     1      48.029   1.328   6.426  0.00  0.00    +0.000 NA
ATOM     33  C   UNL     1      47.286   0.857   7.449  0.00  0.00    +0.000 A 
ATOM     34  C   UNL     1      46.221   1.543   8.014  0.00  0.00    +0.000 A 
ENDBRANCH  28  29
ENDBRANCH  25  28
ENDBRANCH  21  22
ENDBRANCH   3  21
TORSDOF 6
ENDMDL
MODEL 5
REMARK VINA RESULT:    -8.118      1.740      2.354
REMARK INTER + INTRA:         -11.567
REMARK INTER:                 -10.689
REMARK INTRA:                  -0.879
REMARK UNBOUND:                -0.602
REMARK  Name = 
REMARK  6 active torsions:
REMARK  status: ('A' for Active; 'I' for Inactive)
REMARK    1  A    between atoms: C_2  and  C_4
REMARK    2  A    between atoms: C_9  and  C_10
REMARK    3  A    between atoms: N_12  and  C_13
REMARK    4  A    between atoms: C_13  and  C_14
REMARK    5  A    between atoms: C_17  and  C_18
REMARK    6  A    between atoms: C_18  and  C_19
REMARK                            x       y       z     vdW  Elec       q    Type
REMARK                         _______ _______ _______ _____ _____    ______ ____
ROOT
ATOM      1  C   UNL     1      47.526   5.938  13.846  0.00  0.00    +0.000 C 
ATOM      2  O   UNL     1      48.408   6.019  12.994  0.00  0.00    +0.000 OA
ATOM      3  N   UNL     1      46.284   6.477  13.649  0.00  0.00    +0.000 N 
ATOM      4  H   UNL     1      45.581   6.434  14.380  0.00  0.00    +0.000 HD
ENDROOT
BRANCH   1  10
ATOM      5  C   UNL     1      49.483   5.880  18.846  0.00  0.00    +0.000 A 
ATOM      6  N   UNL     1      48.873   4.762  18.596  0.00  0.00    +0.000 NA
ATOM      7  C   UNL     1      48.381   4.676  17.329  0.00  0.00    +0.000 A 
ATOM      8  S   UNL     1      47.571   3.273  16.814  0.00  0.00    +0.000 S 
ATOM      9  C   UNL     1      47.279   3.943  15.277  0.00  0.00    +0.000 A 
ATOM     10  C   UNL     1      47.769   5.234  15.119  0.00  0.00    +0.000 A 
ATOM     11  C   UNL     1      48.455   5.635  16.330  0.00  0.00    +0.000 A 
ATOM     12  C   UNL     1      49.173   6.855  16.661  0.00  0.00    +0.000 A 
ATOM     13  O   UNL     1      49.357   7.780  15.878  0.00  0.00    +0.000 OA
ATOM     14  N   UNL     1      49.657   6.899  17.942  0.00  0.00    +0.000 N 
ATOM     15  H   UNL     1      50.164   7.728  18.233  0.00  0.00    +0.000 HD
BRANCH   5  17
ATOM     16  N   UNL     1      49.248   6.802  21.096  0.00  0.00    +0.000 N 
ATOM     17  C   UNL     1      50.075   6.164  20.219  0.00  0.00    +0.000 C 
ATOM     18  O   UNL     1      51.222   5.825  20.464  0.00  0.00    +0.000 OA
ATOM     19  H   UNL     1      49.575   7.017  22.027  0.00  0.00    +0.000 HD
ATOM     20  H   UNL     1      48.298   7.032  20.827  0.00  0.00    +0.000 HD
ENDBRANCH   5  17
ENDBRANCH   1  10
BRANCH   3  21
ATOM     21  C   UNL     1      45.906   7.166  12.438  0.00  0.00    +0.000 C 
BRANCH  21  22
ATOM     22  C   UNL     1      45.587   6.189  11.334  0.00  0.00    +0.000 A 
ATOM     23  C   UNL     1      44.552   5.256  11.479  0.00  0.00    +0.000 A 
ATOM     24  C   UNL     1      44.247   4.363  10.447  0.00  0.00    +0.000 A 
ATOM     25  C   UNL     1      44.975   4.377   9.249  0.00  0.00    +0.000 A 
ATOM     26  C   UNL     1      46.022   5.300   9.112  0.00  0.00    +0.000 A 
ATOM     27  C   UNL     1      46.331   6.189  10.147  0.00  0.00    +0.000 A 
BRANCH  25  28
ATOM     28  C   UNL     1      44.622   3.439   8.115  0.00  0.00    +0.000 C 
BRANCH  28  29
ATOM     29  C   UNL     1      45.822   2.754   7.503  0.00  0.00    +0.000 A 
ATOM     30  C   UNL     1      46.332   1.574   8.055  0.00  0.00    +0.000 A 
ATOM     31  C   UNL     1      47.472   1.014   7.496  0.00  0.00    +0.000 A 
ATOM     32  N   UNL     1      48.123   1.534   6.434  0.00  0.00    +0.000 NA
ATOM     33  C   UNL     1      47.610   2.666   5.909  0.00  0.00    +0.000 A 
ATOM     34  C   UNL     1      46.479   3.304   6.399  0.00  0.00    +0.000 A 
ENDBRANCH  28  29
ENDBRANCH  25  28
ENDBRANCH  21  22
ENDBRANCH   3  21
TORSDOF 6
ENDMDL
MODEL 6
REMARK VINA RESULT:    -7.647      2.557      3.581
REMARK INTER + INTRA:         -10.930
REMARK INTER:                  -9.860
REMARK INTRA:                  -1.070
REMARK UNBOUND:                -0.602
REMARK  Name = 
REMARK  6 active torsions:
REMARK  status: ('A' for Active; 'I' for Inactive)
REMARK    1  A    between atoms: C_2  and  C_4
REMARK    2  A    between atoms: C_9  and  C_10
REMARK    3  A    between atoms: N_12  and  C_13
REMARK    4  A    between atoms: C_13  and  C_14
REMARK    5  A    between atoms: C_17  and  C_18
REMARK    6  A    between atoms: C_18  and  C_19
REMARK                            x       y       z     vdW  Elec       q    Type
REMARK                         _______ _______ _______ _____ _____    ______ ____
ROOT
ATOM      1  C   UNL     1      48.334   8.849  14.731  0.00  0.00    +0.000 C 
ATOM      2  O   UNL     1      49.310   8.801  13.987  0.00  0.00    +0.000 OA
ATOM      3  N   UNL     1      47.064   9.001  14.243  0.00  0.00    +0.000 N 
ATOM      4  H   UNL     1      46.274   9.078  14.875  0.00  0.00    +0.000 HD
ENDROOT
BRANCH   1  10
ATOM      5  C   UNL     1      49.247   5.848  19.090  0.00  0.00    +0.000 A 
ATOM      6  N   UNL     1      49.156   7.099  19.424  0.00  0.00    +0.000 NA
ATOM      7  C   UNL     1      48.881   7.928  18.379  0.00  0.00    +0.000 A 
ATOM      8  S   UNL     1      48.703   9.599  18.632  0.00  0.00    +0.000 S 
ATOM      9  C   UNL     1      48.439   9.875  16.972  0.00  0.00    +0.000 A 
ATOM     10  C   UNL     1      48.492   8.725  16.192  0.00  0.00    +0.000 A 
ATOM     11  C   UNL     1      48.713   7.578  17.048  0.00  0.00    +0.000 A 
ATOM     12  C   UNL     1      48.800   6.160  16.738  0.00  0.00    +0.000 A 
ATOM     13  O   UNL     1      48.639   5.688  15.619  0.00  0.00    +0.000 OA
ATOM     14  N   UNL     1      49.071   5.360  17.817  0.00  0.00    +0.000 N 
ATOM     15  H   UNL     1      49.148   4.360  17.664  0.00  0.00    +0.000 HD
BRANCH   5  17
ATOM     16  N   UNL     1      48.612   3.833  20.314  0.00  0.00    +0.000 N 
ATOM     17  C   UNL     1      49.575   4.778  20.121  0.00  0.00    +0.000 C 
ATOM     18  O   UNL     1      50.644   4.816  20.710  0.00  0.00    +0.000 OA
ATOM     19  H   UNL     1      48.767   3.090  20.981  0.00  0.00    +0.000 HD
ATOM     20  H   UNL     1      47.757   3.855  19.770  0.00  0.00    +0.000 HD
ENDBRANCH   5  17
ENDBRANCH   1  10
BRANCH   3  21
ATOM     21  C   UNL     1      46.769   9.104  12.834  0.00  0.00    +0.000 C 
BRANCH  21  22
ATOM     22  C   UNL     1      46.059   7.871  12.334  0.00  0.00    +0.000 A 
ATOM     23  C   UNL     1      44.866   7.975  11.607  0.00  0.00    +0.000 A 
ATOM     24  C   UNL     1      44.219   6.830  11.131  0.00  0.00    +0.000 A 
ATOM     25  C   UNL     1      44.746   5.554  11.379  0.00  0.00    +0.000 A 
ATOM     26  C   UNL     1      45.930   5.451  12.122  0.00  0.00    +0.000 A 
ATOM     27  C   UNL     1      46.574   6.596  12.603  0.00  0.00    +0.000 A 
BRANCH  25  28
ATOM     28  C   UNL     1      44.070   4.316  10.831  0.00  0.00    +0.000 C 
BRANCH  28  29
ATOM     29  C   UNL     1      44.815   3.680   9.682  0.00  0.00    +0.000 A 
ATOM     30  C   UNL     1      44.938   2.290   9.588  0.00  0.00    +0.000 A 
ATOM     31  C   UNL     1      45.683   1.753   8.549  0.00  0.00    +0.000 A 
ATOM     32  N   UNL     1      46.298   2.494   7.603  0.00  0.00    +0.000 NA
ATOM     33  C   UNL     1      46.160   3.832   7.703  0.00  0.00    +0.000 A 
ATOM     34  C   UNL     1      45.440   4.464   8.707  0.00  0.00    +0.000 A 
ENDBRANCH  28  29
ENDBRANCH  25  28
ENDBRANCH  21  22
ENDBRANCH   3  21
TORSDOF 6
ENDMDL
MODEL 7
REMARK VINA RESULT:    -7.158      4.636      9.514
REMARK INTER + INTRA:         -10.270
REMARK INTER:                  -9.339
REMARK INTRA:                  -0.932
REMARK UNBOUND:                -0.602
REMARK  Name = 
REMARK  6 active torsions:
REMARK  status: ('A' for Active; 'I' for Inactive)
REMARK    1  A    between atoms: C_2  and  C_4
REMARK    2  A    between atoms: C_9  and  C_10
REMARK    3  A    between atoms: N_12  and  C_13
REMARK    4  A    between atoms: C_13  and  C_14
REMARK    5  A    between atoms: C_17  and  C_18
REMARK    6  A    between atoms: C_18  and  C_19
REMARK                            x       y       z     vdW  Elec       q    Type
REMARK                         _______ _______ _______ _____ _____    ______ ____
ROOT
ATOM      1  C   UNL     1      47.346   4.736  14.442  0.00  0.00    +0.000 C 
ATOM      2  O   UNL     1      47.458   3.636  13.906  0.00  0.00    +0.000 OA
ATOM      3  N   UNL     1      47.250   4.867  15.801  0.00  0.00    +0.000 N 
ATOM      4  H   UNL     1      47.118   5.780  16.224  0.00  0.00    +0.000 HD
ENDROOT
BRANCH   1  10
ATOM      5  C   UNL     1      44.664   8.397  11.573  0.00  0.00    +0.000 A 
ATOM      6  N   UNL     1      45.910   8.743  11.678  0.00  0.00    +0.000 NA
ATOM      7  C   UNL     1      46.674   7.844  12.358  0.00  0.00    +0.000 A 
ATOM      8  S   UNL     1      48.338   8.118  12.575  0.00  0.00    +0.000 S 
ATOM      9  C   UNL     1      48.512   6.680  13.469  0.00  0.00    +0.000 A 
ATOM     10  C   UNL     1      47.328   5.970  13.636  0.00  0.00    +0.000 A 
ATOM     11  C   UNL     1      46.260   6.653  12.936  0.00  0.00    +0.000 A 
ATOM     12  C   UNL     1      44.859   6.306  12.763  0.00  0.00    +0.000 A 
ATOM     13  O   UNL     1      44.348   5.274  13.180  0.00  0.00    +0.000 OA
ATOM     14  N   UNL     1      44.127   7.233  12.068  0.00  0.00    +0.000 N 
ATOM     15  H   UNL     1      43.141   7.049  11.918  0.00  0.00    +0.000 HD
BRANCH   5  17
ATOM     16  N   UNL     1      42.368   8.840  10.865  0.00  0.00    +0.000 N 
ATOM     17  C   UNL     1      43.655   9.292  10.868  0.00  0.00    +0.000 C 
ATOM     18  O   UNL     1      44.029  10.333  10.352  0.00  0.00    +0.000 OA
ATOM     19  H   UNL     1      41.647   9.388  10.419  0.00  0.00    +0.000 HD
ATOM     20  H   UNL     1      42.130   7.974  11.335  0.00  0.00    +0.000 HD
ENDBRANCH   5  17
ENDBRANCH   1  10
BRANCH   3  21
ATOM     21  C   UNL     1      47.284   3.742  16.706  0.00  0.00    +0.000 C 
BRANCH  21  22
ATOM     22  C   UNL     1      48.701   3.393  17.087  0.00  0.00    +0.000 A 
ATOM     23  C   UNL     1      49.276   2.182  16.679  0.00  0.00    +0.000 A 
ATOM     24  C   UNL     1      50.595   1.869  17.021  0.00  0.00    +0.000 A 
ATOM     25  C   UNL     1      51.367   2.756  17.785  0.00  0.00    +0.000 A 
ATOM     26  C   UNL     1      50.784   3.959  18.206  0.00  0.00    +0.000 A 
ATOM     27  C   UNL     1      49.462   4.269  17.870  0.00  0.00    +0.000 A 
BRANCH  25  28
ATOM     28  C   UNL     1      52.808   2.437  18.122  0.00  0.00    +0.000 C 
BRANCH  28  29
ATOM     29  C   UNL     1      53.646   3.662  18.406  0.00  0.00    +0.000 A 
ATOM     30  C   UNL     1      54.046   4.513  17.370  0.00  0.00    +0.000 A 
ATOM     31  C   UNL     1      54.865   5.591  17.671  0.00  0.00    +0.000 A 
ATOM     32  N   UNL     1      55.299   5.883  18.915  0.00  0.00    +0.000 NA
ATOM     33  C   UNL     1      54.894   5.057  19.903  0.00  0.00    +0.000 A 
ATOM     34  C   UNL     1      54.080   3.952  19.703  0.00  0.00    +0.000 A 
ENDBRANCH  28  29
ENDBRANCH  25  28
ENDBRANCH  21  22
ENDBRANCH   3  21
TORSDOF 6
ENDMDL
MODEL 8
REMARK VINA RESULT:    -6.866      4.786      9.040
REMARK INTER + INTRA:          -9.876
REMARK INTER:                  -9.357
REMARK INTRA:                  -0.519
REMARK UNBOUND:                -0.602
REMARK  Name = 
REMARK  6 active torsions:
REMARK  status: ('A' for Active; 'I' for Inactive)
REMARK    1  A    between atoms: C_2  and  C_4
REMARK    2  A    between atoms: C_9  and  C_10
REMARK    3  A    between atoms: N_12  and  C_13
REMARK    4  A    between atoms: C_13  and  C_14
REMARK    5  A    between atoms: C_17  and  C_18
REMARK    6  A    between atoms: C_18  and  C_19
REMARK                            x       y       z     vdW  Elec       q    Type
REMARK                         _______ _______ _______ _____ _____    ______ ____
ROOT
ATOM      1  C   UNL     1      47.543   4.914  14.311  0.00  0.00    +0.000 C 
ATOM      2  O   UNL     1      47.554   3.886  13.637  0.00  0.00    +0.000 OA
ATOM      3  N   UNL     1      47.544   4.876  15.679  0.00  0.00    +0.000 N 
ATOM      4  H   UNL     1      47.495   5.734  16.219  0.00  0.00    +0.000 HD
ENDROOT
BRANCH   1  10
ATOM      5  C   UNL     1      44.930   8.937  11.899  0.00  0.00    +0.000 A 
ATOM      6  N   UNL     1      46.179   9.252  12.058  0.00  0.00    +0.000 NA
ATOM      7  C   UNL     1      46.926   8.265  12.626  0.00  0.00    +0.000 A 
ATOM      8  S   UNL     1      48.590   8.491  12.890  0.00  0.00    +0.000 S 
ATOM      9  C   UNL     1      48.740   6.950  13.599  0.00  0.00    +0.000 A 
ATOM     10  C   UNL     1      47.547   6.239  13.666  0.00  0.00    +0.000 A 
ATOM     11  C   UNL     1      46.493   7.017  13.047  0.00  0.00    +0.000 A 
ATOM     12  C   UNL     1      45.090   6.711  12.820  0.00  0.00    +0.000 A 
ATOM     13  O   UNL     1      44.563   5.641  13.101  0.00  0.00    +0.000 OA
ATOM     14  N   UNL     1      44.375   7.727  12.241  0.00  0.00    +0.000 N 
ATOM     15  H   UNL     1      43.389   7.575  12.060  0.00  0.00    +0.000 HD
BRANCH   5  17
ATOM     16  N   UNL     1      43.168   9.444  10.286  0.00  0.00    +0.000 N 
ATOM     17  C   UNL     1      43.937   9.924  11.303  0.00  0.00    +0.000 C 
ATOM     18  O   UNL     1      43.880  11.062  11.744  0.00  0.00    +0.000 OA
ATOM     19  H   UNL     1      42.484  10.045   9.849  0.00  0.00    +0.000 HD
ATOM     20  H   UNL     1      43.257   8.478   9.989  0.00  0.00    +0.000 HD
ENDBRANCH   5  17
ENDBRANCH   1  10
BRANCH   3  21
ATOM     21  C   UNL     1      47.569   3.646  16.434  0.00  0.00    +0.000 C 
BRANCH  21  22
ATOM     22  C   UNL     1      48.944   3.378  16.992  0.00  0.00    +0.000 A 
ATOM     23  C   UNL     1      49.555   2.128  16.825  0.00  0.00    +0.000 A 
ATOM     24  C   UNL     1      50.837   1.888  17.330  0.00  0.00    +0.000 A 
ATOM     25  C   UNL     1      51.535   2.890  18.019  0.00  0.00    +0.000 A 
ATOM     26  C   UNL     1      50.915   4.135  18.200  0.00  0.00    +0.000 A 
ATOM     27  C   UNL     1      49.630   4.372  17.701  0.00  0.00    +0.000 A 
BRANCH  25  28
ATOM     28  C   UNL     1      52.938   2.646  18.531  0.00  0.00    +0.000 C 
BRANCH  28  29
ATOM     29  C   UNL     1      53.806   1.873  17.566  0.00  0.00    +0.000 A 
ATOM     30  C   UNL     1      53.538   0.531  17.279  0.00  0.00    +0.000 A 
ATOM     31  C   UNL     1      54.398  -0.156  16.434  0.00  0.00    +0.000 A 
ATOM     32  N   UNL     1      55.485   0.397  15.855  0.00  0.00    +0.000 NA
ATOM     33  C   UNL     1      55.722   1.695  16.136  0.00  0.00    +0.000 A 
ATOM     34  C   UNL     1      54.925   2.465  16.971  0.00  0.00    +0.000 A 
ENDBRANCH  28  29
ENDBRANCH  25  28
ENDBRANCH  21  22
ENDBRANCH   3  21
TORSDOF 6
ENDMDL
MODEL 9
REMARK VINA RESULT:    -6.521      3.924      9.394
REMARK INTER + INTRA:          -9.410
REMARK INTER:                  -8.282
REMARK INTRA:                  -1.127
REMARK UNBOUND:                -0.602
REMARK  Name = 
REMARK  6 active torsions:
REMARK  status: ('A' for Active; 'I' for Inactive)
REMARK    1  A    between atoms: C_2  and  C_4
REMARK    2  A    between atoms: C_9  and  C_10
REMARK    3  A    between atoms: N_12  and  C_13
REMARK    4  A    between atoms: C_13  and  C_14
REMARK    5  A    between atoms: C_17  and  C_18
REMARK    6  A    between atoms: C_18  and  C_19
REMARK                            x       y       z     vdW  Elec       q    Type
REMARK                         _______ _______ _______ _____ _____    ______ ____
ROOT
ATOM      1  C   UNL     1      47.746   8.582  13.794  0.00  0.00    +0.000 C 
ATOM      2  O   UNL     1      48.843   8.829  13.298  0.00  0.00    +0.000 OA
ATOM      3  N   UNL     1      47.512   8.733  15.134  0.00  0.00    +0.000 N 
ATOM      4  H   UNL     1      46.612   8.486  15.532  0.00  0.00    +0.000 HD
ENDROOT
BRANCH   1  10
ATOM      5  C   UNL     1      44.722   4.622  11.793  0.00  0.00    +0.000 A 
ATOM      6  N   UNL     1      44.249   5.772  11.420  0.00  0.00    +0.000 NA
ATOM      7  C   UNL     1      44.985   6.834  11.851  0.00  0.00    +0.000 A 
ATOM      8  S   UNL     1      44.531   8.419  11.438  0.00  0.00    +0.000 S 
ATOM      9  C   UNL     1      45.830   9.077  12.321  0.00  0.00    +0.000 A 
ATOM     10  C   UNL     1      46.623   8.127  12.954  0.00  0.00    +0.000 A 
ATOM     11  C   UNL     1      46.132   6.803  12.629  0.00  0.00    +0.000 A 
ATOM     12  C   UNL     1      46.629   5.486  12.995  0.00  0.00    +0.000 A 
ATOM     13  O   UNL     1      47.647   5.290  13.646  0.00  0.00    +0.000 OA
ATOM     14  N   UNL     1      45.864   4.445  12.537  0.00  0.00    +0.000 N 
ATOM     15  H   UNL     1      46.157   3.501  12.763  0.00  0.00    +0.000 HD
BRANCH   5  17
ATOM     16  N   UNL     1      43.789   2.466  12.461  0.00  0.00    +0.000 N 
ATOM     17  C   UNL     1      44.017   3.324  11.427  0.00  0.00    +0.000 C 
ATOM     18  O   UNL     1      43.702   3.116  10.265  0.00  0.00    +0.000 OA
ATOM     19  H   UNL     1      43.320   1.588  12.289  0.00  0.00    +0.000 HD
ATOM     20  H   UNL     1      44.060   2.719  13.405  0.00  0.00    +0.000 HD
ENDBRANCH   5  17
ENDBRANCH   1  10
BRANCH   3  21
ATOM     21  C   UNL     1      48.515   9.199  16.062  0.00  0.00    +0.000 C 
BRANCH  21  22
ATOM     22  C   UNL     1      48.995   8.079  16.951  0.00  0.00    +0.000 A 
ATOM     23  C   UNL     1      48.661   6.747  16.672  0.00  0.00    +0.000 A 
ATOM     24  C   UNL     1      49.120   5.710  17.490  0.00  0.00    +0.000 A 
ATOM     25  C   UNL     1      49.919   5.981  18.609  0.00  0.00    +0.000 A 
ATOM     26  C   UNL     1      50.238   7.315  18.897  0.00  0.00    +0.000 A 
ATOM     27  C   UNL     1      49.773   8.353  18.083  0.00  0.00    +0.000 A 
BRANCH  25  28
ATOM     28  C   UNL     1      50.451   4.858  19.473  0.00  0.00    +0.000 C 
BRANCH  28  29
ATOM     29  C   UNL     1      51.777   4.310  19.000  0.00  0.00    +0.000 A 
ATOM     30  C   UNL     1      51.832   3.220  18.125  0.00  0.00    +0.000 A 
ATOM     31  C   UNL     1      53.072   2.713  17.767  0.00  0.00    +0.000 A 
ATOM     32  N   UNL     1      54.246   3.216  18.203  0.00  0.00    +0.000 NA
ATOM     33  C   UNL     1      54.174   4.274  19.038  0.00  0.00    +0.000 A 
ATOM     34  C   UNL     1      52.984   4.849  19.458  0.00  0.00    +0.000 A 
ENDBRANCH  28  29
ENDBRANCH  25  28
ENDBRANCH  21  22
ENDBRANCH   3  21
TORSDOF 6
ENDMDL
