MODEL 1
REMARK VINA RESULT:    -8.406      0.000      0.000
REMARK INTER + INTRA:         -12.815
REMARK INTER:                 -11.845
REMARK INTRA:                  -0.970
REMARK UNBOUND:                -0.970
REMARK  Name = 
REMARK  7 active torsions:
REMARK  status: ('A' for Active; 'I' for Inactive)
REMARK    1  A    between atoms: C_2  and  C_20
REMARK    2  A    between atoms: N_3  and  C_4
REMARK    3  A    between atoms: C_4  and  C_5
REMARK    4  A    between atoms: C_8  and  C_9
REMARK    5  A    between atoms: C_9  and  C_10
REMARK    6  A    between atoms: C_10  and  N_11
REMARK    7  A    between atoms: N_11  and  C_12
REMARK                            x       y       z     vdW  Elec       q    Type
REMARK                         _______ _______ _______ _____ _____    ______ ____
ROOT
ATOM      1  C   UNL     1      46.895   8.166  13.084  0.00  0.00    +0.000 C 
ENDROOT
BRANCH   1   2
ATOM      2  C   UNL     1      46.087   7.151  12.311  0.00  0.00    +0.000 A 
ATOM      3  C   UNL     1      46.569   6.649  11.107  0.00  0.00    +0.000 A 
ATOM      4  C   UNL     1      45.830   5.680  10.434  0.00  0.00    +0.000 A 
ATOM      5  C   UNL     1      44.630   5.215  10.973  0.00  0.00    +0.000 A 
ATOM      6  C   UNL     1      44.207   5.811  12.158  0.00  0.00    +0.000 A 
ATOM      7  N   UNL     1      44.894   6.764  12.833  0.00  0.00    +0.000 NA
BRANCH   5   8
ATOM      8  C   UNL     1      43.780   4.154  10.315  0.00  0.00    +0.000 C 
BRANCH   8   9
ATOM      9  C   UNL     1      44.169   2.686  10.590  0.00  0.00    +0.000 C 
BRANCH   9  10
ATOM     10  N   UNL     1      44.403   1.928   9.355  0.00  0.00    +0.000 NA
ATOM     11  H   UNL     1      43.618   2.053   8.718  0.00  0.00    +0.000 HD
BRANCH  10  12
ATOM     12  C   UNL     1      45.660   2.267   8.673  0.00  0.00    +0.000 C 
ATOM     13  C   UNL     1      45.366   3.370   7.638  0.00  0.00    +0.000 C 
ATOM     14  C   UNL     1      46.600   3.733   6.812  0.00  0.00    +0.000 C 
ATOM     15  C   UNL     1      47.210   2.507   6.143  0.00  0.00    +0.000 C 
ATOM     16  C   UNL     1      47.534   1.430   7.170  0.00  0.00    +0.000 C 
ATOM     17  C   UNL     1      46.302   1.048   7.985  0.00  0.00    +0.000 C 
ENDBRANCH  10  12
ENDBRANCH   9  10
ENDBRANCH   8   9
ENDBRANCH   5   8
ENDBRANCH   1   2
BRANCH   1  20
ATOM     18  O   UNL     1      49.293   6.760  13.418  0.00  0.00    +0.000 OA
ATOM     19  C   UNL     1      48.610   6.997  14.407  0.00  0.00    +0.000 C 
ATOM     20  N   UNL     1      47.396   7.640  14.337  0.00  0.00    +0.000 N 
ATOM     21  H   UNL     1      46.965   7.980  15.184  0.00  0.00    +0.000 HD
BRANCH  19  22
ATOM     22  C   UNL     1      49.008   6.597  15.754  0.00  0.00    +0.000 A 
ATOM     23  C   UNL     1      49.874   7.319  16.570  0.00  0.00    +0.000 A 
ATOM     24  N   UNL     1      49.955   6.688  17.783  0.00  0.00    +0.000 N 
ATOM     25  C   UNL     1      49.180   5.567  17.767  0.00  0.00    +0.000 A 
ATOM     26  N   UNL     1      49.061   4.729  18.810  0.00  0.00    +0.000 NA
ATOM     27  C   UNL     1      48.252   3.695  18.535  0.00  0.00    +0.000 A 
ATOM     28  N   UNL     1      47.605   3.443  17.388  0.00  0.00    +0.000 NA
ATOM     29  C   UNL     1      47.768   4.330  16.390  0.00  0.00    +0.000 A 
ATOM     30 CL   UNL     1      47.021   3.949  14.917  0.00  0.00    +0.000 Cl
ATOM     31  C   UNL     1      48.571   5.460  16.522  0.00  0.00    +0.000 A 
ATOM     32  H   UNL     1      50.489   6.992  18.586  0.00  0.00    +0.000 HD
ENDBRANCH  19  22
ENDBRANCH   1  20
TORSDOF 7
ENDMDL
MODEL 2
REMARK VINA RESULT:    -8.148      2.283      3.026
REMARK INTER + INTRA:         -12.453
REMARK INTER:                 -11.560
REMARK INTRA:                  -0.893
REMARK UNBOUND:                -0.970
REMARK  Name = 
REMARK  7 active torsions:
REMARK  status: ('A' for Active; 'I' for Inactive)
REMARK    1  A    between atoms: C_2  and  C_20
REMARK    2  A    between atoms: N_3  and  C_4
REMARK    3  A    between atoms: C_4  and  C_5
REMARK    4  A    between atoms: C_8  and  C_9
REMARK    5  A    between atoms: C_9  and  C_10
REMARK    6  A    between atoms: C_10  and  N_11
REMARK    7  A    between atoms: N_11  and  C_12
REMARK                            x       y       z     vdW  Elec       q    Type
REMARK                         _______ _______ _______ _____ _____    ______ ____
ROOT
ATOM      1  C   UNL     1      48.211   6.288  14.125  0.00  0.00    +0.000 C 
ENDROOT
BRANCH   1   2
ATOM      2  C   UNL     1      47.068   5.919  13.211  0.00  0.00    +0.000 A 
ATOM      3  C   UNL     1      46.428   4.693  13.356  0.00  0.00    +0.000 A 
ATOM      4  C   UNL     1      45.347   4.392  12.532  0.00  0.00    +0.000 A 
ATOM      5  C   UNL     1      44.909   5.318  11.585  0.00  0.00    +0.000 A 
ATOM      6  C   UNL     1      45.643   6.497  11.482  0.00  0.00    +0.000 A 
ATOM      7  N   UNL     1      46.706   6.817  12.258  0.00  0.00    +0.000 NA
BRANCH   5   8
ATOM      8  C   UNL     1      43.734   5.077  10.667  0.00  0.00    +0.000 C 
BRANCH   8   9
ATOM      9  C   UNL     1      43.917   4.000   9.577  0.00  0.00    +0.000 C 
BRANCH   9  10
ATOM     10  N   UNL     1      44.811   4.440   8.499  0.00  0.00    +0.000 NA
ATOM     11  H   UNL     1      45.572   4.995   8.885  0.00  0.00    +0.000 HD
BRANCH  10  12
ATOM     12  C   UNL     1      45.354   3.343   7.685  0.00  0.00    +0.000 C 
ATOM     13  C   UNL     1      45.744   2.190   8.630  0.00  0.00    +0.000 C 
ATOM     14  C   UNL     1      46.403   1.028   7.884  0.00  0.00    +0.000 C 
ATOM     15  C   UNL     1      47.602   1.493   7.067  0.00  0.00    +0.000 C 
ATOM     16  C   UNL     1      47.208   2.608   6.107  0.00  0.00    +0.000 C 
ATOM     17  C   UNL     1      46.569   3.779   6.847  0.00  0.00    +0.000 C 
ENDBRANCH  10  12
ENDBRANCH   9  10
ENDBRANCH   8   9
ENDBRANCH   5   8
ENDBRANCH   1   2
BRANCH   1  20
ATOM     18  O   UNL     1      50.080   5.947  16.181  0.00  0.00    +0.000 OA
ATOM     19  C   UNL     1      48.889   5.957  16.468  0.00  0.00    +0.000 C 
ATOM     20  N   UNL     1      47.897   6.072  15.522  0.00  0.00    +0.000 N 
ATOM     21  H   UNL     1      46.950   6.265  15.817  0.00  0.00    +0.000 HD
BRANCH  19  22
ATOM     22  C   UNL     1      48.407   5.821  17.840  0.00  0.00    +0.000 A 
ATOM     23  C   UNL     1      48.262   4.610  18.511  0.00  0.00    +0.000 A 
ATOM     24  N   UNL     1      47.866   4.870  19.795  0.00  0.00    +0.000 N 
ATOM     25  C   UNL     1      47.731   6.215  19.968  0.00  0.00    +0.000 A 
ATOM     26  N   UNL     1      47.342   6.782  21.122  0.00  0.00    +0.000 NA
ATOM     27  C   UNL     1      47.275   8.119  21.027  0.00  0.00    +0.000 A 
ATOM     28  N   UNL     1      47.535   8.879  19.955  0.00  0.00    +0.000 NA
ATOM     29  C   UNL     1      47.925   8.241  18.836  0.00  0.00    +0.000 A 
ATOM     30 CL   UNL     1      48.161   9.206  17.463  0.00  0.00    +0.000 Cl
ATOM     31  C   UNL     1      48.051   6.854  18.777  0.00  0.00    +0.000 A 
ATOM     32  H   UNL     1      47.703   4.189  20.525  0.00  0.00    +0.000 HD
ENDBRANCH  19  22
ENDBRANCH   1  20
TORSDOF 7
ENDMDL
MODEL 3
REMARK VINA RESULT:    -8.125      2.448      3.571
REMARK INTER + INTRA:         -12.420
REMARK INTER:                 -11.390
REMARK INTRA:                  -1.031
REMARK UNBOUND:                -0.970
REMARK  Name = 
REMARK  7 active torsions:
REMARK  status: ('A' for Active; 'I' for Inactive)
REMARK    1  A    between atoms: C_2  and  C_20
REMARK    2  A    between atoms: N_3  and  C_4
REMARK    3  A    between atoms: C_4  and  C_5
REMARK    4  A    between atoms: C_8  and  C_9
REMARK    5  A    between atoms: C_9  and  C_10
REMARK    6  A    between atoms: C_10  and  N_11
REMARK    7  A    between atoms: N_11  and  C_12
REMARK                            x       y       z     vdW  Elec       q    Type
REMARK                         _______ _______ _______ _____ _____    ______ ____
ROOT
ATOM      1  C   UNL     1      47.522   3.928  15.491  0.00  0.00    +0.000 C 
ENDROOT
BRANCH   1   2
ATOM      2  C   UNL     1      46.874   4.441  14.228  0.00  0.00    +0.000 A 
ATOM      3  C   UNL     1      47.230   5.685  13.718  0.00  0.00    +0.000 A 
ATOM      4  C   UNL     1      46.655   6.119  12.527  0.00  0.00    +0.000 A 
ATOM      5  C   UNL     1      45.743   5.305  11.853  0.00  0.00    +0.000 A 
ATOM      6  C   UNL     1      45.413   4.099  12.466  0.00  0.00    +0.000 A 
ATOM      7  N   UNL     1      45.945   3.652  13.629  0.00  0.00    +0.000 NA
BRANCH   5   8
ATOM      8  C   UNL     1      45.089   5.694  10.548  0.00  0.00    +0.000 C 
BRANCH   8   9
ATOM      9  C   UNL     1      45.725   5.131   9.260  0.00  0.00    +0.000 C 
BRANCH   9  10
ATOM     10  N   UNL     1      44.748   4.442   8.408  0.00  0.00    +0.000 NA
ATOM     11  H   UNL     1      44.313   5.108   7.771  0.00  0.00    +0.000 HD
BRANCH  10  12
ATOM     12  C   UNL     1      45.306   3.314   7.649  0.00  0.00    +0.000 C 
ATOM     13  C   UNL     1      45.680   2.200   8.646  0.00  0.00    +0.000 C 
ATOM     14  C   UNL     1      46.352   1.010   7.959  0.00  0.00    +0.000 C 
ATOM     15  C   UNL     1      47.565   1.442   7.144  0.00  0.00    +0.000 C 
ATOM     16  C   UNL     1      47.188   2.518   6.134  0.00  0.00    +0.000 C 
ATOM     17  C   UNL     1      46.536   3.717   6.815  0.00  0.00    +0.000 C 
ENDBRANCH  10  12
ENDBRANCH   9  10
ENDBRANCH   8   9
ENDBRANCH   5   8
ENDBRANCH   1   2
BRANCH   1  20
ATOM     18  O   UNL     1      49.614   5.323  16.721  0.00  0.00    +0.000 OA
ATOM     19  C   UNL     1      48.469   5.521  17.111  0.00  0.00    +0.000 C 
ATOM     20  N   UNL     1      47.383   4.849  16.600  0.00  0.00    +0.000 N 
ATOM     21  H   UNL     1      46.452   5.177  16.813  0.00  0.00    +0.000 HD
BRANCH  19  22
ATOM     22  C   UNL     1      48.152   6.470  18.174  0.00  0.00    +0.000 A 
ATOM     23  C   UNL     1      47.891   6.120  19.495  0.00  0.00    +0.000 A 
ATOM     24  N   UNL     1      47.712   7.266  20.222  0.00  0.00    +0.000 N 
ATOM     25  C   UNL     1      47.830   8.349  19.402  0.00  0.00    +0.000 A 
ATOM     26  N   UNL     1      47.694   9.618  19.821  0.00  0.00    +0.000 NA
ATOM     27  C   UNL     1      47.842  10.497  18.817  0.00  0.00    +0.000 A 
ATOM     28  N   UNL     1      48.088  10.234  17.527  0.00  0.00    +0.000 NA
ATOM     29  C   UNL     1      48.218   8.939  17.183  0.00  0.00    +0.000 A 
ATOM     30 CL   UNL     1      48.436   8.618  15.533  0.00  0.00    +0.000 Cl
ATOM     31  C   UNL     1      48.099   7.908  18.112  0.00  0.00    +0.000 A 
ATOM     32  H   UNL     1      47.531   7.329  21.215  0.00  0.00    +0.000 HD
ENDBRANCH  19  22
ENDBRANCH   1  20
TORSDOF 7
ENDMDL
MODEL 4
REMARK VINA RESULT:    -7.686      2.295      3.293
REMARK INTER + INTRA:         -11.802
REMARK INTER:                 -10.963
REMARK INTRA:                  -0.839
REMARK UNBOUND:                -0.970
REMARK  Name = 
REMARK  7 active torsions:
REMARK  status: ('A' for Active; 'I' for Inactive)
REMARK    1  A    between atoms: C_2  and  C_20
REMARK    2  A    between atoms: N_3  and  C_4
REMARK    3  A    between atoms: C_4  and  C_5
REMARK    4  A    between atoms: C_8  and  C_9
REMARK    5  A    between atoms: C_9  and  C_10
REMARK    6  A    between atoms: C_10  and  N_11
REMARK    7  A    between atoms: N_11  and  C_12
REMARK                            x       y       z     vdW  Elec       q    Type
REMARK                         _______ _______ _______ _____ _____    ______ ____
ROOT
ATOM      1  C   UNL     1      47.206   4.072  15.478  0.00  0.00    +0.000 C 
ENDROOT
BRANCH   1   2
ATOM      2  C   UNL     1      46.688   4.625  14.173  0.00  0.00    +0.000 A 
ATOM      3  C   UNL     1      47.262   5.766  13.623  0.00  0.00    +0.000 A 
ATOM      4  C   UNL     1      46.799   6.232  12.395  0.00  0.00    +0.000 A 
ATOM      5  C   UNL     1      45.781   5.551  11.727  0.00  0.00    +0.000 A 
ATOM      6  C   UNL     1      45.237   4.447  12.379  0.00  0.00    +0.000 A 
ATOM      7  N   UNL     1      45.655   3.974  13.577  0.00  0.00    +0.000 NA
BRANCH   5   8
ATOM      8  C   UNL     1      45.236   5.980  10.385  0.00  0.00    +0.000 C 
BRANCH   8   9
ATOM      9  C   UNL     1      45.739   5.200   9.151  0.00  0.00    +0.000 C 
BRANCH   9  10
ATOM     10  N   UNL     1      44.741   4.250   8.645  0.00  0.00    +0.000 NA
ATOM     11  H   UNL     1      44.005   4.752   8.151  0.00  0.00    +0.000 HD
BRANCH  10  12
ATOM     12  C   UNL     1      45.299   3.200   7.781  0.00  0.00    +0.000 C 
ATOM     13  C   UNL     1      45.737   2.023   8.674  0.00  0.00    +0.000 C 
ATOM     14  C   UNL     1      46.412   0.909   7.873  0.00  0.00    +0.000 C 
ATOM     15  C   UNL     1      47.584   1.436   7.054  0.00  0.00    +0.000 C 
ATOM     16  C   UNL     1      47.143   2.576   6.145  0.00  0.00    +0.000 C 
ATOM     17  C   UNL     1      46.487   3.700   6.939  0.00  0.00    +0.000 C 
ENDBRANCH  10  12
ENDBRANCH   9  10
ENDBRANCH   8   9
ENDBRANCH   5   8
ENDBRANCH   1   2
BRANCH   1  20
ATOM     18  O   UNL     1      46.796   4.375  18.231  0.00  0.00    +0.000 OA
ATOM     19  C   UNL     1      47.578   5.132  17.668  0.00  0.00    +0.000 C 
ATOM     20  N   UNL     1      47.809   5.090  16.313  0.00  0.00    +0.000 N 
ATOM     21  H   UNL     1      48.592   5.597  15.927  0.00  0.00    +0.000 HD
BRANCH  19  22
ATOM     22  C   UNL     1      48.320   6.169  18.379  0.00  0.00    +0.000 A 
ATOM     23  C   UNL     1      47.754   7.325  18.910  0.00  0.00    +0.000 A 
ATOM     24  N   UNL     1      48.728   8.023  19.570  0.00  0.00    +0.000 N 
ATOM     25  C   UNL     1      49.915   7.361  19.464  0.00  0.00    +0.000 A 
ATOM     26  N   UNL     1      51.065   7.803  20.001  0.00  0.00    +0.000 NA
ATOM     27  C   UNL     1      52.090   6.977  19.743  0.00  0.00    +0.000 A 
ATOM     28  N   UNL     1      52.067   5.836  19.041  0.00  0.00    +0.000 NA
ATOM     29  C   UNL     1      50.878   5.454  18.539  0.00  0.00    +0.000 A 
ATOM     30 CL   UNL     1      50.882   4.059  17.576  0.00  0.00    +0.000 Cl
ATOM     31  C   UNL     1      49.717   6.200  18.726  0.00  0.00    +0.000 A 
ATOM     32  H   UNL     1      48.611   8.891  20.075  0.00  0.00    +0.000 HD
ENDBRANCH  19  22
ENDBRANCH   1  20
TORSDOF 7
ENDMDL
MODEL 5
REMARK VINA RESULT:    -7.577      2.492      3.019
REMARK INTER + INTRA:         -11.647
REMARK INTER:                 -10.742
REMARK INTRA:                  -0.905
REMARK UNBOUND:                -0.970
REMARK  Name = 
REMARK  7 active torsions:
REMARK  status: ('A' for Active; 'I' for Inactive)
REMARK    1  A    between atoms: C_2  and  C_20
REMARK    2  A    between atoms: N_3  and  C_4
REMARK    3  A    between atoms: C_4  and  C_5
REMARK    4  A    between atoms: C_8  and  C_9
REMARK    5  A    between atoms: C_9  and  C_10
REMARK    6  A    between atoms: C_10  and  N_11
REMARK    7  A    between atoms: N_11  and  C_12
REMARK                            x       y       z     vdW  Elec       q    Type
REMARK                         _______ _______ _______ _____ _____    ______ ____
ROOT
ATOM      1  C   UNL     1      48.347   6.869  15.197  0.00  0.00    +0.000 C 
ENDROOT
BRANCH   1   2
ATOM      2  C   UNL     1      47.518   6.049  14.239  0.00  0.00    +0.000 A 
ATOM      3  C   UNL     1      47.275   4.705  14.502  0.00  0.00    +0.000 A 
ATOM      4  C   UNL     1      46.470   3.979  13.629  0.00  0.00    +0.000 A 
ATOM      5  C   UNL     1      45.906   4.602  12.515  0.00  0.00    +0.000 A 
ATOM      6  C   UNL     1      46.244   5.937  12.310  0.00  0.00    +0.000 A 
ATOM      7  N   UNL     1      47.034   6.669  13.132  0.00  0.00    +0.000 NA
BRANCH   5   8
ATOM      8  C   UNL     1      45.007   3.890  11.531  0.00  0.00    +0.000 C 
BRANCH   8   9
ATOM      9  C   UNL     1      45.065   4.372  10.066  0.00  0.00    +0.000 C 
BRANCH   9  10
ATOM     10  N   UNL     1      44.254   3.539   9.170  0.00  0.00    +0.000 NA
ATOM     11  H   UNL     1      43.492   4.091   8.780  0.00  0.00    +0.000 HD
BRANCH  10  12
ATOM     12  C   UNL     1      45.017   2.902   8.088  0.00  0.00    +0.000 C 
ATOM     13  C   UNL     1      45.709   1.649   8.659  0.00  0.00    +0.000 C 
ATOM     14  C   UNL     1      46.603   0.960   7.626  0.00  0.00    +0.000 C 
ATOM     15  C   UNL     1      47.624   1.924   7.034  0.00  0.00    +0.000 C 
ATOM     16  C   UNL     1      46.937   3.146   6.438  0.00  0.00    +0.000 C 
ATOM     17  C   UNL     1      46.060   3.850   7.468  0.00  0.00    +0.000 C 
ENDBRANCH  10  12
ENDBRANCH   9  10
ENDBRANCH   8   9
ENDBRANCH   5   8
ENDBRANCH   1   2
BRANCH   1  20
ATOM     18  O   UNL     1      48.727   5.982  17.826  0.00  0.00    +0.000 OA
ATOM     19  C   UNL     1      49.582   5.718  16.989  0.00  0.00    +0.000 C 
ATOM     20  N   UNL     1      49.505   6.150  15.685  0.00  0.00    +0.000 N 
ATOM     21  H   UNL     1      50.126   5.754  14.994  0.00  0.00    +0.000 HD
BRANCH  19  22
ATOM     22  C   UNL     1      50.778   4.941  17.302  0.00  0.00    +0.000 A 
ATOM     23  C   UNL     1      52.008   5.490  17.652  0.00  0.00    +0.000 A 
ATOM     24  N   UNL     1      52.870   4.469  17.952  0.00  0.00    +0.000 N 
ATOM     25  C   UNL     1      52.236   3.273  17.786  0.00  0.00    +0.000 A 
ATOM     26  N   UNL     1      52.825   2.084  17.993  0.00  0.00    +0.000 NA
ATOM     27  C   UNL     1      51.991   1.061  17.747  0.00  0.00    +0.000 A 
ATOM     28  N   UNL     1      50.718   1.123  17.336  0.00  0.00    +0.000 NA
ATOM     29  C   UNL     1      50.194   2.349  17.156  0.00  0.00    +0.000 A 
ATOM     30 CL   UNL     1      48.614   2.410  16.546  0.00  0.00    +0.000 Cl
ATOM     31  C   UNL     1      50.930   3.511  17.376  0.00  0.00    +0.000 A 
ATOM     32  H   UNL     1      53.828   4.560  18.261  0.00  0.00    +0.000 HD
ENDBRANCH  19  22
ENDBRANCH   1  20
TORSDOF 7
ENDMDL
MODEL 6
REMARK VINA RESULT:    -7.411      2.321      2.850
REMARK INTER + INTRA:         -11.413
REMARK INTER:                 -10.590
REMARK INTRA:                  -0.824
REMARK UNBOUND:                -0.970
REMARK  Name = 
REMARK  7 active torsions:
REMARK  status: ('A' for Active; 'I' for Inactive)
REMARK    1  A    between atoms: C_2  and  C_20
REMARK    2  A    between atoms: N_3  and  C_4
REMARK    3  A    between atoms: C_4  and  C_5
REMARK    4  A    between atoms: C_8  and  C_9
REMARK    5  A    between atoms: C_9  and  C_10
REMARK    6  A    between atoms: C_10  and  N_11
REMARK    7  A    between atoms: N_11  and  C_12
REMARK                            x       y       z     vdW  Elec       q    Type
REMARK                         _______ _______ _______ _____ _____    ______ ____
ROOT
ATOM      1  C   UNL     1      48.268   7.168  14.338  0.00  0.00    +0.000 C 
ENDROOT
BRANCH   1   2
ATOM      2  C   UNL     1      47.248   6.506  13.444  0.00  0.00    +0.000 A 
ATOM      3  C   UNL     1      46.935   7.068  12.210  0.00  0.00    +0.000 A 
ATOM      4  C   UNL     1      46.026   6.416  11.382  0.00  0.00    +0.000 A 
ATOM      5  C   UNL     1      45.450   5.211  11.784  0.00  0.00    +0.000 A 
ATOM      6  C   UNL     1      45.789   4.753  13.055  0.00  0.00    +0.000 A 
ATOM      7  N   UNL     1      46.660   5.366  13.891  0.00  0.00    +0.000 NA
BRANCH   5   8
ATOM      8  C   UNL     1      44.471   4.433  10.937  0.00  0.00    +0.000 C 
BRANCH   8   9
ATOM      9  C   UNL     1      44.643   2.900  10.910  0.00  0.00    +0.000 C 
BRANCH   9  10
ATOM     10  N   UNL     1      44.509   2.345   9.558  0.00  0.00    +0.000 NA
ATOM     11  H   UNL     1      43.732   2.793   9.075  0.00  0.00    +0.000 HD
BRANCH  10  12
ATOM     12  C   UNL     1      45.729   2.447   8.745  0.00  0.00    +0.000 C 
ATOM     13  C   UNL     1      45.474   3.467   7.618  0.00  0.00    +0.000 C 
ATOM     14  C   UNL     1      46.661   3.581   6.661  0.00  0.00    +0.000 C 
ATOM     15  C   UNL     1      47.055   2.224   6.089  0.00  0.00    +0.000 C 
ATOM     16  C   UNL     1      47.342   1.227   7.203  0.00  0.00    +0.000 C 
ATOM     17  C   UNL     1      46.154   1.092   8.150  0.00  0.00    +0.000 C 
ENDBRANCH  10  12
ENDBRANCH   9  10
ENDBRANCH   8   9
ENDBRANCH   5   8
ENDBRANCH   1   2
BRANCH   1  20
ATOM     18  O   UNL     1      48.614   7.371  17.109  0.00  0.00    +0.000 OA
ATOM     19  C   UNL     1      49.057   6.384  16.534  0.00  0.00    +0.000 C 
ATOM     20  N   UNL     1      48.976   6.219  15.170  0.00  0.00    +0.000 N 
ATOM     21  H   UNL     1      49.181   5.315  14.768  0.00  0.00    +0.000 HD
BRANCH  19  22
ATOM     22  C   UNL     1      49.738   5.301  17.238  0.00  0.00    +0.000 A 
ATOM     23  C   UNL     1      49.093   4.256  17.894  0.00  0.00    +0.000 A 
ATOM     24  N   UNL     1      50.040   3.390  18.369  0.00  0.00    +0.000 N 
ATOM     25  C   UNL     1      51.283   3.856  18.056  0.00  0.00    +0.000 A 
ATOM     26  N   UNL     1      52.421   3.230  18.398  0.00  0.00    +0.000 NA
ATOM     27  C   UNL     1      53.507   3.901  17.984  0.00  0.00    +0.000 A 
ATOM     28  N   UNL     1      53.548   5.061  17.315  0.00  0.00    +0.000 NA
ATOM     29  C   UNL     1      52.368   5.626  17.002  0.00  0.00    +0.000 A 
ATOM     30 CL   UNL     1      52.437   7.138  16.239  0.00  0.00    +0.000 Cl
ATOM     31  C   UNL     1      51.150   5.049  17.355  0.00  0.00    +0.000 A 
ATOM     32  H   UNL     1      49.872   2.526  18.867  0.00  0.00    +0.000 HD
ENDBRANCH  19  22
ENDBRANCH   1  20
TORSDOF 7
ENDMDL
MODEL 7
REMARK VINA RESULT:    -7.339      2.281      2.722
REMARK INTER + INTRA:         -11.312
REMARK INTER:                 -10.301
REMARK INTRA:                  -1.011
REMARK UNBOUND:                -0.970
REMARK  Name = 
REMARK  7 active torsions:
REMARK  status: ('A' for Active; 'I' for Inactive)
REMARK    1  A    between atoms: C_2  and  C_20
REMARK    2  A    between atoms: N_3  and  C_4
REMARK    3  A    between atoms: C_4  and  C_5
REMARK    4  A    between atoms: C_8  and  C_9
REMARK    5  A    between atoms: C_9  and  C_10
REMARK    6  A    between atoms: C_10  and  N_11
REMARK    7  A    between atoms: N_11  and  C_12
REMARK                            x       y       z     vdW  Elec       q    Type
REMARK                         _______ _______ _______ _____ _____    ______ ____
ROOT
ATOM      1  C   UNL     1      47.419   8.368  13.469  0.00  0.00    +0.000 C 
ENDROOT
BRANCH   1   2
ATOM      2  C   UNL     1      46.799   7.059  13.042  0.00  0.00    +0.000 A 
ATOM      3  C   UNL     1      47.214   5.868  13.628  0.00  0.00    +0.000 A 
ATOM      4  C   UNL     1      46.597   4.678  13.253  0.00  0.00    +0.000 A 
ATOM      5  C   UNL     1      45.568   4.690  12.311  0.00  0.00    +0.000 A 
ATOM      6  C   UNL     1      45.255   5.924  11.746  0.00  0.00    +0.000 A 
ATOM      7  N   UNL     1      45.842   7.098  12.079  0.00  0.00    +0.000 NA
BRANCH   5   8
ATOM      8  C   UNL     1      44.835   3.447  11.864  0.00  0.00    +0.000 C 
BRANCH   8   9
ATOM      9  C   UNL     1      44.308   3.437  10.414  0.00  0.00    +0.000 C 
BRANCH   9  10
ATOM     10  N   UNL     1      44.547   2.155   9.740  0.00  0.00    +0.000 NA
ATOM     11  H   UNL     1      43.674   1.637   9.661  0.00  0.00    +0.000 HD
BRANCH  10  12
ATOM     12  C   UNL     1      45.176   2.282   8.417  0.00  0.00    +0.000 C 
ATOM     13  C   UNL     1      46.269   1.203   8.297  0.00  0.00    +0.000 C 
ATOM     14  C   UNL     1      47.044   1.307   6.983  0.00  0.00    +0.000 C 
ATOM     15  C   UNL     1      47.629   2.700   6.784  0.00  0.00    +0.000 C 
ATOM     16  C   UNL     1      46.542   3.764   6.867  0.00  0.00    +0.000 C 
ATOM     17  C   UNL     1      45.779   3.679   8.184  0.00  0.00    +0.000 C 
ENDBRANCH  10  12
ENDBRANCH   9  10
ENDBRANCH   8   9
ENDBRANCH   5   8
ENDBRANCH   1   2
BRANCH   1  20
ATOM     18  O   UNL     1      49.497   9.363  15.060  0.00  0.00    +0.000 OA
ATOM     19  C   UNL     1      48.424   9.105  15.592  0.00  0.00    +0.000 C 
ATOM     20  N   UNL     1      47.361   8.569  14.902  0.00  0.00    +0.000 N 
ATOM     21  H   UNL     1      46.449   8.551  15.333  0.00  0.00    +0.000 HD
BRANCH  19  22
ATOM     22  C   UNL     1      48.179   9.316  17.016  0.00  0.00    +0.000 A 
ATOM     23  C   UNL     1      47.958  10.558  17.604  0.00  0.00    +0.000 A 
ATOM     24  N   UNL     1      47.689  10.368  18.933  0.00  0.00    +0.000 N 
ATOM     25  C   UNL     1      47.750   9.037  19.225  0.00  0.00    +0.000 A 
ATOM     26  N   UNL     1      47.542   8.535  20.453  0.00  0.00    +0.000 NA
ATOM     27  C   UNL     1      47.673   7.200  20.478  0.00  0.00    +0.000 A 
ATOM     28  N   UNL     1      47.978   6.387  19.458  0.00  0.00    +0.000 NA
ATOM     29  C   UNL     1      48.165   6.962  18.256  0.00  0.00    +0.000 A 
ATOM     30 CL   UNL     1      48.642   5.933  16.996  0.00  0.00    +0.000 Cl
ATOM     31  C   UNL     1      48.058   8.338  18.065  0.00  0.00    +0.000 A 
ATOM     32  H   UNL     1      47.465  11.084  19.611  0.00  0.00    +0.000 HD
ENDBRANCH  19  22
ENDBRANCH   1  20
TORSDOF 7
ENDMDL
MODEL 8
REMARK VINA RESULT:    -7.163      3.047      7.917
REMARK INTER + INTRA:         -11.064
REMARK INTER:                  -9.215
REMARK INTRA:                  -1.849
REMARK UNBOUND:                -0.970
REMARK  Name = 
REMARK  7 active torsions:
REMARK  status: ('A' for Active; 'I' for Inactive)
REMARK    1  A    between atoms: C_2  and  C_20
REMARK    2  A    between atoms: N_3  and  C_4
REMARK    3  A    between atoms: C_4  and  C_5
REMARK    4  A    between atoms: C_8  and  C_9
REMARK    5  A    between atoms: C_9  and  C_10
REMARK    6  A    between atoms: C_10  and  N_11
REMARK    7  A    between atoms: N_11  and  C_12
REMARK                            x       y       z     vdW  Elec       q    Type
REMARK                         _______ _______ _______ _____ _____    ______ ____
ROOT
ATOM      1  C   UNL     1      48.157   8.314  12.580  0.00  0.00    +0.000 C 
ENDROOT
BRANCH   1   2
ATOM      2  C   UNL     1      48.543   8.136  14.028  0.00  0.00    +0.000 A 
ATOM      3  C   UNL     1      49.145   6.955  14.449  0.00  0.00    +0.000 A 
ATOM      4  C   UNL     1      49.535   6.831  15.779  0.00  0.00    +0.000 A 
ATOM      5  C   UNL     1      49.333   7.885  16.670  0.00  0.00    +0.000 A 
ATOM      6  C   UNL     1      48.680   9.008  16.167  0.00  0.00    +0.000 A 
ATOM      7  N   UNL     1      48.277   9.158  14.883  0.00  0.00    +0.000 NA
BRANCH   5   8
ATOM      8  C   UNL     1      49.743   7.837  18.123  0.00  0.00    +0.000 C 
BRANCH   8   9
ATOM      9  C   UNL     1      50.272   6.486  18.649  0.00  0.00    +0.000 C 
BRANCH   9  10
ATOM     10  N   UNL     1      49.282   5.779  19.470  0.00  0.00    +0.000 NA
ATOM     11  H   UNL     1      48.480   6.383  19.643  0.00  0.00    +0.000 HD
BRANCH  10  12
ATOM     12  C   UNL     1      48.831   4.502  18.898  0.00  0.00    +0.000 C 
ATOM     13  C   UNL     1      49.976   3.926  18.042  0.00  0.00    +0.000 C 
ATOM     14  C   UNL     1      49.573   2.634  17.331  0.00  0.00    +0.000 C 
ATOM     15  C   UNL     1      48.311   2.820  16.498  0.00  0.00    +0.000 C 
ATOM     16  C   UNL     1      47.169   3.355  17.352  0.00  0.00    +0.000 C 
ATOM     17  C   UNL     1      47.557   4.656  18.048  0.00  0.00    +0.000 C 
ENDBRANCH  10  12
ENDBRANCH   9  10
ENDBRANCH   8   9
ENDBRANCH   5   8
ENDBRANCH   1   2
BRANCH   1  20
ATOM     18  O   UNL     1      45.461   8.774  13.181  0.00  0.00    +0.000 OA
ATOM     19  C   UNL     1      45.751   7.799  12.499  0.00  0.00    +0.000 C 
ATOM     20  N   UNL     1      47.050   7.465  12.192  0.00  0.00    +0.000 N 
ATOM     21  H   UNL     1      47.228   6.773  11.478  0.00  0.00    +0.000 HD
BRANCH  19  22
ATOM     22  C   UNL     1      44.747   6.881  11.969  0.00  0.00    +0.000 A 
ATOM     23  C   UNL     1      43.753   7.234  11.060  0.00  0.00    +0.000 A 
ATOM     24  N   UNL     1      43.047   6.110  10.729  0.00  0.00    +0.000 N 
ATOM     25  C   UNL     1      43.544   5.040  11.414  0.00  0.00    +0.000 A 
ATOM     26  N   UNL     1      43.051   3.795  11.309  0.00  0.00    +0.000 NA
ATOM     27  C   UNL     1      43.706   2.928  12.096  0.00  0.00    +0.000 A 
ATOM     28  N   UNL     1      44.729   3.183  12.923  0.00  0.00    +0.000 NA
ATOM     29  C   UNL     1      45.173   4.452  12.970  0.00  0.00    +0.000 A 
ATOM     30 CL   UNL     1      46.405   4.777  14.088  0.00  0.00    +0.000 Cl
ATOM     31  C   UNL     1      44.602   5.468  12.207  0.00  0.00    +0.000 A 
ATOM     32  H   UNL     1      42.280   6.051  10.073  0.00  0.00    +0.000 HD
ENDBRANCH  19  22
ENDBRANCH   1  20
TORSDOF 7
ENDMDL
MODEL 9
REMARK VINA RESULT:    -6.917      2.090      2.751
REMARK INTER + INTRA:         -10.717
REMARK INTER:                  -9.876
REMARK INTRA:                  -0.841
REMARK UNBOUND:                -0.970
REMARK  Name = 
REMARK  7 active torsions:
REMARK  status: ('A' for Active; 'I' for Inactive)
REMARK    1  A    between atoms: C_2  and  C_20
REMARK    2  A    between atoms: N_3  and  C_4
REMARK    3  A    between atoms: C_4  and  C_5
REMARK    4  A    between atoms: C_8  and  C_9
REMARK    5  A    between atoms: C_9  and  C_10
REMARK    6  A    between atoms: C_10  and  N_11
REMARK    7  A    between atoms: N_11  and  C_12
REMARK                            x       y       z     vdW  Elec       q    Type
REMARK                         _______ _______ _______ _____ _____    ______ ____
ROOT
ATOM      1  C   UNL     1      48.233   6.823  14.169  0.00  0.00    +0.000 C 
ENDROOT
BRANCH   1   2
ATOM      2  C   UNL     1      47.192   6.016  13.431  0.00  0.00    +0.000 A 
ATOM      3  C   UNL     1      46.682   4.853  13.998  0.00  0.00    +0.000 A 
ATOM      4  C   UNL     1      45.689   4.149  13.322  0.00  0.00    +0.000 A 
ATOM      5  C   UNL     1      45.209   4.617  12.098  0.00  0.00    +0.000 A 
ATOM      6  C   UNL     1      45.815   5.763  11.589  0.00  0.00    +0.000 A 
ATOM      7  N   UNL     1      46.790   6.465  12.214  0.00  0.00    +0.000 NA
BRANCH   5   8
ATOM      8  C   UNL     1      44.123   3.923  11.311  0.00  0.00    +0.000 C 
BRANCH   8   9
ATOM      9  C   UNL     1      44.247   3.964   9.774  0.00  0.00    +0.000 C 
BRANCH   9  10
ATOM     10  N   UNL     1      44.177   2.628   9.171  0.00  0.00    +0.000 NA
ATOM     11  H   UNL     1      43.216   2.415   8.909  0.00  0.00    +0.000 HD
BRANCH  10  12
ATOM     12  C   UNL     1      45.064   2.446   8.012  0.00  0.00    +0.000 C 
ATOM     13  C   UNL     1      46.060   1.317   8.339  0.00  0.00    +0.000 C 
ATOM     14  C   UNL     1      47.085   1.109   7.224  0.00  0.00    +0.000 C 
ATOM     15  C   UNL     1      47.819   2.401   6.886  0.00  0.00    +0.000 C 
ATOM     16  C   UNL     1      46.836   3.508   6.528  0.00  0.00    +0.000 C 
ATOM     17  C   UNL     1      45.822   3.735   7.645  0.00  0.00    +0.000 C 
ENDBRANCH  10  12
ENDBRANCH   9  10
ENDBRANCH   8   9
ENDBRANCH   5   8
ENDBRANCH   1   2
BRANCH   1  20
ATOM     18  O   UNL     1      49.181   8.441  16.247  0.00  0.00    +0.000 OA
ATOM     19  C   UNL     1      48.806   7.306  16.513  0.00  0.00    +0.000 C 
ATOM     20  N   UNL     1      48.368   6.423  15.553  0.00  0.00    +0.000 N 
ATOM     21  H   UNL     1      47.895   5.577  15.837  0.00  0.00    +0.000 HD
BRANCH  19  22
ATOM     22  C   UNL     1      48.812   6.772  17.872  0.00  0.00    +0.000 A 
ATOM     23  C   UNL     1      47.717   6.784  18.732  0.00  0.00    +0.000 A 
ATOM     24  N   UNL     1      48.062   6.133  19.885  0.00  0.00    +0.000 N 
ATOM     25  C   UNL     1      49.358   5.717  19.804  0.00  0.00    +0.000 A 
ATOM     26  N   UNL     1      49.991   5.056  20.787  0.00  0.00    +0.000 NA
ATOM     27  C   UNL     1      51.262   4.773  20.465  0.00  0.00    +0.000 A 
ATOM     28  N   UNL     1      51.908   5.078  19.331  0.00  0.00    +0.000 NA
ATOM     29  C   UNL     1      51.207   5.735  18.389  0.00  0.00    +0.000 A 
ATOM     30 CL   UNL     1      52.063   6.196  17.000  0.00  0.00    +0.000 Cl
ATOM     31  C   UNL     1      49.874   6.095  18.570  0.00  0.00    +0.000 A 
ATOM     32  H   UNL     1      47.466   5.963  20.684  0.00  0.00    +0.000 HD
ENDBRANCH  19  22
ENDBRANCH   1  20
TORSDOF 7
ENDMDL
