MODEL 1
REMARK VINA RESULT:    -7.798      0.000      0.000
REMARK INTER + INTRA:         -10.859
REMARK INTER:                 -10.077
REMARK INTRA:                  -0.782
REMARK UNBOUND:                -0.782
REMARK  Name = 
REMARK  5 active torsions:
REMARK  status: ('A' for Active; 'I' for Inactive)
REMARK    1  A    between atoms: C_2  and  C_5
REMARK    2  A    between atoms: C_7  and  O_8
REMARK    3  A    between atoms: O_8  and  C_9
REMARK    4  A    between atoms: C_9  and  C_10
REMARK    5  A    between atoms: C_14  and  C_15
REMARK                            x       y       z     vdW  Elec       q    Type
REMARK                         _______ _______ _______ _____ _____    ______ ____
ROOT
ATOM      1  C   UNL     1      44.563   6.005  11.214  0.00  0.00    +0.000 C 
ENDROOT
BRANCH   1   2
ATOM      2  C   UNL     1      44.546   4.642  10.584  0.00  0.00    +0.000 A 
ATOM      3  C   UNL     1      43.700   3.648  11.054  0.00  0.00    +0.000 A 
ATOM      4  N   UNL     1      43.623   2.413  10.518  0.00  0.00    +0.000 NA
ATOM      5  C   UNL     1      44.442   2.148   9.470  0.00  0.00    +0.000 A 
ATOM      6  C   UNL     1      45.346   3.052   8.908  0.00  0.00    +0.000 A 
ATOM      7  C   UNL     1      45.383   4.322   9.507  0.00  0.00    +0.000 A 
BRANCH   6   8
ATOM      8  C   UNL     1      46.198   2.700   7.761  0.00  0.00    +0.000 A 
ATOM      9  C   UNL     1      46.370   3.516   6.651  0.00  0.00    +0.000 A 
ATOM     10  N   UNL     1      47.140   3.218   5.582  0.00  0.00    +0.000 NA
ATOM     11  C   UNL     1      47.779   2.042   5.634  0.00  0.00    +0.000 A 
ATOM     12  N   UNL     1      47.712   1.163   6.641  0.00  0.00    +0.000 NA
ATOM     13  C   UNL     1      46.918   1.516   7.676  0.00  0.00    +0.000 A 
ENDBRANCH   6   8
ENDBRANCH   1   2
BRANCH   1  14
ATOM     14  O   UNL     1      44.512   5.864  12.633  0.00  0.00    +0.000 OA
BRANCH  14  17
ATOM     15  C   UNL     1      47.302   4.872  14.860  0.00  0.00    +0.000 A 
ATOM     16  C   UNL     1      46.035   4.832  14.268  0.00  0.00    +0.000 A 
ATOM     17  C   UNL     1      45.709   5.773  13.293  0.00  0.00    +0.000 A 
ATOM     18  C   UNL     1      46.656   6.720  12.928  0.00  0.00    +0.000 A 
ATOM     19  C   UNL     1      47.892   6.698  13.550  0.00  0.00    +0.000 A 
ATOM     20  N   UNL     1      48.231   5.802  14.499  0.00  0.00    +0.000 NA
BRANCH  15  22
ATOM     21  F   UNL     1      48.783   4.199  16.642  0.00  0.00    +0.000 F 
ATOM     22  C   UNL     1      47.661   3.856  15.939  0.00  0.00    +0.000 C 
ATOM     23  F   UNL     1      47.914   2.612  15.444  0.00  0.00    +0.000 F 
ATOM     24  F   UNL     1      46.682   3.702  16.877  0.00  0.00    +0.000 F 
ENDBRANCH  15  22
ENDBRANCH  14  17
ENDBRANCH   1  14
TORSDOF 5
ENDMDL
MODEL 2
REMARK VINA RESULT:    -7.768      2.426      2.957
REMARK INTER + INTRA:         -10.821
REMARK INTER:                  -9.991
REMARK INTRA:                  -0.830
REMARK UNBOUND:                -0.782
REMARK  Name = 
REMARK  5 active torsions:
REMARK  status: ('A' for Active; 'I' for Inactive)
REMARK    1  A    between atoms: C_2  and  C_5
REMARK    2  A    between atoms: C_7  and  O_8
REMARK    3  A    between atoms: O_8  and  C_9
REMARK    4  A    between atoms: C_9  and  C_10
REMARK    5  A    between atoms: C_14  and  C_15
REMARK                            x       y       z     vdW  Elec       q    Type
REMARK                         _______ _______ _______ _____ _____    ______ ____
ROOT
ATOM      1  C   UNL     1      43.701   6.144  11.281  0.00  0.00    +0.000 C 
ENDROOT
BRANCH   1   2
ATOM      2  C   UNL     1      43.894   4.724  10.831  0.00  0.00    +0.000 A 
ATOM      3  C   UNL     1      43.233   3.678  11.457  0.00  0.00    +0.000 A 
ATOM      4  N   UNL     1      43.349   2.387  11.085  0.00  0.00    +0.000 NA
ATOM      5  C   UNL     1      44.179   2.121  10.046  0.00  0.00    +0.000 A 
ATOM      6  C   UNL     1      44.910   3.077   9.336  0.00  0.00    +0.000 A 
ATOM      7  C   UNL     1      44.750   4.404   9.768  0.00  0.00    +0.000 A 
BRANCH   6   8
ATOM      8  C   UNL     1      45.784   2.718   8.208  0.00  0.00    +0.000 A 
ATOM      9  C   UNL     1      46.097   3.586   7.171  0.00  0.00    +0.000 A 
ATOM     10  N   UNL     1      46.891   3.284   6.120  0.00  0.00    +0.000 NA
ATOM     11  C   UNL     1      47.406   2.048   6.116  0.00  0.00    +0.000 A 
ATOM     12  N   UNL     1      47.197   1.113   7.051  0.00  0.00    +0.000 NA
ATOM     13  C   UNL     1      46.386   1.475   8.071  0.00  0.00    +0.000 A 
ENDBRANCH   6   8
ENDBRANCH   1   2
BRANCH   1  14
ATOM     14  O   UNL     1      44.170   6.275  12.622  0.00  0.00    +0.000 OA
BRANCH  14  17
ATOM     15  C   UNL     1      47.807   6.981  12.591  0.00  0.00    +0.000 A 
ATOM     16  C   UNL     1      46.447   7.160  12.317  0.00  0.00    +0.000 A 
ATOM     17  C   UNL     1      45.526   6.238  12.813  0.00  0.00    +0.000 A 
ATOM     18  C   UNL     1      45.984   5.172  13.575  0.00  0.00    +0.000 A 
ATOM     19  C   UNL     1      47.343   5.060  13.813  0.00  0.00    +0.000 A 
ATOM     20  N   UNL     1      48.255   5.934  13.341  0.00  0.00    +0.000 NA
BRANCH  15  22
ATOM     21  F   UNL     1      48.239   9.052  11.430  0.00  0.00    +0.000 F 
ATOM     22  C   UNL     1      48.823   7.975  12.038  0.00  0.00    +0.000 C 
ATOM     23  F   UNL     1      49.647   7.435  11.096  0.00  0.00    +0.000 F 
ATOM     24  F   UNL     1      49.635   8.501  12.999  0.00  0.00    +0.000 F 
ENDBRANCH  15  22
ENDBRANCH  14  17
ENDBRANCH   1  14
TORSDOF 5
ENDMDL
MODEL 3
REMARK VINA RESULT:    -7.466      1.276      1.939
REMARK INTER + INTRA:         -10.431
REMARK INTER:                  -9.744
REMARK INTRA:                  -0.687
REMARK UNBOUND:                -0.782
REMARK  Name = 
REMARK  5 active torsions:
REMARK  status: ('A' for Active; 'I' for Inactive)
REMARK    1  A    between atoms: C_2  and  C_5
REMARK    2  A    between atoms: C_7  and  O_8
REMARK    3  A    between atoms: O_8  and  C_9
REMARK    4  A    between atoms: C_9  and  C_10
REMARK    5  A    between atoms: C_14  and  C_15
REMARK                            x       y       z     vdW  Elec       q    Type
REMARK                         _______ _______ _______ _____ _____    ______ ____
ROOT
ATOM      1  C   UNL     1      44.964   5.491  13.088  0.00  0.00    +0.000 C 
ENDROOT
BRANCH   1   2
ATOM      2  C   UNL     1      44.577   4.386  12.146  0.00  0.00    +0.000 A 
ATOM      3  C   UNL     1      43.516   3.541  12.434  0.00  0.00    +0.000 A 
ATOM      4  N   UNL     1      43.107   2.546  11.619  0.00  0.00    +0.000 NA
ATOM      5  C   UNL     1      43.801   2.374  10.467  0.00  0.00    +0.000 A 
ATOM      6  C   UNL     1      44.892   3.146  10.063  0.00  0.00    +0.000 A 
ATOM      7  C   UNL     1      45.273   4.167  10.950  0.00  0.00    +0.000 A 
BRANCH   6   8
ATOM      8  C   UNL     1      45.592   2.911   8.790  0.00  0.00    +0.000 A 
ATOM      9  C   UNL     1      46.106   1.678   8.411  0.00  0.00    +0.000 A 
ATOM     10  N   UNL     1      46.756   1.432   7.252  0.00  0.00    +0.000 NA
ATOM     11  C   UNL     1      46.890   2.478   6.427  0.00  0.00    +0.000 A 
ATOM     12  N   UNL     1      46.439   3.717   6.658  0.00  0.00    +0.000 NA
ATOM     13  C   UNL     1      45.805   3.899   7.838  0.00  0.00    +0.000 A 
ENDBRANCH   6   8
ENDBRANCH   1   2
BRANCH   1  14
ATOM     14  O   UNL     1      46.359   5.754  12.949  0.00  0.00    +0.000 OA
BRANCH  14  17
ATOM     15  C   UNL     1      47.968   4.462  16.026  0.00  0.00    +0.000 A 
ATOM     16  C   UNL     1      47.114   4.485  14.918  0.00  0.00    +0.000 A 
ATOM     17  C   UNL     1      47.138   5.585  14.063  0.00  0.00    +0.000 A 
ATOM     18  C   UNL     1      48.018   6.626  14.330  0.00  0.00    +0.000 A 
ATOM     19  C   UNL     1      48.839   6.535  15.440  0.00  0.00    +0.000 A 
ATOM     20  N   UNL     1      48.832   5.484  16.285  0.00  0.00    +0.000 NA
BRANCH  15  22
ATOM     21  F   UNL     1      46.669   2.917  17.349  0.00  0.00    +0.000 F 
ATOM     22  C   UNL     1      47.937   3.269  16.976  0.00  0.00    +0.000 C 
ATOM     23  F   UNL     1      48.604   3.494  18.144  0.00  0.00    +0.000 F 
ATOM     24  F   UNL     1      48.480   2.141  16.437  0.00  0.00    +0.000 F 
ENDBRANCH  15  22
ENDBRANCH  14  17
ENDBRANCH   1  14
TORSDOF 5
ENDMDL
MODEL 4
REMARK VINA RESULT:    -7.387      3.783      6.968
REMARK INTER + INTRA:         -10.329
REMARK INTER:                 -10.050
REMARK INTRA:                  -0.279
REMARK UNBOUND:                -0.782
REMARK  Name = 
REMARK  5 active torsions:
REMARK  status: ('A' for Active; 'I' for Inactive)
REMARK    1  A    between atoms: C_2  and  C_5
REMARK    2  A    between atoms: C_7  and  O_8
REMARK    3  A    between atoms: O_8  and  C_9
REMARK    4  A    between atoms: C_9  and  C_10
REMARK    5  A    between atoms: C_14  and  C_15
REMARK                            x       y       z     vdW  Elec       q    Type
REMARK                         _______ _______ _______ _____ _____    ______ ____
ROOT
ATOM      1  C   UNL     1      43.387   3.656  11.444  0.00  0.00    +0.000 C 
ENDROOT
BRANCH   1   2
ATOM      2  C   UNL     1      44.643   4.112  12.130  0.00  0.00    +0.000 A 
ATOM      3  C   UNL     1      45.361   3.255  12.951  0.00  0.00    +0.000 A 
ATOM      4  N   UNL     1      46.506   3.599  13.577  0.00  0.00    +0.000 NA
ATOM      5  C   UNL     1      46.950   4.866  13.388  0.00  0.00    +0.000 A 
ATOM      6  C   UNL     1      46.320   5.830  12.597  0.00  0.00    +0.000 A 
ATOM      7  C   UNL     1      45.133   5.416  11.970  0.00  0.00    +0.000 A 
BRANCH   6   8
ATOM      8  C   UNL     1      46.866   7.185  12.426  0.00  0.00    +0.000 A 
ATOM      9  C   UNL     1      46.171   8.341  12.751  0.00  0.00    +0.000 A 
ATOM     10  N   UNL     1      46.644   9.599  12.602  0.00  0.00    +0.000 NA
ATOM     11  C   UNL     1      47.884   9.699  12.107  0.00  0.00    +0.000 A 
ATOM     12  N   UNL     1      48.670   8.673  11.759  0.00  0.00    +0.000 NA
ATOM     13  C   UNL     1      48.135   7.442  11.925  0.00  0.00    +0.000 A 
ENDBRANCH   6   8
ENDBRANCH   1   2
BRANCH   1  14
ATOM     14  O   UNL     1      43.688   2.528  10.624  0.00  0.00    +0.000 OA
BRANCH  14  17
ATOM     15  C   UNL     1      46.126   2.174   7.857  0.00  0.00    +0.000 A 
ATOM     16  C   UNL     1      45.343   1.800   8.954  0.00  0.00    +0.000 A 
ATOM     17  C   UNL     1      44.503   2.742   9.544  0.00  0.00    +0.000 A 
ATOM     18  C   UNL     1      44.458   4.027   9.019  0.00  0.00    +0.000 A 
ATOM     19  C   UNL     1      45.254   4.327   7.927  0.00  0.00    +0.000 A 
ATOM     20  N   UNL     1      46.079   3.435   7.341  0.00  0.00    +0.000 NA
BRANCH  15  22
ATOM     21  F   UNL     1      48.381   1.484   7.347  0.00  0.00    +0.000 F 
ATOM     22  C   UNL     1      47.060   1.154   7.216  0.00  0.00    +0.000 C 
ATOM     23  F   UNL     1      46.859   1.008   5.875  0.00  0.00    +0.000 F 
ATOM     24  F   UNL     1      46.945  -0.093   7.757  0.00  0.00    +0.000 F 
ENDBRANCH  15  22
ENDBRANCH  14  17
ENDBRANCH   1  14
TORSDOF 5
ENDMDL
MODEL 5
REMARK VINA RESULT:    -7.315      3.733      7.875
REMARK INTER + INTRA:         -10.236
REMARK INTER:                  -9.523
REMARK INTRA:                  -0.712
REMARK UNBOUND:                -0.782
REMARK  Name = 
REMARK  5 active torsions:
REMARK  status: ('A' for Active; 'I' for Inactive)
REMARK    1  A    between atoms: C_2  and  C_5
REMARK    2  A    between atoms: C_7  and  O_8
REMARK    3  A    between atoms: O_8  and  C_9
REMARK    4  A    between atoms: C_9  and  C_10
REMARK    5  A    between atoms: C_14  and  C_15
REMARK                            x       y       z     vdW  Elec       q    Type
REMARK                         _______ _______ _______ _____ _____    ______ ____
ROOT
ATOM      1  C   UNL     1      44.754   5.791  11.302  0.00  0.00    +0.000 C 
ENDROOT
BRANCH   1   2
ATOM      2  C   UNL     1      46.008   6.026  12.094  0.00  0.00    +0.000 A 
ATOM      3  C   UNL     1      47.010   6.857  11.616  0.00  0.00    +0.000 A 
ATOM      4  N   UNL     1      48.148   7.124  12.289  0.00  0.00    +0.000 NA
ATOM      5  C   UNL     1      48.304   6.520  13.494  0.00  0.00    +0.000 A 
ATOM      6  C   UNL     1      47.379   5.656  14.084  0.00  0.00    +0.000 A 
ATOM      7  C   UNL     1      46.214   5.414  13.338  0.00  0.00    +0.000 A 
BRANCH   6   8
ATOM      8  C   UNL     1      47.608   5.044  15.403  0.00  0.00    +0.000 A 
ATOM      9  C   UNL     1      48.455   5.579  16.363  0.00  0.00    +0.000 A 
ATOM     10  N   UNL     1      48.689   5.039  17.579  0.00  0.00    +0.000 NA
ATOM     11  C   UNL     1      48.030   3.904  17.848  0.00  0.00    +0.000 A 
ATOM     12  N   UNL     1      47.178   3.283  17.023  0.00  0.00    +0.000 NA
ATOM     13  C   UNL     1      46.995   3.870  15.819  0.00  0.00    +0.000 A 
ENDBRANCH   6   8
ENDBRANCH   1   2
BRANCH   1  14
ATOM     14  O   UNL     1      45.087   5.698   9.918  0.00  0.00    +0.000 OA
BRANCH  14  17
ATOM     15  C   UNL     1      46.083   2.756   7.897  0.00  0.00    +0.000 A 
ATOM     16  C   UNL     1      46.049   4.089   8.322  0.00  0.00    +0.000 A 
ATOM     17  C   UNL     1      45.232   4.439   9.396  0.00  0.00    +0.000 A 
ATOM     18  C   UNL     1      44.481   3.453  10.021  0.00  0.00    +0.000 A 
ATOM     19  C   UNL     1      44.568   2.154   9.553  0.00  0.00    +0.000 A 
ATOM     20  N   UNL     1      45.347   1.789   8.514  0.00  0.00    +0.000 NA
BRANCH  15  22
ATOM     21  F   UNL     1      46.961   1.021   6.468  0.00  0.00    +0.000 F 
ATOM     22  C   UNL     1      46.962   2.367   6.713  0.00  0.00    +0.000 C 
ATOM     23  F   UNL     1      48.272   2.699   6.883  0.00  0.00    +0.000 F 
ATOM     24  F   UNL     1      46.570   2.946   5.542  0.00  0.00    +0.000 F 
ENDBRANCH  15  22
ENDBRANCH  14  17
ENDBRANCH   1  14
TORSDOF 5
ENDMDL
MODEL 6
REMARK VINA RESULT:    -7.289      3.838      7.296
REMARK INTER + INTRA:         -10.202
REMARK INTER:                  -9.554
REMARK INTRA:                  -0.648
REMARK UNBOUND:                -0.782
REMARK  Name = 
REMARK  5 active torsions:
REMARK  status: ('A' for Active; 'I' for Inactive)
REMARK    1  A    between atoms: C_2  and  C_5
REMARK    2  A    between atoms: C_7  and  O_8
REMARK    3  A    between atoms: O_8  and  C_9
REMARK    4  A    between atoms: C_9  and  C_10
REMARK    5  A    between atoms: C_14  and  C_15
REMARK                            x       y       z     vdW  Elec       q    Type
REMARK                         _______ _______ _______ _____ _____    ______ ____
ROOT
ATOM      1  C   UNL     1      44.204   5.321  10.942  0.00  0.00    +0.000 C 
ENDROOT
BRANCH   1   2
ATOM      2  C   UNL     1      45.263   5.333  12.007  0.00  0.00    +0.000 A 
ATOM      3  C   UNL     1      45.168   4.508  13.118  0.00  0.00    +0.000 A 
ATOM      4  N   UNL     1      46.096   4.457  14.096  0.00  0.00    +0.000 NA
ATOM      5  C   UNL     1      47.165   5.282  13.970  0.00  0.00    +0.000 A 
ATOM      6  C   UNL     1      47.377   6.167  12.910  0.00  0.00    +0.000 A 
ATOM      7  C   UNL     1      46.379   6.177  11.921  0.00  0.00    +0.000 A 
BRANCH   6   8
ATOM      8  C   UNL     1      48.568   7.026  12.831  0.00  0.00    +0.000 A 
ATOM      9  C   UNL     1      49.412   7.273  13.905  0.00  0.00    +0.000 A 
ATOM     10  N   UNL     1      50.510   8.060  13.864  0.00  0.00    +0.000 NA
ATOM     11  C   UNL     1      50.779   8.622  12.679  0.00  0.00    +0.000 A 
ATOM     12  N   UNL     1      50.060   8.466  11.561  0.00  0.00    +0.000 NA
ATOM     13  C   UNL     1      48.970   7.674  11.670  0.00  0.00    +0.000 A 
ENDBRANCH   6   8
ENDBRANCH   1   2
BRANCH   1  14
ATOM     14  O   UNL     1      44.832   5.323   9.661  0.00  0.00    +0.000 OA
BRANCH  14  17
ATOM     15  C   UNL     1      46.280   2.572   7.644  0.00  0.00    +0.000 A 
ATOM     16  C   UNL     1      46.064   3.880   8.092  0.00  0.00    +0.000 A 
ATOM     17  C   UNL     1      45.155   4.104   9.124  0.00  0.00    +0.000 A 
ATOM     18  C   UNL     1      44.495   3.020   9.688  0.00  0.00    +0.000 A 
ATOM     19  C   UNL     1      44.762   1.752   9.201  0.00  0.00    +0.000 A 
ATOM     20  N   UNL     1      45.633   1.509   8.200  0.00  0.00    +0.000 NA
BRANCH  15  22
ATOM     21  F   UNL     1      46.874   2.902   5.329  0.00  0.00    +0.000 F 
ATOM     22  C   UNL     1      47.261   2.319   6.504  0.00  0.00    +0.000 C 
ATOM     23  F   UNL     1      47.420   0.997   6.214  0.00  0.00    +0.000 F 
ATOM     24  F   UNL     1      48.510   2.808   6.754  0.00  0.00    +0.000 F 
ENDBRANCH  15  22
ENDBRANCH  14  17
ENDBRANCH   1  14
TORSDOF 5
ENDMDL
MODEL 7
REMARK VINA RESULT:    -7.106      3.852      7.187
REMARK INTER + INTRA:          -9.965
REMARK INTER:                  -9.068
REMARK INTRA:                  -0.897
REMARK UNBOUND:                -0.782
REMARK  Name = 
REMARK  5 active torsions:
REMARK  status: ('A' for Active; 'I' for Inactive)
REMARK    1  A    between atoms: C_2  and  C_5
REMARK    2  A    between atoms: C_7  and  O_8
REMARK    3  A    between atoms: O_8  and  C_9
REMARK    4  A    between atoms: C_9  and  C_10
REMARK    5  A    between atoms: C_14  and  C_15
REMARK                            x       y       z     vdW  Elec       q    Type
REMARK                         _______ _______ _______ _____ _____    ______ ____
ROOT
ATOM      1  C   UNL     1      43.932   5.269  12.282  0.00  0.00    +0.000 C 
ENDROOT
BRANCH   1   2
ATOM      2  C   UNL     1      45.335   5.649  12.662  0.00  0.00    +0.000 A 
ATOM      3  C   UNL     1      46.118   4.807  13.438  0.00  0.00    +0.000 A 
ATOM      4  N   UNL     1      47.390   5.082  13.794  0.00  0.00    +0.000 NA
ATOM      5  C   UNL     1      47.903   6.264  13.369  0.00  0.00    +0.000 A 
ATOM      6  C   UNL     1      47.221   7.204  12.594  0.00  0.00    +0.000 A 
ATOM      7  C   UNL     1      45.901   6.864  12.254  0.00  0.00    +0.000 A 
BRANCH   6   8
ATOM      8  C   UNL     1      47.845   8.463  12.157  0.00  0.00    +0.000 A 
ATOM      9  C   UNL     1      49.165   8.563  11.742  0.00  0.00    +0.000 A 
ATOM     10  N   UNL     1      49.767   9.705  11.340  0.00  0.00    +0.000 NA
ATOM     11  C   UNL     1      48.999  10.802  11.349  0.00  0.00    +0.000 A 
ATOM     12  N   UNL     1      47.712  10.850  11.715  0.00  0.00    +0.000 NA
ATOM     13  C   UNL     1      47.172   9.677  12.114  0.00  0.00    +0.000 A 
ENDBRANCH   6   8
ENDBRANCH   1   2
BRANCH   1  14
ATOM     14  O   UNL     1      43.796   5.349  10.864  0.00  0.00    +0.000 OA
BRANCH  14  17
ATOM     15  C   UNL     1      45.691   3.305   8.423  0.00  0.00    +0.000 A 
ATOM     16  C   UNL     1      45.245   4.452   9.087  0.00  0.00    +0.000 A 
ATOM     17  C   UNL     1      44.329   4.322  10.129  0.00  0.00    +0.000 A 
ATOM     18  C   UNL     1      43.890   3.054  10.486  0.00  0.00    +0.000 A 
ATOM     19  C   UNL     1      44.378   1.962   9.790  0.00  0.00    +0.000 A 
ATOM     20  N   UNL     1      45.261   2.061   8.776  0.00  0.00    +0.000 NA
BRANCH  15  22
ATOM     21  F   UNL     1      47.679   2.504   7.313  0.00  0.00    +0.000 F 
ATOM     22  C   UNL     1      46.682   3.439   7.271  0.00  0.00    +0.000 C 
ATOM     23  F   UNL     1      47.320   4.644   7.248  0.00  0.00    +0.000 F 
ATOM     24  F   UNL     1      46.101   3.292   6.045  0.00  0.00    +0.000 F 
ENDBRANCH  15  22
ENDBRANCH  14  17
ENDBRANCH   1  14
TORSDOF 5
ENDMDL
MODEL 8
REMARK VINA RESULT:    -6.943      3.719      7.773
REMARK INTER + INTRA:          -9.755
REMARK INTER:                  -9.020
REMARK INTRA:                  -0.735
REMARK UNBOUND:                -0.782
REMARK  Name = 
REMARK  5 active torsions:
REMARK  status: ('A' for Active; 'I' for Inactive)
REMARK    1  A    between atoms: C_2  and  C_5
REMARK    2  A    between atoms: C_7  and  O_8
REMARK    3  A    between atoms: O_8  and  C_9
REMARK    4  A    between atoms: C_9  and  C_10
REMARK    5  A    between atoms: C_14  and  C_15
REMARK                            x       y       z     vdW  Elec       q    Type
REMARK                         _______ _______ _______ _____ _____    ______ ____
ROOT
ATOM      1  C   UNL     1      46.823   6.647  11.627  0.00  0.00    +0.000 C 
ENDROOT
BRANCH   1   2
ATOM      2  C   UNL     1      47.611   6.762  12.901  0.00  0.00    +0.000 A 
ATOM      3  C   UNL     1      48.485   7.819  13.108  0.00  0.00    +0.000 A 
ATOM      4  N   UNL     1      49.203   7.989  14.237  0.00  0.00    +0.000 NA
ATOM      5  C   UNL     1      49.055   7.050  15.204  0.00  0.00    +0.000 A 
ATOM      6  C   UNL     1      48.219   5.934  15.119  0.00  0.00    +0.000 A 
ATOM      7  C   UNL     1      47.497   5.809  13.921  0.00  0.00    +0.000 A 
BRANCH   6   8
ATOM      8  C   UNL     1      48.099   4.959  16.214  0.00  0.00    +0.000 A 
ATOM      9  C   UNL     1      47.070   4.032  16.310  0.00  0.00    +0.000 A 
ATOM     10  N   UNL     1      46.930   3.128  17.304  0.00  0.00    +0.000 NA
ATOM     11  C   UNL     1      47.879   3.151  18.249  0.00  0.00    +0.000 A 
ATOM     12  N   UNL     1      48.929   3.981  18.280  0.00  0.00    +0.000 NA
ATOM     13  C   UNL     1      49.006   4.866  17.261  0.00  0.00    +0.000 A 
ENDBRANCH   6   8
ENDBRANCH   1   2
BRANCH   1  14
ATOM     14  O   UNL     1      45.446   6.459  11.946  0.00  0.00    +0.000 OA
BRANCH  14  17
ATOM     15  C   UNL     1      44.500   3.354  10.160  0.00  0.00    +0.000 A 
ATOM     16  C   UNL     1      45.178   4.551  10.415  0.00  0.00    +0.000 A 
ATOM     17  C   UNL     1      44.875   5.272  11.568  0.00  0.00    +0.000 A 
ATOM     18  C   UNL     1      43.913   4.778  12.439  0.00  0.00    +0.000 A 
ATOM     19  C   UNL     1      43.286   3.584  12.128  0.00  0.00    +0.000 A 
ATOM     20  N   UNL     1      43.557   2.869  11.017  0.00  0.00    +0.000 NA
BRANCH  15  22
ATOM     21  F   UNL     1      46.143   2.267   8.766  0.00  0.00    +0.000 F 
ATOM     22  C   UNL     1      44.814   2.566   8.892  0.00  0.00    +0.000 C 
ATOM     23  F   UNL     1      44.487   3.233   7.750  0.00  0.00    +0.000 F 
ATOM     24  F   UNL     1      44.168   1.366   8.833  0.00  0.00    +0.000 F 
ENDBRANCH  15  22
ENDBRANCH  14  17
ENDBRANCH   1  14
TORSDOF 5
ENDMDL
MODEL 9
REMARK VINA RESULT:    -6.454      3.279      4.995
REMARK INTER + INTRA:          -9.122
REMARK INTER:                  -8.291
REMARK INTRA:                  -0.831
REMARK UNBOUND:                -0.782
REMARK  Name = 
REMARK  5 active torsions:
REMARK  status: ('A' for Active; 'I' for Inactive)
REMARK    1  A    between atoms: C_2  and  C_5
REMARK    2  A    between atoms: C_7  and  O_8
REMARK    3  A    between atoms: O_8  and  C_9
REMARK    4  A    between atoms: C_9  and  C_10
REMARK    5  A    between atoms: C_14  and  C_15
REMARK                            x       y       z     vdW  Elec       q    Type
REMARK                         _______ _______ _______ _____ _____    ______ ____
ROOT
ATOM      1  C   UNL     1      48.755   7.738  13.933  0.00  0.00    +0.000 C 
ENDROOT
BRANCH   1   2
ATOM      2  C   UNL     1      47.422   7.699  13.243  0.00  0.00    +0.000 A 
ATOM      3  C   UNL     1      46.804   8.865  12.816  0.00  0.00    +0.000 A 
ATOM      4  N   UNL     1      45.618   8.893  12.172  0.00  0.00    +0.000 NA
ATOM      5  C   UNL     1      45.009   7.700  11.957  0.00  0.00    +0.000 A 
ATOM      6  C   UNL     1      45.516   6.458  12.344  0.00  0.00    +0.000 A 
ATOM      7  C   UNL     1      46.753   6.489  13.010  0.00  0.00    +0.000 A 
BRANCH   6   8
ATOM      8  C   UNL     1      44.806   5.199  12.067  0.00  0.00    +0.000 A 
ATOM      9  C   UNL     1      44.568   4.716  10.788  0.00  0.00    +0.000 A 
ATOM     10  N   UNL     1      43.916   3.568  10.501  0.00  0.00    +0.000 NA
ATOM     11  C   UNL     1      43.487   2.863  11.557  0.00  0.00    +0.000 A 
ATOM     12  N   UNL     1      43.653   3.203  12.841  0.00  0.00    +0.000 NA
ATOM     13  C   UNL     1      44.306   4.367  13.059  0.00  0.00    +0.000 A 
ENDBRANCH   6   8
ENDBRANCH   1   2
BRANCH   1  14
ATOM     14  O   UNL     1      48.551   7.686  15.344  0.00  0.00    +0.000 OA
BRANCH  14  17
ATOM     15  C   UNL     1      48.940   4.409  17.029  0.00  0.00    +0.000 A 
ATOM     16  C   UNL     1      48.304   5.451  16.345  0.00  0.00    +0.000 A 
ATOM     17  C   UNL     1      49.035   6.586  16.003  0.00  0.00    +0.000 A 
ATOM     18  C   UNL     1      50.380   6.649  16.343  0.00  0.00    +0.000 A 
ATOM     19  C   UNL     1      50.947   5.579  17.013  0.00  0.00    +0.000 A 
ATOM     20  N   UNL     1      50.261   4.471  17.360  0.00  0.00    +0.000 NA
BRANCH  15  22
ATOM     21  F   UNL     1      48.338   2.800  18.723  0.00  0.00    +0.000 F 
ATOM     22  C   UNL     1      48.143   3.169  17.421  0.00  0.00    +0.000 C 
ATOM     23  F   UNL     1      48.465   2.068  16.684  0.00  0.00    +0.000 F 
ATOM     24  F   UNL     1      46.795   3.335  17.291  0.00  0.00    +0.000 F 
ENDBRANCH  15  22
ENDBRANCH  14  17
ENDBRANCH   1  14
TORSDOF 5
ENDMDL
