MODEL 1
REMARK VINA RESULT:    -8.178      0.000      0.000
REMARK INTER + INTRA:         -10.990
REMARK INTER:                 -10.569
REMARK INTRA:                  -0.421
REMARK UNBOUND:                -0.421
REMARK  Name = 
REMARK  5 active torsions:
REMARK  status: ('A' for Active; 'I' for Inactive)
REMARK    1  A    between atoms: N_5  and  C_6
REMARK    2  A    between atoms: C_6  and  C_7
REMARK    3  A    between atoms: C_7  and  C_8
REMARK    4  A    between atoms: C_12  and  O_13
REMARK    5  A    between atoms: O_13  and  C_14
REMARK                            x       y       z     vdW  Elec       q    Type
REMARK                         _______ _______ _______ _____ _____    ______ ____
ROOT
ATOM      1  C   UNL     1      45.078   4.026  12.248  0.00  0.00    +0.000 A 
ATOM      2  C   UNL     1      45.437   5.315  11.865  0.00  0.00    +0.000 A 
ATOM      3  N   UNL     1      46.477   5.984  12.419  0.00  0.00    +0.000 NA
ATOM      4  C   UNL     1      47.154   5.305  13.377  0.00  0.00    +0.000 A 
ATOM      5  C   UNL     1      46.794   4.031  13.781  0.00  0.00    +0.000 A 
ATOM      6  N   UNL     1      45.754   3.371  13.231  0.00  0.00    +0.000 NA
ENDROOT
BRANCH   1   7
ATOM      7  C   UNL     1      43.932   3.318  11.564  0.00  0.00    +0.000 C 
BRANCH   7   8
ATOM      8  C   UNL     1      44.118   3.295  10.049  0.00  0.00    +0.000 C 
BRANCH   8  13
ATOM      9  C   UNL     1      47.364   2.081   6.312  0.00  0.00    +0.000 A 
ATOM     10  C   UNL     1      46.698   3.258   6.601  0.00  0.00    +0.000 A 
ATOM     11  C   UNL     1      45.846   3.299   7.700  0.00  0.00    +0.000 A 
ATOM     12  C   UNL     1      45.674   2.165   8.491  0.00  0.00    +0.000 A 
ATOM     13  N   UNL     1      44.848   2.133   9.589  0.00  0.00    +0.000 N 
ATOM     14  N   UNL     1      46.321   1.017   8.217  0.00  0.00    +0.000 NA
ATOM     15  C   UNL     1      47.146   0.998   7.143  0.00  0.00    +0.000 A 
ATOM     16  H   UNL     1      44.820   1.242  10.067  0.00  0.00    +0.000 HD
ENDBRANCH   8  13
ENDBRANCH   7   8
ENDBRANCH   1   7
BRANCH   5  17
ATOM     17  O   UNL     1      47.551   3.406  14.748  0.00  0.00    +0.000 OA
BRANCH  17  18
ATOM     18  C   UNL     1      47.296   3.819  16.109  0.00  0.00    +0.000 C 
ATOM     19  C   UNL     1      48.336   4.824  16.681  0.00  0.00    +0.000 C 
ATOM     20  C   UNL     1      48.157   4.132  18.044  0.00  0.00    +0.000 C 
ATOM     21  C   UNL     1      47.732   2.873  17.263  0.00  0.00    +0.000 C 
ENDBRANCH  17  18
ENDBRANCH   5  17
TORSDOF 5
ENDMDL
MODEL 2
REMARK VINA RESULT:    -7.427      2.113      3.388
REMARK INTER + INTRA:         -10.020
REMARK INTER:                  -9.555
REMARK INTRA:                  -0.464
REMARK UNBOUND:                -0.421
REMARK  Name = 
REMARK  5 active torsions:
REMARK  status: ('A' for Active; 'I' for Inactive)
REMARK    1  A    between atoms: N_5  and  C_6
REMARK    2  A    between atoms: C_6  and  C_7
REMARK    3  A    between atoms: C_7  and  C_8
REMARK    4  A    between atoms: C_12  and  O_13
REMARK    5  A    between atoms: O_13  and  C_14
REMARK                            x       y       z     vdW  Elec       q    Type
REMARK                         _______ _______ _______ _____ _____    ______ ____
ROOT
ATOM      1  C   UNL     1      45.081   3.898  12.303  0.00  0.00    +0.000 A 
ATOM      2  C   UNL     1      46.049   3.209  13.027  0.00  0.00    +0.000 A 
ATOM      3  N   UNL     1      47.060   3.831  13.682  0.00  0.00    +0.000 NA
ATOM      4  C   UNL     1      47.061   5.182  13.590  0.00  0.00    +0.000 A 
ATOM      5  C   UNL     1      46.115   5.879  12.855  0.00  0.00    +0.000 A 
ATOM      6  N   UNL     1      45.115   5.255  12.200  0.00  0.00    +0.000 NA
ENDROOT
BRANCH   1   7
ATOM      7  C   UNL     1      43.957   3.150  11.627  0.00  0.00    +0.000 C 
BRANCH   7   8
ATOM      8  C   UNL     1      44.115   3.165  10.108  0.00  0.00    +0.000 C 
BRANCH   8  13
ATOM      9  C   UNL     1      47.333   2.202   6.275  0.00  0.00    +0.000 A 
ATOM     10  C   UNL     1      46.605   3.333   6.599  0.00  0.00    +0.000 A 
ATOM     11  C   UNL     1      45.780   3.307   7.719  0.00  0.00    +0.000 A 
ATOM     12  C   UNL     1      45.695   2.153   8.496  0.00  0.00    +0.000 A 
ATOM     13  N   UNL     1      44.901   2.056   9.612  0.00  0.00    +0.000 N 
ATOM     14  N   UNL     1      46.403   1.050   8.188  0.00  0.00    +0.000 NA
ATOM     15  C   UNL     1      47.200   1.096   7.094  0.00  0.00    +0.000 A 
ATOM     16  H   UNL     1      44.937   1.158  10.076  0.00  0.00    +0.000 HD
ENDBRANCH   8  13
ENDBRANCH   7   8
ENDBRANCH   1   7
BRANCH   5  17
ATOM     17  O   UNL     1      46.180   7.254  12.832  0.00  0.00    +0.000 OA
BRANCH  17  18
ATOM     18  C   UNL     1      47.509   7.820  12.801  0.00  0.00    +0.000 C 
ATOM     19  C   UNL     1      47.555   9.336  12.457  0.00  0.00    +0.000 C 
ATOM     20  C   UNL     1      48.870   9.060  11.709  0.00  0.00    +0.000 C 
ATOM     21  C   UNL     1      48.373   7.612  11.526  0.00  0.00    +0.000 C 
ENDBRANCH  17  18
ENDBRANCH   5  17
TORSDOF 5
ENDMDL
MODEL 3
REMARK VINA RESULT:    -7.057      2.504      3.195
REMARK INTER + INTRA:          -9.541
REMARK INTER:                  -8.781
REMARK INTRA:                  -0.760
REMARK UNBOUND:                -0.421
REMARK  Name = 
REMARK  5 active torsions:
REMARK  status: ('A' for Active; 'I' for Inactive)
REMARK    1  A    between atoms: N_5  and  C_6
REMARK    2  A    between atoms: C_6  and  C_7
REMARK    3  A    between atoms: C_7  and  C_8
REMARK    4  A    between atoms: C_12  and  O_13
REMARK    5  A    between atoms: O_13  and  C_14
REMARK                            x       y       z     vdW  Elec       q    Type
REMARK                         _______ _______ _______ _____ _____    ______ ____
ROOT
ATOM      1  C   UNL     1      43.875   4.399  11.424  0.00  0.00    +0.000 A 
ATOM      2  C   UNL     1      42.855   5.346  11.380  0.00  0.00    +0.000 A 
ATOM      3  N   UNL     1      43.091   6.679  11.338  0.00  0.00    +0.000 NA
ATOM      4  C   UNL     1      44.399   7.033  11.334  0.00  0.00    +0.000 A 
ATOM      5  C   UNL     1      45.422   6.102  11.398  0.00  0.00    +0.000 A 
ATOM      6  N   UNL     1      45.183   4.776  11.447  0.00  0.00    +0.000 NA
ENDROOT
BRANCH   1   7
ATOM      7  C   UNL     1      43.548   2.924  11.431  0.00  0.00    +0.000 C 
BRANCH   7   8
ATOM      8  C   UNL     1      44.154   2.215  10.222  0.00  0.00    +0.000 C 
BRANCH   8  13
ATOM      9  C   UNL     1      47.399   2.250   6.293  0.00  0.00    +0.000 A 
ATOM     10  C   UNL     1      47.121   1.284   7.243  0.00  0.00    +0.000 A 
ATOM     11  C   UNL     1      46.177   1.559   8.228  0.00  0.00    +0.000 A 
ATOM     12  C   UNL     1      45.529   2.792   8.248  0.00  0.00    +0.000 A 
ATOM     13  N   UNL     1      44.589   3.132   9.190  0.00  0.00    +0.000 N 
ATOM     14  N   UNL     1      45.793   3.735   7.324  0.00  0.00    +0.000 NA
ATOM     15  C   UNL     1      46.714   3.448   6.374  0.00  0.00    +0.000 A 
ATOM     16  H   UNL     1      44.203   4.060   9.083  0.00  0.00    +0.000 HD
ENDBRANCH   8  13
ENDBRANCH   7   8
ENDBRANCH   1   7
BRANCH   5  17
ATOM     17  O   UNL     1      46.725   6.550  11.369  0.00  0.00    +0.000 OA
BRANCH  17  18
ATOM     18  C   UNL     1      47.226   7.104  12.606  0.00  0.00    +0.000 C 
ATOM     19  C   UNL     1      48.608   7.806  12.483  0.00  0.00    +0.000 C 
ATOM     20  C   UNL     1      48.927   7.282  13.893  0.00  0.00    +0.000 C 
ATOM     21  C   UNL     1      47.920   6.148  13.617  0.00  0.00    +0.000 C 
ENDBRANCH  17  18
ENDBRANCH   5  17
TORSDOF 5
ENDMDL
MODEL 4
REMARK VINA RESULT:    -6.729      2.143      7.332
REMARK INTER + INTRA:          -9.117
REMARK INTER:                  -8.429
REMARK INTRA:                  -0.688
REMARK UNBOUND:                -0.421
REMARK  Name = 
REMARK  5 active torsions:
REMARK  status: ('A' for Active; 'I' for Inactive)
REMARK    1  A    between atoms: N_5  and  C_6
REMARK    2  A    between atoms: C_6  and  C_7
REMARK    3  A    between atoms: C_7  and  C_8
REMARK    4  A    between atoms: C_12  and  O_13
REMARK    5  A    between atoms: O_13  and  C_14
REMARK                            x       y       z     vdW  Elec       q    Type
REMARK                         _______ _______ _______ _____ _____    ______ ____
ROOT
ATOM      1  C   UNL     1      44.971   5.632  12.133  0.00  0.00    +0.000 A 
ATOM      2  C   UNL     1      43.806   5.627  12.895  0.00  0.00    +0.000 A 
ATOM      3  N   UNL     1      42.801   4.740  12.697  0.00  0.00    +0.000 NA
ATOM      4  C   UNL     1      43.010   3.845  11.701  0.00  0.00    +0.000 A 
ATOM      5  C   UNL     1      44.155   3.853  10.922  0.00  0.00    +0.000 A 
ATOM      6  N   UNL     1      45.150   4.742  11.118  0.00  0.00    +0.000 NA
ENDROOT
BRANCH   1   7
ATOM      7  C   UNL     1      46.072   6.623  12.428  0.00  0.00    +0.000 C 
BRANCH   7   8
ATOM      8  C   UNL     1      47.303   5.929  13.006  0.00  0.00    +0.000 C 
BRANCH   8  13
ATOM      9  C   UNL     1      48.108   4.392  17.797  0.00  0.00    +0.000 A 
ATOM     10  C   UNL     1      48.543   5.510  17.108  0.00  0.00    +0.000 A 
ATOM     11  C   UNL     1      48.171   5.668  15.777  0.00  0.00    +0.000 A 
ATOM     12  C   UNL     1      47.373   4.709  15.157  0.00  0.00    +0.000 A 
ATOM     13  N   UNL     1      46.971   4.799  13.847  0.00  0.00    +0.000 N 
ATOM     14  N   UNL     1      46.945   3.620  15.823  0.00  0.00    +0.000 NA
ATOM     15  C   UNL     1      47.317   3.485  17.117  0.00  0.00    +0.000 A 
ATOM     16  H   UNL     1      46.397   4.029  13.530  0.00  0.00    +0.000 HD
ENDBRANCH   8  13
ENDBRANCH   7   8
ENDBRANCH   1   7
BRANCH   5  17
ATOM     17  O   UNL     1      44.294   2.894   9.943  0.00  0.00    +0.000 OA
BRANCH  17  18
ATOM     18  C   UNL     1      45.515   2.955   9.173  0.00  0.00    +0.000 C 
ATOM     19  C   UNL     1      45.360   3.615   7.774  0.00  0.00    +0.000 C 
ATOM     20  C   UNL     1      46.407   2.613   7.257  0.00  0.00    +0.000 C 
ATOM     21  C   UNL     1      45.971   1.682   8.406  0.00  0.00    +0.000 C 
ENDBRANCH  17  18
ENDBRANCH   5  17
TORSDOF 5
ENDMDL
MODEL 5
REMARK VINA RESULT:    -6.508      3.374      7.304
REMARK INTER + INTRA:          -8.831
REMARK INTER:                  -8.140
REMARK INTRA:                  -0.691
REMARK UNBOUND:                -0.421
REMARK  Name = 
REMARK  5 active torsions:
REMARK  status: ('A' for Active; 'I' for Inactive)
REMARK    1  A    between atoms: N_5  and  C_6
REMARK    2  A    between atoms: C_6  and  C_7
REMARK    3  A    between atoms: C_7  and  C_8
REMARK    4  A    between atoms: C_12  and  O_13
REMARK    5  A    between atoms: O_13  and  C_14
REMARK                            x       y       z     vdW  Elec       q    Type
REMARK                         _______ _______ _______ _____ _____    ______ ____
ROOT
ATOM      1  C   UNL     1      44.502   5.395  10.741  0.00  0.00    +0.000 A 
ATOM      2  C   UNL     1      43.732   4.255  10.953  0.00  0.00    +0.000 A 
ATOM      3  N   UNL     1      43.801   3.163  10.155  0.00  0.00    +0.000 NA
ATOM      4  C   UNL     1      44.685   3.251   9.131  0.00  0.00    +0.000 A 
ATOM      5  C   UNL     1      45.441   4.387   8.898  0.00  0.00    +0.000 A 
ATOM      6  N   UNL     1      45.364   5.475   9.691  0.00  0.00    +0.000 NA
ENDROOT
BRANCH   1   7
ATOM      7  C   UNL     1      44.407   6.567  11.689  0.00  0.00    +0.000 C 
BRANCH   7   8
ATOM      8  C   UNL     1      45.338   6.390  12.886  0.00  0.00    +0.000 C 
BRANCH   8  13
ATOM      9  C   UNL     1      49.333   9.308  11.662  0.00  0.00    +0.000 A 
ATOM     10  C   UNL     1      48.023   9.629  11.969  0.00  0.00    +0.000 A 
ATOM     11  C   UNL     1      47.128   8.604  12.257  0.00  0.00    +0.000 A 
ATOM     12  C   UNL     1      47.553   7.278  12.232  0.00  0.00    +0.000 A 
ATOM     13  N   UNL     1      46.723   6.218  12.503  0.00  0.00    +0.000 N 
ATOM     14  N   UNL     1      48.827   6.959  11.937  0.00  0.00    +0.000 NA
ATOM     15  C   UNL     1      49.684   7.970  11.660  0.00  0.00    +0.000 A 
ATOM     16  H   UNL     1      47.168   5.311  12.446  0.00  0.00    +0.000 HD
ENDBRANCH   8  13
ENDBRANCH   7   8
ENDBRANCH   1   7
BRANCH   5  17
ATOM     17  O   UNL     1      46.330   4.384   7.845  0.00  0.00    +0.000 OA
BRANCH  17  18
ATOM     18  C   UNL     1      46.321   3.198   7.020  0.00  0.00    +0.000 C 
ATOM     19  C   UNL     1      47.550   2.267   7.218  0.00  0.00    +0.000 C 
ATOM     20  C   UNL     1      47.473   1.953   5.714  0.00  0.00    +0.000 C 
ATOM     21  C   UNL     1      46.785   3.322   5.542  0.00  0.00    +0.000 C 
ENDBRANCH  17  18
ENDBRANCH   5  17
TORSDOF 5
ENDMDL
MODEL 6
REMARK VINA RESULT:    -6.403      1.895      2.694
REMARK INTER + INTRA:          -8.695
REMARK INTER:                  -8.118
REMARK INTRA:                  -0.578
REMARK UNBOUND:                -0.421
REMARK  Name = 
REMARK  5 active torsions:
REMARK  status: ('A' for Active; 'I' for Inactive)
REMARK    1  A    between atoms: N_5  and  C_6
REMARK    2  A    between atoms: C_6  and  C_7
REMARK    3  A    between atoms: C_7  and  C_8
REMARK    4  A    between atoms: C_12  and  O_13
REMARK    5  A    between atoms: O_13  and  C_14
REMARK                            x       y       z     vdW  Elec       q    Type
REMARK                         _______ _______ _______ _____ _____    ______ ____
ROOT
ATOM      1  C   UNL     1      46.054   5.840  12.987  0.00  0.00    +0.000 A 
ATOM      2  C   UNL     1      45.718   4.495  13.112  0.00  0.00    +0.000 A 
ATOM      3  N   UNL     1      46.337   3.660  13.982  0.00  0.00    +0.000 NA
ATOM      4  C   UNL     1      47.310   4.229  14.734  0.00  0.00    +0.000 A 
ATOM      5  C   UNL     1      47.668   5.560  14.605  0.00  0.00    +0.000 A 
ATOM      6  N   UNL     1      47.054   6.386  13.733  0.00  0.00    +0.000 NA
ENDROOT
BRANCH   1   7
ATOM      7  C   UNL     1      45.301   6.729  12.026  0.00  0.00    +0.000 C 
BRANCH   7   8
ATOM      8  C   UNL     1      44.575   5.907  10.963  0.00  0.00    +0.000 C 
BRANCH   8  13
ATOM      9  C   UNL     1      46.057   2.285   7.699  0.00  0.00    +0.000 A 
ATOM     10  C   UNL     1      45.373   2.213   8.900  0.00  0.00    +0.000 A 
ATOM     11  C   UNL     1      45.111   3.388   9.598  0.00  0.00    +0.000 A 
ATOM     12  C   UNL     1      45.537   4.612   9.088  0.00  0.00    +0.000 A 
ATOM     13  N   UNL     1      45.316   5.809   9.724  0.00  0.00    +0.000 N 
ATOM     14  N   UNL     1      46.200   4.689   7.919  0.00  0.00    +0.000 NA
ATOM     15  C   UNL     1      46.445   3.535   7.254  0.00  0.00    +0.000 A 
ATOM     16  H   UNL     1      45.682   6.617   9.238  0.00  0.00    +0.000 HD
ENDBRANCH   8  13
ENDBRANCH   7   8
ENDBRANCH   1   7
BRANCH   5  17
ATOM     17  O   UNL     1      48.655   6.061  15.424  0.00  0.00    +0.000 OA
BRANCH  17  18
ATOM     18  C   UNL     1      48.849   5.361  16.673  0.00  0.00    +0.000 C 
ATOM     19  C   UNL     1      48.357   6.136  17.928  0.00  0.00    +0.000 C 
ATOM     20  C   UNL     1      49.543   5.521  18.692  0.00  0.00    +0.000 C 
ATOM     21  C   UNL     1      50.257   5.399  17.331  0.00  0.00    +0.000 C 
ENDBRANCH  17  18
ENDBRANCH   5  17
TORSDOF 5
ENDMDL
MODEL 7
REMARK VINA RESULT:    -6.379      2.869      6.931
REMARK INTER + INTRA:          -8.665
REMARK INTER:                  -8.361
REMARK INTRA:                  -0.304
REMARK UNBOUND:                -0.421
REMARK  Name = 
REMARK  5 active torsions:
REMARK  status: ('A' for Active; 'I' for Inactive)
REMARK    1  A    between atoms: N_5  and  C_6
REMARK    2  A    between atoms: C_6  and  C_7
REMARK    3  A    between atoms: C_7  and  C_8
REMARK    4  A    between atoms: C_12  and  O_13
REMARK    5  A    between atoms: O_13  and  C_14
REMARK                            x       y       z     vdW  Elec       q    Type
REMARK                         _______ _______ _______ _____ _____    ______ ____
ROOT
ATOM      1  C   UNL     1      45.064   4.552  12.928  0.00  0.00    +0.000 A 
ATOM      2  C   UNL     1      43.959   5.398  12.944  0.00  0.00    +0.000 A 
ATOM      3  N   UNL     1      42.946   5.300  12.049  0.00  0.00    +0.000 NA
ATOM      4  C   UNL     1      43.078   4.310  11.134  0.00  0.00    +0.000 A 
ATOM      5  C   UNL     1      44.182   3.476  11.095  0.00  0.00    +0.000 A 
ATOM      6  N   UNL     1      45.192   3.581  11.983  0.00  0.00    +0.000 NA
ENDROOT
BRANCH   1   7
ATOM      7  C   UNL     1      46.143   4.687  13.977  0.00  0.00    +0.000 C 
BRANCH   7   8
ATOM      8  C   UNL     1      47.258   5.619  13.509  0.00  0.00    +0.000 C 
BRANCH   8  13
ATOM      9  C   UNL     1      48.805   9.978  11.368  0.00  0.00    +0.000 A 
ATOM     10  C   UNL     1      49.336   8.701  11.334  0.00  0.00    +0.000 A 
ATOM     11  C   UNL     1      48.696   7.685  12.037  0.00  0.00    +0.000 A 
ATOM     12  C   UNL     1      47.539   7.961  12.762  0.00  0.00    +0.000 A 
ATOM     13  N   UNL     1      46.857   7.009  13.481  0.00  0.00    +0.000 N 
ATOM     14  N   UNL     1      47.015   9.201  12.797  0.00  0.00    +0.000 NA
ATOM     15  C   UNL     1      47.652  10.175  12.106  0.00  0.00    +0.000 A 
ATOM     16  H   UNL     1      46.036   7.353  13.960  0.00  0.00    +0.000 HD
ENDBRANCH   8  13
ENDBRANCH   7   8
ENDBRANCH   1   7
BRANCH   5  17
ATOM     17  O   UNL     1      44.225   2.482  10.143  0.00  0.00    +0.000 OA
BRANCH  17  18
ATOM     18  C   UNL     1      44.603   2.903   8.813  0.00  0.00    +0.000 C 
ATOM     19  C   UNL     1      45.878   2.208   8.257  0.00  0.00    +0.000 C 
ATOM     20  C   UNL     1      46.218   3.537   7.559  0.00  0.00    +0.000 C 
ATOM     21  C   UNL     1      45.386   4.235   8.653  0.00  0.00    +0.000 C 
ENDBRANCH  17  18
ENDBRANCH   5  17
TORSDOF 5
ENDMDL
MODEL 8
REMARK VINA RESULT:    -6.087      4.103      6.985
REMARK INTER + INTRA:          -8.288
REMARK INTER:                  -6.866
REMARK INTRA:                  -1.421
REMARK UNBOUND:                -0.421
REMARK  Name = 
REMARK  5 active torsions:
REMARK  status: ('A' for Active; 'I' for Inactive)
REMARK    1  A    between atoms: N_5  and  C_6
REMARK    2  A    between atoms: C_6  and  C_7
REMARK    3  A    between atoms: C_7  and  C_8
REMARK    4  A    between atoms: C_12  and  O_13
REMARK    5  A    between atoms: O_13  and  C_14
REMARK                            x       y       z     vdW  Elec       q    Type
REMARK                         _______ _______ _______ _____ _____    ______ ____
ROOT
ATOM      1  C   UNL     1      47.528   6.347  12.775  0.00  0.00    +0.000 A 
ATOM      2  C   UNL     1      46.198   6.540  12.412  0.00  0.00    +0.000 A 
ATOM      3  N   UNL     1      45.202   5.710  12.803  0.00  0.00    +0.000 NA
ATOM      4  C   UNL     1      45.589   4.672  13.584  0.00  0.00    +0.000 A 
ATOM      5  C   UNL     1      46.911   4.458  13.934  0.00  0.00    +0.000 A 
ATOM      6  N   UNL     1      47.901   5.283  13.538  0.00  0.00    +0.000 NA
ENDROOT
BRANCH   1   7
ATOM      7  C   UNL     1      48.589   7.331  12.340  0.00  0.00    +0.000 C 
BRANCH   7   8
ATOM      8  C   UNL     1      49.179   8.077  13.534  0.00  0.00    +0.000 C 
BRANCH   8  13
ATOM      9  C   UNL     1      49.681   6.440  18.334  0.00  0.00    +0.000 A 
ATOM     10  C   UNL     1      48.746   7.270  17.742  0.00  0.00    +0.000 A 
ATOM     11  C   UNL     1      48.866   7.561  16.387  0.00  0.00    +0.000 A 
ATOM     12  C   UNL     1      49.915   7.021  15.647  0.00  0.00    +0.000 A 
ATOM     13  N   UNL     1      50.096   7.267  14.308  0.00  0.00    +0.000 N 
ATOM     14  N   UNL     1      50.826   6.209  16.216  0.00  0.00    +0.000 NA
ATOM     15  C   UNL     1      50.692   5.938  17.536  0.00  0.00    +0.000 A 
ATOM     16  H   UNL     1      50.900   6.810  13.901  0.00  0.00    +0.000 HD
ENDBRANCH   8  13
ENDBRANCH   7   8
ENDBRANCH   1   7
BRANCH   5  17
ATOM     17  O   UNL     1      47.213   3.389  14.749  0.00  0.00    +0.000 OA
BRANCH  17  18
ATOM     18  C   UNL     1      47.874   3.713  15.992  0.00  0.00    +0.000 C 
ATOM     19  C   UNL     1      48.601   2.515  16.666  0.00  0.00    +0.000 C 
ATOM     20  C   UNL     1      48.196   3.117  18.023  0.00  0.00    +0.000 C 
ATOM     21  C   UNL     1      47.018   3.787  17.288  0.00  0.00    +0.000 C 
ENDBRANCH  17  18
ENDBRANCH   5  17
TORSDOF 5
ENDMDL
MODEL 9
REMARK VINA RESULT:    -5.996      3.255      4.671
REMARK INTER + INTRA:          -8.170
REMARK INTER:                  -7.413
REMARK INTRA:                  -0.757
REMARK UNBOUND:                -0.421
REMARK  Name = 
REMARK  5 active torsions:
REMARK  status: ('A' for Active; 'I' for Inactive)
REMARK    1  A    between atoms: N_5  and  C_6
REMARK    2  A    between atoms: C_6  and  C_7
REMARK    3  A    between atoms: C_7  and  C_8
REMARK    4  A    between atoms: C_12  and  O_13
REMARK    5  A    between atoms: O_13  and  C_14
REMARK                            x       y       z     vdW  Elec       q    Type
REMARK                         _______ _______ _______ _____ _____    ______ ____
ROOT
ATOM      1  C   UNL     1      48.088   7.485  14.053  0.00  0.00    +0.000 A 
ATOM      2  C   UNL     1      48.157   8.642  14.824  0.00  0.00    +0.000 A 
ATOM      3  N   UNL     1      48.663   8.658  16.081  0.00  0.00    +0.000 NA
ATOM      4  C   UNL     1      49.108   7.463  16.539  0.00  0.00    +0.000 A 
ATOM      5  C   UNL     1      49.025   6.301  15.790  0.00  0.00    +0.000 A 
ATOM      6  N   UNL     1      48.515   6.288  14.541  0.00  0.00    +0.000 NA
ENDROOT
BRANCH   1   7
ATOM      7  C   UNL     1      47.549   7.540  12.643  0.00  0.00    +0.000 C 
BRANCH   7   8
ATOM      8  C   UNL     1      46.025   7.441  12.627  0.00  0.00    +0.000 C 
BRANCH   8  13
ATOM      9  C   UNL     1      43.418   3.279  11.266  0.00  0.00    +0.000 A 
ATOM     10  C   UNL     1      43.782   4.407  10.552  0.00  0.00    +0.000 A 
ATOM     11  C   UNL     1      44.496   5.412  11.197  0.00  0.00    +0.000 A 
ATOM     12  C   UNL     1      44.832   5.275  12.542  0.00  0.00    +0.000 A 
ATOM     13  N   UNL     1      45.532   6.227  13.242  0.00  0.00    +0.000 N 
ATOM     14  N   UNL     1      44.483   4.179  13.242  0.00  0.00    +0.000 NA
ATOM     15  C   UNL     1      43.790   3.213  12.596  0.00  0.00    +0.000 A 
ATOM     16  H   UNL     1      45.704   5.995  14.211  0.00  0.00    +0.000 HD
ENDBRANCH   8  13
ENDBRANCH   7   8
ENDBRANCH   1   7
BRANCH   5  17
ATOM     17  O   UNL     1      49.520   5.133  16.326  0.00  0.00    +0.000 OA
BRANCH  17  18
ATOM     18  C   UNL     1      48.673   4.479  17.297  0.00  0.00    +0.000 C 
ATOM     19  C   UNL     1      48.862   2.939  17.382  0.00  0.00    +0.000 C 
ATOM     20  C   UNL     1      47.352   2.834  17.657  0.00  0.00    +0.000 C 
ATOM     21  C   UNL     1      47.200   4.172  16.906  0.00  0.00    +0.000 C 
ENDBRANCH  17  18
ENDBRANCH   5  17
TORSDOF 5
ENDMDL
