MODEL 1
REMARK VINA RESULT:    -7.655      0.000      0.000
REMARK INTER + INTRA:         -10.928
REMARK INTER:                  -9.892
REMARK INTRA:                  -1.036
REMARK UNBOUND:                -1.036
REMARK  Name = 
REMARK  7 active torsions:
REMARK  status: ('A' for Active; 'I' for Inactive)
REMARK    1  A    between atoms: C_1  and  C_2
REMARK    2  A    between atoms: C_2  and  C_3
REMARK    3  A    between atoms: C_2  and  C_4
REMARK    4  A    between atoms: C_2  and  C_20
REMARK    5  A    between atoms: C_4  and  N_5
REMARK    6  A    between atoms: N_5  and  C_6
REMARK    7  A    between atoms: C_10  and  C_11
REMARK                            x       y       z     vdW  Elec       q    Type
REMARK                         _______ _______ _______ _____ _____    ______ ____
ROOT
ATOM      1  C   UNL     1      45.135   5.918  12.540  0.00  0.00    +0.000 A 
ATOM      2  C   UNL     1      43.766   5.839  12.800  0.00  0.00    +0.000 A 
ATOM      3  C   UNL     1      42.932   5.051  12.009  0.00  0.00    +0.000 A 
ATOM      4  C   UNL     1      43.451   4.355  10.917  0.00  0.00    +0.000 A 
ATOM      5  C   UNL     1      44.812   4.437  10.584  0.00  0.00    +0.000 A 
ATOM      6  C   UNL     1      45.631   5.223  11.420  0.00  0.00    +0.000 A 
ENDROOT
BRANCH   5   7
ATOM      7  C   UNL     1      45.353   3.752   9.389  0.00  0.00    +0.000 A 
ATOM      8  C   UNL     1      45.807   4.450   8.262  0.00  0.00    +0.000 A 
ATOM      9  N   UNL     1      46.301   3.884   7.129  0.00  0.00    +0.000 NA
ATOM     10  C   UNL     1      46.358   2.535   7.113  0.00  0.00    +0.000 A 
ATOM     11  F   UNL     1      46.845   1.951   6.010  0.00  0.00    +0.000 F 
ATOM     12  C   UNL     1      45.946   1.742   8.169  0.00  0.00    +0.000 A 
ATOM     13  F   UNL     1      46.025   0.407   8.107  0.00  0.00    +0.000 F 
ATOM     14  C   UNL     1      45.435   2.355   9.310  0.00  0.00    +0.000 A 
ENDBRANCH   5   7
BRANCH   1  15
ATOM     15  N   UNL     1      46.025   6.731  13.251  0.00  0.00    +0.000 N 
ATOM     16  H   UNL     1      45.638   7.668  13.362  0.00  0.00    +0.000 HD
BRANCH  15  17
ATOM     17  C   UNL     1      47.448   6.750  12.897  0.00  0.00    +0.000 C 
BRANCH  17  19
ATOM     18  C   UNL     1      49.774   7.505  13.571  0.00  0.00    +0.000 C 
ATOM     19  C   UNL     1      48.345   7.216  14.083  0.00  0.00    +0.000 C 
ATOM     20  C   UNL     1      47.777   8.552  14.619  0.00  0.00    +0.000 C 
BRANCH  19  21
ATOM     21  C   UNL     1      48.276   6.192  15.220  0.00  0.00    +0.000 A 
ATOM     22  C   UNL     1      48.783   6.439  16.496  0.00  0.00    +0.000 A 
ATOM     23  C   UNL     1      48.627   5.478  17.494  0.00  0.00    +0.000 A 
ATOM     24  C   UNL     1      47.980   4.286  17.201  0.00  0.00    +0.000 A 
ATOM     25  C   UNL     1      47.524   4.099  15.912  0.00  0.00    +0.000 A 
ATOM     26  N   UNL     1      47.660   5.016  14.928  0.00  0.00    +0.000 NA
ENDBRANCH  19  21
ENDBRANCH  17  19
ENDBRANCH  15  17
ENDBRANCH   1  15
TORSDOF 5
ENDMDL
MODEL 2
REMARK VINA RESULT:    -7.334      3.464      8.079
REMARK INTER + INTRA:         -10.514
REMARK INTER:                  -9.840
REMARK INTRA:                  -0.674
REMARK UNBOUND:                -1.036
REMARK  Name = 
REMARK  7 active torsions:
REMARK  status: ('A' for Active; 'I' for Inactive)
REMARK    1  A    between atoms: C_1  and  C_2
REMARK    2  A    between atoms: C_2  and  C_3
REMARK    3  A    between atoms: C_2  and  C_4
REMARK    4  A    between atoms: C_2  and  C_20
REMARK    5  A    between atoms: C_4  and  N_5
REMARK    6  A    between atoms: N_5  and  C_6
REMARK    7  A    between atoms: C_10  and  C_11
REMARK                            x       y       z     vdW  Elec       q    Type
REMARK                         _______ _______ _______ _____ _____    ______ ____
ROOT
ATOM      1  C   UNL     1      46.926   6.068  12.535  0.00  0.00    +0.000 A 
ATOM      2  C   UNL     1      47.690   7.203  12.261  0.00  0.00    +0.000 A 
ATOM      3  C   UNL     1      48.625   7.675  13.181  0.00  0.00    +0.000 A 
ATOM      4  C   UNL     1      48.784   7.036  14.411  0.00  0.00    +0.000 A 
ATOM      5  C   UNL     1      48.007   5.918  14.755  0.00  0.00    +0.000 A 
ATOM      6  C   UNL     1      47.090   5.454  13.791  0.00  0.00    +0.000 A 
ENDROOT
BRANCH   5   7
ATOM      7  C   UNL     1      48.128   5.278  16.084  0.00  0.00    +0.000 A 
ATOM      8  C   UNL     1      48.899   5.828  17.117  0.00  0.00    +0.000 A 
ATOM      9  N   UNL     1      49.064   5.287  18.353  0.00  0.00    +0.000 NA
ATOM     10  C   UNL     1      48.415   4.127  18.586  0.00  0.00    +0.000 A 
ATOM     11  F   UNL     1      48.557   3.573  19.798  0.00  0.00    +0.000 F 
ATOM     12  C   UNL     1      47.620   3.495  17.647  0.00  0.00    +0.000 A 
ATOM     13  F   UNL     1      46.993   2.346  17.927  0.00  0.00    +0.000 F 
ATOM     14  C   UNL     1      47.482   4.072  16.386  0.00  0.00    +0.000 A 
ENDBRANCH   5   7
BRANCH   1  15
ATOM     15  N   UNL     1      45.929   5.569  11.688  0.00  0.00    +0.000 N 
ATOM     16  H   UNL     1      45.237   6.292  11.490  0.00  0.00    +0.000 HD
BRANCH  15  17
ATOM     17  C   UNL     1      45.315   4.265  11.963  0.00  0.00    +0.000 C 
BRANCH  17  19
ATOM     18  C   UNL     1      43.307   2.804  11.448  0.00  0.00    +0.000 C 
ATOM     19  C   UNL     1      44.276   3.862  10.875  0.00  0.00    +0.000 C 
ATOM     20  C   UNL     1      43.429   5.111  10.532  0.00  0.00    +0.000 C 
BRANCH  19  21
ATOM     21  C   UNL     1      45.002   3.428   9.597  0.00  0.00    +0.000 A 
ATOM     22  C   UNL     1      45.442   4.331   8.629  0.00  0.00    +0.000 A 
ATOM     23  C   UNL     1      46.148   3.861   7.523  0.00  0.00    +0.000 A 
ATOM     24  C   UNL     1      46.394   2.501   7.396  0.00  0.00    +0.000 A 
ATOM     25  C   UNL     1      45.910   1.663   8.379  0.00  0.00    +0.000 A 
ATOM     26  N   UNL     1      45.225   2.094   9.462  0.00  0.00    +0.000 NA
ENDBRANCH  19  21
ENDBRANCH  17  19
ENDBRANCH  15  17
ENDBRANCH   1  15
TORSDOF 5
ENDMDL
MODEL 3
REMARK VINA RESULT:    -7.033      2.744      4.325
REMARK INTER + INTRA:         -10.125
REMARK INTER:                  -8.879
REMARK INTRA:                  -1.246
REMARK UNBOUND:                -1.036
REMARK  Name = 
REMARK  7 active torsions:
REMARK  status: ('A' for Active; 'I' for Inactive)
REMARK    1  A    between atoms: C_1  and  C_2
REMARK    2  A    between atoms: C_2  and  C_3
REMARK    3  A    between atoms: C_2  and  C_4
REMARK    4  A    between atoms: C_2  and  C_20
REMARK    5  A    between atoms: C_4  and  N_5
REMARK    6  A    between atoms: N_5  and  C_6
REMARK    7  A    between atoms: C_10  and  C_11
REMARK                            x       y       z     vdW  Elec       q    Type
REMARK                         _______ _______ _______ _____ _____    ______ ____
ROOT
ATOM      1  C   UNL     1      48.822   7.064  14.086  0.00  0.00    +0.000 A 
ATOM      2  C   UNL     1      49.278   7.905  13.070  0.00  0.00    +0.000 A 
ATOM      3  C   UNL     1      48.632   7.953  11.837  0.00  0.00    +0.000 A 
ATOM      4  C   UNL     1      47.535   7.129  11.585  0.00  0.00    +0.000 A 
ATOM      5  C   UNL     1      47.064   6.230  12.557  0.00  0.00    +0.000 A 
ATOM      6  C   UNL     1      47.726   6.227  13.801  0.00  0.00    +0.000 A 
ENDROOT
BRANCH   5   7
ATOM      7  C   UNL     1      45.942   5.310  12.271  0.00  0.00    +0.000 A 
ATOM      8  C   UNL     1      45.458   4.395  13.216  0.00  0.00    +0.000 A 
ATOM      9  N   UNL     1      44.443   3.515  13.015  0.00  0.00    +0.000 NA
ATOM     10  C   UNL     1      43.859   3.546  11.798  0.00  0.00    +0.000 A 
ATOM     11  F   UNL     1      42.853   2.691  11.573  0.00  0.00    +0.000 F 
ATOM     12  C   UNL     1      44.246   4.410  10.789  0.00  0.00    +0.000 A 
ATOM     13  F   UNL     1      43.634   4.406   9.598  0.00  0.00    +0.000 F 
ATOM     14  C   UNL     1      45.298   5.292  11.025  0.00  0.00    +0.000 A 
ENDBRANCH   5   7
BRANCH   1  15
ATOM     15  N   UNL     1      49.451   6.917  15.328  0.00  0.00    +0.000 N 
ATOM     16  H   UNL     1      49.767   5.956  15.454  0.00  0.00    +0.000 HD
BRANCH  15  17
ATOM     17  C   UNL     1      48.829   7.467  16.537  0.00  0.00    +0.000 C 
BRANCH  17  19
ATOM     18  C   UNL     1      50.445   7.022  18.440  0.00  0.00    +0.000 C 
ATOM     19  C   UNL     1      49.108   6.592  17.794  0.00  0.00    +0.000 C 
ATOM     20  C   UNL     1      47.995   6.870  18.832  0.00  0.00    +0.000 C 
BRANCH  19  21
ATOM     21  C   UNL     1      49.035   5.108  17.421  0.00  0.00    +0.000 A 
ATOM     22  C   UNL     1      50.080   4.213  17.653  0.00  0.00    +0.000 A 
ATOM     23  C   UNL     1      49.913   2.866  17.340  0.00  0.00    +0.000 A 
ATOM     24  C   UNL     1      48.713   2.435  16.791  0.00  0.00    +0.000 A 
ATOM     25  C   UNL     1      47.730   3.379  16.567  0.00  0.00    +0.000 A 
ATOM     26  N   UNL     1      47.867   4.690  16.865  0.00  0.00    +0.000 NA
ENDBRANCH  19  21
ENDBRANCH  17  19
ENDBRANCH  15  17
ENDBRANCH   1  15
TORSDOF 5
ENDMDL
MODEL 4
REMARK VINA RESULT:    -6.715      1.913      2.893
REMARK INTER + INTRA:          -9.714
REMARK INTER:                  -8.833
REMARK INTRA:                  -0.881
REMARK UNBOUND:                -1.036
REMARK  Name = 
REMARK  7 active torsions:
REMARK  status: ('A' for Active; 'I' for Inactive)
REMARK    1  A    between atoms: C_1  and  C_2
REMARK    2  A    between atoms: C_2  and  C_3
REMARK    3  A    between atoms: C_2  and  C_4
REMARK    4  A    between atoms: C_2  and  C_20
REMARK    5  A    between atoms: C_4  and  N_5
REMARK    6  A    between atoms: N_5  and  C_6
REMARK    7  A    between atoms: C_10  and  C_11
REMARK                            x       y       z     vdW  Elec       q    Type
REMARK                         _______ _______ _______ _____ _____    ______ ____
ROOT
ATOM      1  C   UNL     1      47.051   7.838  13.079  0.00  0.00    +0.000 A 
ATOM      2  C   UNL     1      46.253   8.960  12.851  0.00  0.00    +0.000 A 
ATOM      3  C   UNL     1      45.132   8.885  12.026  0.00  0.00    +0.000 A 
ATOM      4  C   UNL     1      44.811   7.689  11.384  0.00  0.00    +0.000 A 
ATOM      5  C   UNL     1      45.607   6.543  11.543  0.00  0.00    +0.000 A 
ATOM      6  C   UNL     1      46.718   6.648  12.404  0.00  0.00    +0.000 A 
ENDROOT
BRANCH   5   7
ATOM      7  C   UNL     1      45.305   5.292  10.814  0.00  0.00    +0.000 A 
ATOM      8  C   UNL     1      44.796   4.152  11.451  0.00  0.00    +0.000 A 
ATOM      9  N   UNL     1      44.510   2.970  10.845  0.00  0.00    +0.000 NA
ATOM     10  C   UNL     1      44.734   2.913   9.515  0.00  0.00    +0.000 A 
ATOM     11  F   UNL     1      44.458   1.760   8.890  0.00  0.00    +0.000 F 
ATOM     12  C   UNL     1      45.227   3.975   8.778  0.00  0.00    +0.000 A 
ATOM     13  F   UNL     1      45.429   3.872   7.459  0.00  0.00    +0.000 F 
ATOM     14  C   UNL     1      45.519   5.169   9.433  0.00  0.00    +0.000 A 
ENDBRANCH   5   7
BRANCH   1  15
ATOM     15  N   UNL     1      48.222   7.849  13.846  0.00  0.00    +0.000 N 
ATOM     16  H   UNL     1      48.925   8.445  13.411  0.00  0.00    +0.000 HD
BRANCH  15  17
ATOM     17  C   UNL     1      48.785   6.590  14.347  0.00  0.00    +0.000 C 
BRANCH  17  19
ATOM     18  C   UNL     1      50.792   6.936  15.858  0.00  0.00    +0.000 C 
ATOM     19  C   UNL     1      49.265   6.706  15.824  0.00  0.00    +0.000 C 
ATOM     20  C   UNL     1      48.605   7.959  16.448  0.00  0.00    +0.000 C 
BRANCH  19  21
ATOM     21  C   UNL     1      48.791   5.486  16.621  0.00  0.00    +0.000 A 
ATOM     22  C   UNL     1      47.678   4.727  16.260  0.00  0.00    +0.000 A 
ATOM     23  C   UNL     1      47.348   3.596  17.004  0.00  0.00    +0.000 A 
ATOM     24  C   UNL     1      48.124   3.247  18.100  0.00  0.00    +0.000 A 
ATOM     25  C   UNL     1      49.197   4.057  18.414  0.00  0.00    +0.000 A 
ATOM     26  N   UNL     1      49.540   5.156  17.707  0.00  0.00    +0.000 NA
ENDBRANCH  19  21
ENDBRANCH  17  19
ENDBRANCH  15  17
ENDBRANCH   1  15
TORSDOF 5
ENDMDL
MODEL 5
REMARK VINA RESULT:    -6.556      3.988      8.292
REMARK INTER + INTRA:          -9.508
REMARK INTER:                  -8.680
REMARK INTRA:                  -0.827
REMARK UNBOUND:                -1.036
REMARK  Name = 
REMARK  7 active torsions:
REMARK  status: ('A' for Active; 'I' for Inactive)
REMARK    1  A    between atoms: C_1  and  C_2
REMARK    2  A    between atoms: C_2  and  C_3
REMARK    3  A    between atoms: C_2  and  C_4
REMARK    4  A    between atoms: C_2  and  C_20
REMARK    5  A    between atoms: C_4  and  N_5
REMARK    6  A    between atoms: N_5  and  C_6
REMARK    7  A    between atoms: C_10  and  C_11
REMARK                            x       y       z     vdW  Elec       q    Type
REMARK                         _______ _______ _______ _____ _____    ______ ____
ROOT
ATOM      1  C   UNL     1      46.452   6.289  12.761  0.00  0.00    +0.000 A 
ATOM      2  C   UNL     1      46.961   7.364  12.030  0.00  0.00    +0.000 A 
ATOM      3  C   UNL     1      48.121   8.021  12.438  0.00  0.00    +0.000 A 
ATOM      4  C   UNL     1      48.773   7.634  13.609  0.00  0.00    +0.000 A 
ATOM      5  C   UNL     1      48.276   6.589  14.406  0.00  0.00    +0.000 A 
ATOM      6  C   UNL     1      47.116   5.931  13.949  0.00  0.00    +0.000 A 
ENDROOT
BRANCH   5   7
ATOM      7  C   UNL     1      48.929   6.220  15.681  0.00  0.00    +0.000 A 
ATOM      8  C   UNL     1      48.320   5.380  16.623  0.00  0.00    +0.000 A 
ATOM      9  N   UNL     1      48.856   5.012  17.816  0.00  0.00    +0.000 NA
ATOM     10  C   UNL     1      50.083   5.502  18.094  0.00  0.00    +0.000 A 
ATOM     11  F   UNL     1      50.638   5.152  19.263  0.00  0.00    +0.000 F 
ATOM     12  C   UNL     1      50.784   6.333  17.238  0.00  0.00    +0.000 A 
ATOM     13  F   UNL     1      52.001   6.791  17.557  0.00  0.00    +0.000 F 
ATOM     14  C   UNL     1      50.200   6.698  16.028  0.00  0.00    +0.000 A 
ENDBRANCH   5   7
BRANCH   1  15
ATOM     15  N   UNL     1      45.264   5.619  12.448  0.00  0.00    +0.000 N 
ATOM     16  H   UNL     1      44.530   5.871  13.108  0.00  0.00    +0.000 HD
BRANCH  15  17
ATOM     17  C   UNL     1      45.286   4.181  12.155  0.00  0.00    +0.000 C 
BRANCH  17  19
ATOM     18  C   UNL     1      43.345   2.651  11.585  0.00  0.00    +0.000 C 
ATOM     19  C   UNL     1      44.251   3.787  11.059  0.00  0.00    +0.000 C 
ATOM     20  C   UNL     1      43.339   5.009  10.797  0.00  0.00    +0.000 C 
BRANCH  19  21
ATOM     21  C   UNL     1      44.979   3.461   9.751  0.00  0.00    +0.000 A 
ATOM     22  C   UNL     1      45.452   4.442   8.880  0.00  0.00    +0.000 A 
ATOM     23  C   UNL     1      46.157   4.064   7.738  0.00  0.00    +0.000 A 
ATOM     24  C   UNL     1      46.368   2.717   7.479  0.00  0.00    +0.000 A 
ATOM     25  C   UNL     1      45.851   1.800   8.372  0.00  0.00    +0.000 A 
ATOM     26  N   UNL     1      45.168   2.141   9.487  0.00  0.00    +0.000 NA
ENDBRANCH  19  21
ENDBRANCH  17  19
ENDBRANCH  15  17
ENDBRANCH   1  15
TORSDOF 5
ENDMDL
MODEL 6
REMARK VINA RESULT:    -6.311      2.983      5.039
REMARK INTER + INTRA:          -9.192
REMARK INTER:                  -7.959
REMARK INTRA:                  -1.233
REMARK UNBOUND:                -1.036
REMARK  Name = 
REMARK  7 active torsions:
REMARK  status: ('A' for Active; 'I' for Inactive)
REMARK    1  A    between atoms: C_1  and  C_2
REMARK    2  A    between atoms: C_2  and  C_3
REMARK    3  A    between atoms: C_2  and  C_4
REMARK    4  A    between atoms: C_2  and  C_20
REMARK    5  A    between atoms: C_4  and  N_5
REMARK    6  A    between atoms: N_5  and  C_6
REMARK    7  A    between atoms: C_10  and  C_11
REMARK                            x       y       z     vdW  Elec       q    Type
REMARK                         _______ _______ _______ _____ _____    ______ ____
ROOT
ATOM      1  C   UNL     1      49.176   6.704  15.046  0.00  0.00    +0.000 A 
ATOM      2  C   UNL     1      49.947   7.572  14.271  0.00  0.00    +0.000 A 
ATOM      3  C   UNL     1      49.534   7.950  12.995  0.00  0.00    +0.000 A 
ATOM      4  C   UNL     1      48.355   7.435  12.457  0.00  0.00    +0.000 A 
ATOM      5  C   UNL     1      47.565   6.523  13.176  0.00  0.00    +0.000 A 
ATOM      6  C   UNL     1      48.001   6.182  14.472  0.00  0.00    +0.000 A 
ENDROOT
BRANCH   5   7
ATOM      7  C   UNL     1      46.349   5.926  12.582  0.00  0.00    +0.000 A 
ATOM      8  C   UNL     1      45.496   6.643  11.733  0.00  0.00    +0.000 A 
ATOM      9  N   UNL     1      44.359   6.162  11.165  0.00  0.00    +0.000 NA
ATOM     10  C   UNL     1      44.048   4.879  11.451  0.00  0.00    +0.000 A 
ATOM     11  F   UNL     1      42.933   4.377  10.902  0.00  0.00    +0.000 F 
ATOM     12  C   UNL     1      44.817   4.072  12.269  0.00  0.00    +0.000 A 
ATOM     13  F   UNL     1      44.469   2.804  12.520  0.00  0.00    +0.000 F 
ATOM     14  C   UNL     1      45.971   4.601  12.843  0.00  0.00    +0.000 A 
ENDBRANCH   5   7
BRANCH   1  15
ATOM     15  N   UNL     1      49.551   6.233  16.309  0.00  0.00    +0.000 N 
ATOM     16  H   UNL     1      49.906   5.280  16.241  0.00  0.00    +0.000 HD
BRANCH  15  17
ATOM     17  C   UNL     1      48.660   6.420  17.459  0.00  0.00    +0.000 C 
BRANCH  17  19
ATOM     18  C   UNL     1      48.031   5.369  19.681  0.00  0.00    +0.000 C 
ATOM     19  C   UNL     1      48.364   5.082  18.199  0.00  0.00    +0.000 C 
ATOM     20  C   UNL     1      47.101   4.450  17.566  0.00  0.00    +0.000 C 
BRANCH  19  21
ATOM     21  C   UNL     1      49.526   4.105  17.992  0.00  0.00    +0.000 A 
ATOM     22  C   UNL     1      49.376   2.867  17.365  0.00  0.00    +0.000 A 
ATOM     23  C   UNL     1      50.495   2.061  17.161  0.00  0.00    +0.000 A 
ATOM     24  C   UNL     1      51.740   2.497  17.593  0.00  0.00    +0.000 A 
ATOM     25  C   UNL     1      51.811   3.721  18.226  0.00  0.00    +0.000 A 
ATOM     26  N   UNL     1      50.742   4.522  18.433  0.00  0.00    +0.000 NA
ENDBRANCH  19  21
ENDBRANCH  17  19
ENDBRANCH  15  17
ENDBRANCH   1  15
TORSDOF 5
ENDMDL
MODEL 7
REMARK VINA RESULT:    -6.165      2.778      4.615
REMARK INTER + INTRA:          -9.003
REMARK INTER:                  -8.031
REMARK INTRA:                  -0.972
REMARK UNBOUND:                -1.036
REMARK  Name = 
REMARK  7 active torsions:
REMARK  status: ('A' for Active; 'I' for Inactive)
REMARK    1  A    between atoms: C_1  and  C_2
REMARK    2  A    between atoms: C_2  and  C_3
REMARK    3  A    between atoms: C_2  and  C_4
REMARK    4  A    between atoms: C_2  and  C_20
REMARK    5  A    between atoms: C_4  and  N_5
REMARK    6  A    between atoms: N_5  and  C_6
REMARK    7  A    between atoms: C_10  and  C_11
REMARK                            x       y       z     vdW  Elec       q    Type
REMARK                         _______ _______ _______ _____ _____    ______ ____
ROOT
ATOM      1  C   UNL     1      48.726   6.960  14.232  0.00  0.00    +0.000 A 
ATOM      2  C   UNL     1      49.208   7.844  13.265  0.00  0.00    +0.000 A 
ATOM      3  C   UNL     1      48.609   7.927  12.009  0.00  0.00    +0.000 A 
ATOM      4  C   UNL     1      47.535   7.096  11.687  0.00  0.00    +0.000 A 
ATOM      5  C   UNL     1      47.042   6.157  12.607  0.00  0.00    +0.000 A 
ATOM      6  C   UNL     1      47.656   6.119  13.875  0.00  0.00    +0.000 A 
ENDROOT
BRANCH   5   7
ATOM      7  C   UNL     1      45.946   5.231  12.245  0.00  0.00    +0.000 A 
ATOM      8  C   UNL     1      45.487   4.232  13.114  0.00  0.00    +0.000 A 
ATOM      9  N   UNL     1      44.497   3.342  12.841  0.00  0.00    +0.000 NA
ATOM     10  C   UNL     1      43.914   3.453  11.628  0.00  0.00    +0.000 A 
ATOM     11  F   UNL     1      42.932   2.590  11.333  0.00  0.00    +0.000 F 
ATOM     12  C   UNL     1      44.279   4.403  10.691  0.00  0.00    +0.000 A 
ATOM     13  F   UNL     1      43.669   4.476   9.501  0.00  0.00    +0.000 F 
ATOM     14  C   UNL     1      45.305   5.293  11.000  0.00  0.00    +0.000 A 
ENDBRANCH   5   7
BRANCH   1  15
ATOM     15  N   UNL     1      49.309   6.779  15.491  0.00  0.00    +0.000 N 
ATOM     16  H   UNL     1      50.308   6.599  15.397  0.00  0.00    +0.000 HD
BRANCH  15  17
ATOM     17  C   UNL     1      48.671   5.900  16.478  0.00  0.00    +0.000 C 
BRANCH  17  19
ATOM     18  C   UNL     1      49.472   7.669  18.110  0.00  0.00    +0.000 C 
ATOM     19  C   UNL     1      49.191   6.161  17.923  0.00  0.00    +0.000 C 
ATOM     20  C   UNL     1      48.065   5.784  18.915  0.00  0.00    +0.000 C 
BRANCH  19  21
ATOM     21  C   UNL     1      50.391   5.254  18.215  0.00  0.00    +0.000 A 
ATOM     22  C   UNL     1      51.184   5.386  19.355  0.00  0.00    +0.000 A 
ATOM     23  C   UNL     1      52.222   4.483  19.578  0.00  0.00    +0.000 A 
ATOM     24  C   UNL     1      52.457   3.471  18.657  0.00  0.00    +0.000 A 
ATOM     25  C   UNL     1      51.649   3.414  17.540  0.00  0.00    +0.000 A 
ATOM     26  N   UNL     1      50.635   4.275  17.303  0.00  0.00    +0.000 NA
ENDBRANCH  19  21
ENDBRANCH  17  19
ENDBRANCH  15  17
ENDBRANCH   1  15
TORSDOF 5
ENDMDL
MODEL 8
REMARK VINA RESULT:    -6.078      2.780      4.742
REMARK INTER + INTRA:          -8.891
REMARK INTER:                  -7.931
REMARK INTRA:                  -0.960
REMARK UNBOUND:                -1.036
REMARK  Name = 
REMARK  7 active torsions:
REMARK  status: ('A' for Active; 'I' for Inactive)
REMARK    1  A    between atoms: C_1  and  C_2
REMARK    2  A    between atoms: C_2  and  C_3
REMARK    3  A    between atoms: C_2  and  C_4
REMARK    4  A    between atoms: C_2  and  C_20
REMARK    5  A    between atoms: C_4  and  N_5
REMARK    6  A    between atoms: N_5  and  C_6
REMARK    7  A    between atoms: C_10  and  C_11
REMARK                            x       y       z     vdW  Elec       q    Type
REMARK                         _______ _______ _______ _____ _____    ______ ____
ROOT
ATOM      1  C   UNL     1      48.599   7.004  14.376  0.00  0.00    +0.000 A 
ATOM      2  C   UNL     1      49.166   7.829  13.404  0.00  0.00    +0.000 A 
ATOM      3  C   UNL     1      48.649   7.869  12.110  0.00  0.00    +0.000 A 
ATOM      4  C   UNL     1      47.574   7.053  11.757  0.00  0.00    +0.000 A 
ATOM      5  C   UNL     1      46.996   6.171  12.685  0.00  0.00    +0.000 A 
ATOM      6  C   UNL     1      47.528   6.175  13.990  0.00  0.00    +0.000 A 
ENDROOT
BRANCH   5   7
ATOM      7  C   UNL     1      45.899   5.258  12.295  0.00  0.00    +0.000 A 
ATOM      8  C   UNL     1      45.409   4.262  13.150  0.00  0.00    +0.000 A 
ATOM      9  N   UNL     1      44.415   3.384  12.852  0.00  0.00    +0.000 NA
ATOM     10  C   UNL     1      43.862   3.506  11.626  0.00  0.00    +0.000 A 
ATOM     11  F   UNL     1      42.877   2.655  11.306  0.00  0.00    +0.000 F 
ATOM     12  C   UNL     1      44.258   4.455  10.701  0.00  0.00    +0.000 A 
ATOM     13  F   UNL     1      43.676   4.537   9.498  0.00  0.00    +0.000 F 
ATOM     14  C   UNL     1      45.286   5.332  11.036  0.00  0.00    +0.000 A 
ENDBRANCH   5   7
BRANCH   1  15
ATOM     15  N   UNL     1      49.097   6.865  15.677  0.00  0.00    +0.000 N 
ATOM     16  H   UNL     1      50.074   7.153  15.715  0.00  0.00    +0.000 HD
BRANCH  15  17
ATOM     17  C   UNL     1      48.843   5.634  16.435  0.00  0.00    +0.000 C 
BRANCH  17  19
ATOM     18  C   UNL     1      50.102   4.102  18.015  0.00  0.00    +0.000 C 
ATOM     19  C   UNL     1      49.684   5.564  17.744  0.00  0.00    +0.000 C 
ATOM     20  C   UNL     1      50.985   6.373  17.524  0.00  0.00    +0.000 C 
BRANCH  19  21
ATOM     21  C   UNL     1      48.915   6.226  18.892  0.00  0.00    +0.000 A 
ATOM     22  C   UNL     1      48.227   5.499  19.864  0.00  0.00    +0.000 A 
ATOM     23  C   UNL     1      47.602   6.174  20.911  0.00  0.00    +0.000 A 
ATOM     24  C   UNL     1      47.663   7.559  20.965  0.00  0.00    +0.000 A 
ATOM     25  C   UNL     1      48.340   8.215  19.957  0.00  0.00    +0.000 A 
ATOM     26  N   UNL     1      48.958   7.584  18.934  0.00  0.00    +0.000 NA
ENDBRANCH  19  21
ENDBRANCH  17  19
ENDBRANCH  15  17
ENDBRANCH   1  15
TORSDOF 5
ENDMDL
