MODEL 1
REMARK VINA RESULT:    -8.988      0.000      0.000
REMARK INTER + INTRA:         -11.986
REMARK INTER:                 -11.089
REMARK INTRA:                  -0.897
REMARK UNBOUND:                -0.897
REMARK  Name = 
REMARK  4 active torsions:
REMARK  status: ('A' for Active; 'I' for Inactive)
REMARK    1  A    between atoms: C_2  and  C_4
REMARK    2  A    between atoms: N_8  and  C_9
REMARK    3  A    between atoms: C_9  and  C_10
REMARK    4  A    between atoms: C_15  and  C_16
REMARK                            x       y       z     vdW  Elec       q    Type
REMARK                         _______ _______ _______ _____ _____    ______ ____
ROOT
ATOM      1  C   UNL     1      43.919   4.953  11.459  0.00  0.00    +0.000 C 
ATOM      2  C   UNL     1      42.643   5.136  12.271  0.00  0.00    +0.000 C 
ATOM      3  C   UNL     1      42.960   6.098  11.180  0.00  0.00    +0.000 C 
ENDROOT
BRANCH   1   8
ATOM      4  C   UNL     1      46.445   2.684   7.504  0.00  0.00    +0.000 A 
ATOM      5  C   UNL     1      46.011   4.005   7.621  0.00  0.00    +0.000 A 
ATOM      6  C   UNL     1      45.201   4.374   8.696  0.00  0.00    +0.000 A 
ATOM      7  C   UNL     1      44.832   3.423   9.635  0.00  0.00    +0.000 A 
ATOM      8  N   UNL     1      43.961   3.694  10.693  0.00  0.00    +0.000 N 
ATOM      9  N   UNL     1      45.233   2.134   9.528  0.00  0.00    +0.000 NA
ATOM     10  C   UNL     1      46.012   1.787   8.467  0.00  0.00    +0.000 A 
ATOM     11  H   UNL     1      43.919   2.837  11.243  0.00  0.00    +0.000 HD
BRANCH   4  13
ATOM     12  N   UNL     1      47.336   3.046   5.288  0.00  0.00    +0.000 N 
ATOM     13  C   UNL     1      47.275   2.226   6.378  0.00  0.00    +0.000 C 
ATOM     14  O   UNL     1      47.900   1.178   6.426  0.00  0.00    +0.000 OA
ATOM     15  H   UNL     1      47.957   2.769   4.535  0.00  0.00    +0.000 HD
ATOM     16  H   UNL     1      47.033   4.011   5.304  0.00  0.00    +0.000 HD
ENDBRANCH   4  13
ENDBRANCH   1   8
BRANCH   1  17
ATOM     17  C   UNL     1      45.261   5.329  12.078  0.00  0.00    +0.000 A 
ATOM     18  C   UNL     1      46.086   6.325  11.533  0.00  0.00    +0.000 A 
ATOM     19  C   UNL     1      47.279   6.692  12.157  0.00  0.00    +0.000 A 
ATOM     20  C   UNL     1      47.663   6.063  13.340  0.00  0.00    +0.000 A 
ATOM     21  F   UNL     1      48.798   6.484  13.920  0.00  0.00    +0.000 F 
ATOM     22  C   UNL     1      46.902   5.040  13.921  0.00  0.00    +0.000 A 
ATOM     23  C   UNL     1      45.703   4.698  13.261  0.00  0.00    +0.000 A 
BRANCH  22  24
ATOM     24  C   UNL     1      47.311   4.349  15.159  0.00  0.00    +0.000 A 
ATOM     25  C   UNL     1      47.908   3.098  15.176  0.00  0.00    +0.000 A 
ATOM     26  N   UNL     1      48.317   2.444  16.286  0.00  0.00    +0.000 NA
ATOM     27  C   UNL     1      48.108   3.082  17.442  0.00  0.00    +0.000 A 
ATOM     28  N   UNL     1      47.542   4.291  17.576  0.00  0.00    +0.000 NA
ATOM     29  C   UNL     1      47.161   4.891  16.429  0.00  0.00    +0.000 A 
ENDBRANCH  22  24
ENDBRANCH   1  17
TORSDOF 4
ENDMDL
MODEL 2
REMARK VINA RESULT:    -8.952      2.447      3.668
REMARK INTER + INTRA:         -11.943
REMARK INTER:                 -10.923
REMARK INTRA:                  -1.020
REMARK UNBOUND:                -0.897
REMARK  Name = 
REMARK  4 active torsions:
REMARK  status: ('A' for Active; 'I' for Inactive)
REMARK    1  A    between atoms: C_2  and  C_4
REMARK    2  A    between atoms: N_8  and  C_9
REMARK    3  A    between atoms: C_9  and  C_10
REMARK    4  A    between atoms: C_15  and  C_16
REMARK                            x       y       z     vdW  Elec       q    Type
REMARK                         _______ _______ _______ _____ _____    ______ ____
ROOT
ATOM      1  C   UNL     1      43.798   4.929  11.349  0.00  0.00    +0.000 C 
ATOM      2  C   UNL     1      42.456   5.129  12.040  0.00  0.00    +0.000 C 
ATOM      3  C   UNL     1      42.911   6.119  11.025  0.00  0.00    +0.000 C 
ENDROOT
BRANCH   1   8
ATOM      4  C   UNL     1      46.570   2.753   7.507  0.00  0.00    +0.000 A 
ATOM      5  C   UNL     1      46.154   4.078   7.643  0.00  0.00    +0.000 A 
ATOM      6  C   UNL     1      45.273   4.425   8.668  0.00  0.00    +0.000 A 
ATOM      7  C   UNL     1      44.815   3.449   9.539  0.00  0.00    +0.000 A 
ATOM      8  N   UNL     1      43.874   3.699  10.540  0.00  0.00    +0.000 N 
ATOM      9  N   UNL     1      45.198   2.155   9.413  0.00  0.00    +0.000 NA
ATOM     10  C   UNL     1      46.048   1.831   8.400  0.00  0.00    +0.000 A 
ATOM     11  H   UNL     1      43.774   2.823  11.051  0.00  0.00    +0.000 HD
BRANCH   4  13
ATOM     12  N   UNL     1      47.367   2.977   5.238  0.00  0.00    +0.000 N 
ATOM     13  C   UNL     1      47.473   2.319   6.430  0.00  0.00    +0.000 C 
ATOM     14  O   UNL     1      48.295   1.432   6.599  0.00  0.00    +0.000 OA
ATOM     15  H   UNL     1      48.029   2.728   4.511  0.00  0.00    +0.000 HD
ATOM     16  H   UNL     1      46.876   3.856   5.133  0.00  0.00    +0.000 HD
ENDBRANCH   4  13
ENDBRANCH   1   8
BRANCH   1  17
ATOM     17  C   UNL     1      45.085   5.232  12.110  0.00  0.00    +0.000 A 
ATOM     18  C   UNL     1      45.602   4.364  13.085  0.00  0.00    +0.000 A 
ATOM     19  C   UNL     1      46.814   4.637  13.719  0.00  0.00    +0.000 A 
ATOM     20  C   UNL     1      47.527   5.787  13.386  0.00  0.00    +0.000 A 
ATOM     21  F   UNL     1      48.707   5.979  13.996  0.00  0.00    +0.000 F 
ATOM     22  C   UNL     1      47.053   6.711  12.445  0.00  0.00    +0.000 A 
ATOM     23  C   UNL     1      45.824   6.399  11.825  0.00  0.00    +0.000 A 
BRANCH  22  24
ATOM     24  C   UNL     1      47.785   7.945  12.103  0.00  0.00    +0.000 A 
ATOM     25  C   UNL     1      49.101   7.958  11.667  0.00  0.00    +0.000 A 
ATOM     26  N   UNL     1      49.798   9.065  11.322  0.00  0.00    +0.000 NA
ATOM     27  C   UNL     1      49.134  10.220  11.428  0.00  0.00    +0.000 A 
ATOM     28  N   UNL     1      47.864  10.358  11.837  0.00  0.00    +0.000 NA
ATOM     29  C   UNL     1      47.224   9.214  12.160  0.00  0.00    +0.000 A 
ENDBRANCH  22  24
ENDBRANCH   1  17
TORSDOF 4
ENDMDL
MODEL 3
REMARK VINA RESULT:    -6.766      3.184      7.490
REMARK INTER + INTRA:          -9.246
REMARK INTER:                  -9.184
REMARK INTRA:                  -0.062
REMARK UNBOUND:                -0.897
REMARK  Name = 
REMARK  4 active torsions:
REMARK  status: ('A' for Active; 'I' for Inactive)
REMARK    1  A    between atoms: C_2  and  C_4
REMARK    2  A    between atoms: N_8  and  C_9
REMARK    3  A    between atoms: C_9  and  C_10
REMARK    4  A    between atoms: C_15  and  C_16
REMARK                            x       y       z     vdW  Elec       q    Type
REMARK                         _______ _______ _______ _____ _____    ______ ____
ROOT
ATOM      1  C   UNL     1      48.616   7.850  12.707  0.00  0.00    +0.000 C 
ATOM      2  C   UNL     1      49.709   7.264  11.824  0.00  0.00    +0.000 C 
ATOM      3  C   UNL     1      49.445   8.729  11.787  0.00  0.00    +0.000 C 
ENDROOT
BRANCH   1   8
ATOM      4  C   UNL     1      48.094   4.364  16.548  0.00  0.00    +0.000 A 
ATOM      5  C   UNL     1      47.213   4.655  15.506  0.00  0.00    +0.000 A 
ATOM      6  C   UNL     1      47.464   5.745  14.672  0.00  0.00    +0.000 A 
ATOM      7  C   UNL     1      48.585   6.532  14.890  0.00  0.00    +0.000 A 
ATOM      8  N   UNL     1      48.864   7.684  14.151  0.00  0.00    +0.000 N 
ATOM      9  N   UNL     1      49.443   6.272  15.905  0.00  0.00    +0.000 NA
ATOM     10  C   UNL     1      49.177   5.212  16.717  0.00  0.00    +0.000 A 
ATOM     11  H   UNL     1      49.765   8.017  14.489  0.00  0.00    +0.000 HD
BRANCH   4  13
ATOM     12  N   UNL     1      48.936   2.855  18.236  0.00  0.00    +0.000 N 
ATOM     13  C   UNL     1      47.869   3.247  17.479  0.00  0.00    +0.000 C 
ATOM     14  O   UNL     1      46.776   2.713  17.590  0.00  0.00    +0.000 OA
ATOM     15  H   UNL     1      48.773   2.130  18.926  0.00  0.00    +0.000 HD
ATOM     16  H   UNL     1      49.773   3.414  18.344  0.00  0.00    +0.000 HD
ENDBRANCH   4  13
ENDBRANCH   1   8
BRANCH   1  17
ATOM     17  C   UNL     1      47.154   7.654  12.319  0.00  0.00    +0.000 A 
ATOM     18  C   UNL     1      46.164   8.602  12.620  0.00  0.00    +0.000 A 
ATOM     19  C   UNL     1      44.846   8.424  12.197  0.00  0.00    +0.000 A 
ATOM     20  C   UNL     1      44.501   7.290  11.464  0.00  0.00    +0.000 A 
ATOM     21  F   UNL     1      43.230   7.191  11.046  0.00  0.00    +0.000 F 
ATOM     22  C   UNL     1      45.433   6.290  11.155  0.00  0.00    +0.000 A 
ATOM     23  C   UNL     1      46.755   6.507  11.600  0.00  0.00    +0.000 A 
BRANCH  22  24
ATOM     24  C   UNL     1      45.074   5.073  10.403  0.00  0.00    +0.000 A 
ATOM     25  C   UNL     1      45.507   4.817   9.111  0.00  0.00    +0.000 A 
ATOM     26  N   UNL     1      45.218   3.704   8.398  0.00  0.00    +0.000 NA
ATOM     27  C   UNL     1      44.448   2.805   9.019  0.00  0.00    +0.000 A 
ATOM     28  N   UNL     1      43.957   2.921  10.261  0.00  0.00    +0.000 NA
ATOM     29  C   UNL     1      44.286   4.052  10.920  0.00  0.00    +0.000 A 
ENDBRANCH  22  24
ENDBRANCH   1  17
TORSDOF 4
ENDMDL
MODEL 4
REMARK VINA RESULT:    -6.718      4.209      8.085
REMARK INTER + INTRA:          -9.187
REMARK INTER:                  -8.123
REMARK INTRA:                  -1.063
REMARK UNBOUND:                -0.897
REMARK  Name = 
REMARK  4 active torsions:
REMARK  status: ('A' for Active; 'I' for Inactive)
REMARK    1  A    between atoms: C_2  and  C_4
REMARK    2  A    between atoms: N_8  and  C_9
REMARK    3  A    between atoms: C_9  and  C_10
REMARK    4  A    between atoms: C_15  and  C_16
REMARK                            x       y       z     vdW  Elec       q    Type
REMARK                         _______ _______ _______ _____ _____    ______ ____
ROOT
ATOM      1  C   UNL     1      49.144   7.935  12.570  0.00  0.00    +0.000 C 
ATOM      2  C   UNL     1      50.105   7.968  11.390  0.00  0.00    +0.000 C 
ATOM      3  C   UNL     1      49.888   9.204  12.191  0.00  0.00    +0.000 C 
ENDROOT
BRANCH   1   8
ATOM      4  C   UNL     1      48.492   7.101  17.675  0.00  0.00    +0.000 A 
ATOM      5  C   UNL     1      48.655   8.312  17.001  0.00  0.00    +0.000 A 
ATOM      6  C   UNL     1      48.984   8.310  15.644  0.00  0.00    +0.000 A 
ATOM      7  C   UNL     1      49.151   7.104  14.981  0.00  0.00    +0.000 A 
ATOM      8  N   UNL     1      49.556   7.016  13.647  0.00  0.00    +0.000 N 
ATOM      9  N   UNL     1      49.010   5.920  15.624  0.00  0.00    +0.000 NA
ATOM     10  C   UNL     1      48.701   5.939  16.949  0.00  0.00    +0.000 A 
ATOM     11  H   UNL     1      49.538   6.024  13.417  0.00  0.00    +0.000 HD
BRANCH   4  13
ATOM     12  N   UNL     1      47.225   6.132  19.489  0.00  0.00    +0.000 N 
ATOM     13  C   UNL     1      48.174   7.037  19.110  0.00  0.00    +0.000 C 
ATOM     14  O   UNL     1      48.749   7.740  19.927  0.00  0.00    +0.000 OA
ATOM     15  H   UNL     1      47.046   6.036  20.482  0.00  0.00    +0.000 HD
ATOM     16  H   UNL     1      46.905   5.382  18.889  0.00  0.00    +0.000 HD
ENDBRANCH   4  13
ENDBRANCH   1   8
BRANCH   1  17
ATOM     17  C   UNL     1      47.641   7.928  12.313  0.00  0.00    +0.000 A 
ATOM     18  C   UNL     1      46.905   9.110  12.137  0.00  0.00    +0.000 A 
ATOM     19  C   UNL     1      45.542   9.071  11.840  0.00  0.00    +0.000 A 
ATOM     20  C   UNL     1      44.896   7.842  11.716  0.00  0.00    +0.000 A 
ATOM     21  F   UNL     1      43.594   7.862  11.388  0.00  0.00    +0.000 F 
ATOM     22  C   UNL     1      45.563   6.626  11.909  0.00  0.00    +0.000 A 
ATOM     23  C   UNL     1      46.941   6.708  12.207  0.00  0.00    +0.000 A 
BRANCH  22  24
ATOM     24  C   UNL     1      44.885   5.320  11.806  0.00  0.00    +0.000 A 
ATOM     25  C   UNL     1      44.509   4.563  12.905  0.00  0.00    +0.000 A 
ATOM     26  N   UNL     1      43.867   3.375  12.850  0.00  0.00    +0.000 NA
ATOM     27  C   UNL     1      43.592   2.923  11.623  0.00  0.00    +0.000 A 
ATOM     28  N   UNL     1      43.897   3.544  10.474  0.00  0.00    +0.000 NA
ATOM     29  C   UNL     1      44.534   4.729  10.599  0.00  0.00    +0.000 A 
ENDBRANCH  22  24
ENDBRANCH   1  17
TORSDOF 4
ENDMDL
MODEL 5
REMARK VINA RESULT:    -6.357      3.072      3.648
REMARK INTER + INTRA:          -8.741
REMARK INTER:                  -8.573
REMARK INTRA:                  -0.168
REMARK UNBOUND:                -0.897
REMARK  Name = 
REMARK  4 active torsions:
REMARK  status: ('A' for Active; 'I' for Inactive)
REMARK    1  A    between atoms: C_2  and  C_4
REMARK    2  A    between atoms: N_8  and  C_9
REMARK    3  A    between atoms: C_9  and  C_10
REMARK    4  A    between atoms: C_15  and  C_16
REMARK                            x       y       z     vdW  Elec       q    Type
REMARK                         _______ _______ _______ _____ _____    ______ ____
ROOT
ATOM      1  C   UNL     1      43.943   5.281  11.523  0.00  0.00    +0.000 C 
ATOM      2  C   UNL     1      44.450   4.189  12.456  0.00  0.00    +0.000 C 
ATOM      3  C   UNL     1      43.159   4.867  12.756  0.00  0.00    +0.000 C 
ENDROOT
BRANCH   1   8
ATOM      4  C   UNL     1      46.349   3.533   7.242  0.00  0.00    +0.000 A 
ATOM      5  C   UNL     1      46.735   4.561   8.103  0.00  0.00    +0.000 A 
ATOM      6  C   UNL     1      45.863   4.988   9.105  0.00  0.00    +0.000 A 
ATOM      7  C   UNL     1      44.618   4.390   9.232  0.00  0.00    +0.000 A 
ATOM      8  N   UNL     1      43.659   4.812  10.156  0.00  0.00    +0.000 N 
ATOM      9  N   UNL     1      44.222   3.400   8.395  0.00  0.00    +0.000 NA
ATOM     10  C   UNL     1      45.080   3.004   7.416  0.00  0.00    +0.000 A 
ATOM     11  H   UNL     1      42.880   4.162  10.061  0.00  0.00    +0.000 HD
BRANCH   4  13
ATOM     12  N   UNL     1      48.466   2.643   6.492  0.00  0.00    +0.000 N 
ATOM     13  C   UNL     1      47.211   3.058   6.148  0.00  0.00    +0.000 C 
ATOM     14  O   UNL     1      46.817   3.014   4.993  0.00  0.00    +0.000 OA
ATOM     15  H   UNL     1      49.043   2.254   5.755  0.00  0.00    +0.000 HD
ATOM     16  H   UNL     1      48.740   2.444   7.446  0.00  0.00    +0.000 HD
ENDBRANCH   4  13
ENDBRANCH   1   8
BRANCH   1  17
ATOM     17  C   UNL     1      44.591   6.662  11.566  0.00  0.00    +0.000 A 
ATOM     18  C   UNL     1      43.890   7.830  11.226  0.00  0.00    +0.000 A 
ATOM     19  C   UNL     1      44.490   9.085  11.335  0.00  0.00    +0.000 A 
ATOM     20  C   UNL     1      45.804   9.187  11.786  0.00  0.00    +0.000 A 
ATOM     21  F   UNL     1      46.318  10.421  11.912  0.00  0.00    +0.000 F 
ATOM     22  C   UNL     1      46.571   8.061  12.112  0.00  0.00    +0.000 A 
ATOM     23  C   UNL     1      45.928   6.810  11.990  0.00  0.00    +0.000 A 
BRANCH  22  24
ATOM     24  C   UNL     1      47.971   8.154  12.567  0.00  0.00    +0.000 A 
ATOM     25  C   UNL     1      48.338   8.569  13.838  0.00  0.00    +0.000 A 
ATOM     26  N   UNL     1      49.607   8.646  14.297  0.00  0.00    +0.000 NA
ATOM     27  C   UNL     1      50.558   8.291  13.427  0.00  0.00    +0.000 A 
ATOM     28  N   UNL     1      50.351   7.874  12.169  0.00  0.00    +0.000 NA
ATOM     29  C   UNL     1      49.061   7.815  11.775  0.00  0.00    +0.000 A 
ENDBRANCH  22  24
ENDBRANCH   1  17
TORSDOF 4
ENDMDL
MODEL 6
REMARK VINA RESULT:    -6.291      2.863      4.480
REMARK INTER + INTRA:          -8.659
REMARK INTER:                  -8.527
REMARK INTRA:                  -0.132
REMARK UNBOUND:                -0.897
REMARK  Name = 
REMARK  4 active torsions:
REMARK  status: ('A' for Active; 'I' for Inactive)
REMARK    1  A    between atoms: C_2  and  C_4
REMARK    2  A    between atoms: N_8  and  C_9
REMARK    3  A    between atoms: C_9  and  C_10
REMARK    4  A    between atoms: C_15  and  C_16
REMARK                            x       y       z     vdW  Elec       q    Type
REMARK                         _______ _______ _______ _____ _____    ______ ____
ROOT
ATOM      1  C   UNL     1      47.484   8.577  13.059  0.00  0.00    +0.000 C 
ATOM      2  C   UNL     1      47.513  10.089  12.878  0.00  0.00    +0.000 C 
ATOM      3  C   UNL     1      48.071   9.213  11.810  0.00  0.00    +0.000 C 
ENDROOT
BRANCH   1   8
ATOM      4  C   UNL     1      44.684   4.451  11.541  0.00  0.00    +0.000 A 
ATOM      5  C   UNL     1      45.642   5.169  10.824  0.00  0.00    +0.000 A 
ATOM      6  C   UNL     1      46.161   6.351  11.354  0.00  0.00    +0.000 A 
ATOM      7  C   UNL     1      45.715   6.803  12.586  0.00  0.00    +0.000 A 
ATOM      8  N   UNL     1      46.125   8.014  13.149  0.00  0.00    +0.000 N 
ATOM      9  N   UNL     1      44.775   6.126  13.289  0.00  0.00    +0.000 NA
ATOM     10  C   UNL     1      44.271   4.981  12.752  0.00  0.00    +0.000 A 
ATOM     11  H   UNL     1      45.686   8.055  14.067  0.00  0.00    +0.000 HD
BRANCH   4  13
ATOM     12  N   UNL     1      44.808   2.509  10.109  0.00  0.00    +0.000 N 
ATOM     13  C   UNL     1      44.078   3.214  11.022  0.00  0.00    +0.000 C 
ATOM     14  O   UNL     1      42.987   2.823  11.408  0.00  0.00    +0.000 OA
ATOM     15  H   UNL     1      44.426   1.623   9.795  0.00  0.00    +0.000 HD
ATOM     16  H   UNL     1      45.794   2.669   9.947  0.00  0.00    +0.000 HD
ENDBRANCH   4  13
ENDBRANCH   1   8
BRANCH   1  17
ATOM     17  C   UNL     1      48.475   7.918  14.012  0.00  0.00    +0.000 A 
ATOM     18  C   UNL     1      49.781   8.402  14.190  0.00  0.00    +0.000 A 
ATOM     19  C   UNL     1      50.645   7.817  15.116  0.00  0.00    +0.000 A 
ATOM     20  C   UNL     1      50.212   6.734  15.879  0.00  0.00    +0.000 A 
ATOM     21  F   UNL     1      51.069   6.237  16.784  0.00  0.00    +0.000 F 
ATOM     22  C   UNL     1      48.932   6.182  15.731  0.00  0.00    +0.000 A 
ATOM     23  C   UNL     1      48.088   6.803  14.785  0.00  0.00    +0.000 A 
BRANCH  22  24
ATOM     24  C   UNL     1      48.471   5.020  16.514  0.00  0.00    +0.000 A 
ATOM     25  C   UNL     1      49.197   4.461  17.554  0.00  0.00    +0.000 A 
ATOM     26  N   UNL     1      48.798   3.413  18.309  0.00  0.00    +0.000 NA
ATOM     27  C   UNL     1      47.605   2.897  17.995  0.00  0.00    +0.000 A 
ATOM     28  N   UNL     1      46.798   3.332  17.016  0.00  0.00    +0.000 NA
ATOM     29  C   UNL     1      47.254   4.385  16.304  0.00  0.00    +0.000 A 
ENDBRANCH  22  24
ENDBRANCH   1  17
TORSDOF 4
ENDMDL
MODEL 7
REMARK VINA RESULT:    -6.192      3.714      5.574
REMARK INTER + INTRA:          -8.537
REMARK INTER:                  -7.436
REMARK INTRA:                  -1.101
REMARK UNBOUND:                -0.897
REMARK  Name = 
REMARK  4 active torsions:
REMARK  status: ('A' for Active; 'I' for Inactive)
REMARK    1  A    between atoms: C_2  and  C_4
REMARK    2  A    between atoms: N_8  and  C_9
REMARK    3  A    between atoms: C_9  and  C_10
REMARK    4  A    between atoms: C_15  and  C_16
REMARK                            x       y       z     vdW  Elec       q    Type
REMARK                         _______ _______ _______ _____ _____    ______ ____
ROOT
ATOM      1  C   UNL     1      49.180   8.745  12.991  0.00  0.00    +0.000 C 
ATOM      2  C   UNL     1      50.370   9.589  12.556  0.00  0.00    +0.000 C 
ATOM      3  C   UNL     1      50.408   8.113  12.360  0.00  0.00    +0.000 C 
ENDROOT
BRANCH   1   8
ATOM      4  C   UNL     1      44.684   6.558  11.516  0.00  0.00    +0.000 A 
ATOM      5  C   UNL     1      45.965   6.004  11.522  0.00  0.00    +0.000 A 
ATOM      6  C   UNL     1      47.067   6.814  11.798  0.00  0.00    +0.000 A 
ATOM      7  C   UNL     1      46.879   8.163  12.059  0.00  0.00    +0.000 A 
ATOM      8  N   UNL     1      47.934   9.055  12.266  0.00  0.00    +0.000 N 
ATOM      9  N   UNL     1      45.644   8.719  12.043  0.00  0.00    +0.000 NA
ATOM     10  C   UNL     1      44.580   7.917  11.760  0.00  0.00    +0.000 A 
ATOM     11  H   UNL     1      47.500   9.949  12.488  0.00  0.00    +0.000 HD
BRANCH   4  13
ATOM     12  N   UNL     1      42.296   6.231  11.683  0.00  0.00    +0.000 N 
ATOM     13  C   UNL     1      43.485   5.763  11.203  0.00  0.00    +0.000 C 
ATOM     14  O   UNL     1      43.547   4.748  10.526  0.00  0.00    +0.000 OA
ATOM     15  H   UNL     1      41.458   5.725  11.418  0.00  0.00    +0.000 HD
ATOM     16  H   UNL     1      42.174   7.172  12.036  0.00  0.00    +0.000 HD
ENDBRANCH   4  13
ENDBRANCH   1   8
BRANCH   1  17
ATOM     17  C   UNL     1      48.962   8.467  14.475  0.00  0.00    +0.000 A 
ATOM     18  C   UNL     1      48.580   9.471  15.379  0.00  0.00    +0.000 A 
ATOM     19  C   UNL     1      48.327   9.174  16.718  0.00  0.00    +0.000 A 
ATOM     20  C   UNL     1      48.454   7.863  17.172  0.00  0.00    +0.000 A 
ATOM     21  F   UNL     1      48.157   7.626  18.460  0.00  0.00    +0.000 F 
ATOM     22  C   UNL     1      48.861   6.818  16.332  0.00  0.00    +0.000 A 
ATOM     23  C   UNL     1      49.106   7.159  14.984  0.00  0.00    +0.000 A 
BRANCH  22  24
ATOM     24  C   UNL     1      49.023   5.431  16.806  0.00  0.00    +0.000 A 
ATOM     25  C   UNL     1      48.013   4.482  16.760  0.00  0.00    +0.000 A 
ATOM     26  N   UNL     1      48.131   3.198  17.163  0.00  0.00    +0.000 NA
ATOM     27  C   UNL     1      49.329   2.852  17.645  0.00  0.00    +0.000 A 
ATOM     28  N   UNL     1      50.392   3.662  17.752  0.00  0.00    +0.000 NA
ATOM     29  C   UNL     1      50.210   4.930  17.327  0.00  0.00    +0.000 A 
ENDBRANCH  22  24
ENDBRANCH   1  17
TORSDOF 4
ENDMDL
