MODEL 1
REMARK VINA RESULT:    -8.377      0.000      0.000
REMARK INTER + INTRA:         -12.214
REMARK INTER:                 -11.315
REMARK INTRA:                  -0.898
REMARK UNBOUND:                -0.898
REMARK  Name = 
REMARK  6 active torsions:
REMARK  status: ('A' for Active; 'I' for Inactive)
REMARK    1  A    between atoms: C_2  and  C_25
REMARK    2  A    between atoms: N_3  and  C_4
REMARK    3  A    between atoms: C_4  and  C_5
REMARK    4  A    between atoms: C_8  and  C_9
REMARK    5  A    between atoms: C_9  and  N_10
REMARK    6  A    between atoms: C_11  and  C_13
REMARK                            x       y       z     vdW  Elec       q    Type
REMARK                         _______ _______ _______ _____ _____    ______ ____
ROOT
ATOM      1  C   UNL     1      44.646   4.557  10.658  0.00  0.00    +0.000 C 
ATOM      2  C   UNL     1      45.646   5.534  10.030  0.00  0.00    +0.000 C 
ATOM      3  C   UNL     1      45.975   6.694  10.962  0.00  0.00    +0.000 C 
ATOM      4  C   UNL     1      46.486   6.229  12.334  0.00  0.00    +0.000 C 
ATOM      5  C   UNL     1      45.487   5.245  12.955  0.00  0.00    +0.000 C 
ATOM      6  C   UNL     1      45.177   4.075  12.019  0.00  0.00    +0.000 C 
ENDROOT
BRANCH   1   7
ATOM      7  C   UNL     1      44.382   3.371   9.715  0.00  0.00    +0.000 C 
BRANCH   7  10
ATOM      8  O   UNL     1      45.607   1.004   8.783  0.00  0.00    +0.000 OA
ATOM      9  C   UNL     1      45.885   2.073   8.243  0.00  0.00    +0.000 C 
ATOM     10  N   UNL     1      45.354   3.284   8.641  0.00  0.00    +0.000 N 
ATOM     11  H   UNL     1      45.599   4.087   8.075  0.00  0.00    +0.000 HD
BRANCH   9  12
ATOM     12  C   UNL     1      46.804   2.152   7.097  0.00  0.00    +0.000 A 
ATOM     13  C   UNL     1      46.596   2.938   5.933  0.00  0.00    +0.000 A 
ATOM     14  C   UNL     1      47.678   2.692   5.126  0.00  0.00    +0.000 A 
ATOM     15  N   UNL     1      48.437   1.778   5.795  0.00  0.00    +0.000 N 
ATOM     16  N   UNL     1      47.956   1.457   7.011  0.00  0.00    +0.000 NA
ATOM     17  H   UNL     1      49.294   1.335   5.478  0.00  0.00    +0.000 HD
ENDBRANCH   9  12
ENDBRANCH   7  10
ENDBRANCH   1   7
BRANCH   4  18
ATOM     18  C   UNL     1      46.712   7.403  13.302  0.00  0.00    +0.000 C 
BRANCH  18  19
ATOM     19  N   UNL     1      47.266   6.996  14.573  0.00  0.00    +0.000 N 
ATOM     20  C   UNL     1      48.584   6.623  14.685  0.00  0.00    +0.000 C 
ATOM     21  O   UNL     1      49.365   6.657  13.739  0.00  0.00    +0.000 OA
ATOM     22  H   UNL     1      46.622   6.642  15.272  0.00  0.00    +0.000 HD
BRANCH  20  23
ATOM     23  C   UNL     1      49.023   6.248  16.033  0.00  0.00    +0.000 A 
ATOM     24  C   UNL     1      50.016   6.977  16.670  0.00  0.00    +0.000 A 
ATOM     25  S   UNL     1      50.373   6.408  18.239  0.00  0.00    +0.000 S 
ATOM     26  C   UNL     1      49.241   5.143  18.100  0.00  0.00    +0.000 A 
ATOM     27  N   UNL     1      49.063   4.241  19.100  0.00  0.00    +0.000 NA
ATOM     28  C   UNL     1      48.194   3.326  18.842  0.00  0.00    +0.000 A 
ATOM     29  N   UNL     1      47.479   3.224  17.679  0.00  0.00    +0.000 N 
ATOM     30  C   UNL     1      47.620   4.118  16.649  0.00  0.00    +0.000 A 
ATOM     31  O   UNL     1      46.956   4.008  15.625  0.00  0.00    +0.000 OA
ATOM     32  C   UNL     1      48.591   5.168  16.883  0.00  0.00    +0.000 A 
ATOM     33  H   UNL     1      46.809   2.484  17.540  0.00  0.00    +0.000 HD
ENDBRANCH  20  23
ENDBRANCH  18  19
ENDBRANCH   4  18
TORSDOF 6
ENDMDL
MODEL 2
REMARK VINA RESULT:    -8.134      1.659      1.894
REMARK INTER + INTRA:         -11.886
REMARK INTER:                 -11.220
REMARK INTRA:                  -0.665
REMARK UNBOUND:                -0.898
REMARK  Name = 
REMARK  6 active torsions:
REMARK  status: ('A' for Active; 'I' for Inactive)
REMARK    1  A    between atoms: C_2  and  C_25
REMARK    2  A    between atoms: N_3  and  C_4
REMARK    3  A    between atoms: C_4  and  C_5
REMARK    4  A    between atoms: C_8  and  C_9
REMARK    5  A    between atoms: C_9  and  N_10
REMARK    6  A    between atoms: C_11  and  C_13
REMARK                            x       y       z     vdW  Elec       q    Type
REMARK                         _______ _______ _______ _____ _____    ______ ____
ROOT
ATOM      1  C   UNL     1      44.928   4.669  12.062  0.00  0.00    +0.000 C 
ATOM      2  C   UNL     1      45.598   5.622  11.067  0.00  0.00    +0.000 C 
ATOM      3  C   UNL     1      46.450   6.674  11.766  0.00  0.00    +0.000 C 
ATOM      4  C   UNL     1      47.505   6.062  12.699  0.00  0.00    +0.000 C 
ATOM      5  C   UNL     1      46.832   5.102  13.688  0.00  0.00    +0.000 C 
ATOM      6  C   UNL     1      45.995   4.039  12.976  0.00  0.00    +0.000 C 
ENDROOT
BRANCH   1   7
ATOM      7  C   UNL     1      44.124   3.586  11.321  0.00  0.00    +0.000 C 
BRANCH   7  10
ATOM      8  O   UNL     1      44.255   3.864   8.514  0.00  0.00    +0.000 OA
ATOM      9  C   UNL     1      44.959   3.020   9.064  0.00  0.00    +0.000 C 
ATOM     10  N   UNL     1      44.949   2.795  10.426  0.00  0.00    +0.000 N 
ATOM     11  H   UNL     1      45.624   2.125  10.773  0.00  0.00    +0.000 HD
BRANCH   9  12
ATOM     12  C   UNL     1      45.899   2.178   8.309  0.00  0.00    +0.000 A 
ATOM     13  C   UNL     1      46.839   2.650   7.355  0.00  0.00    +0.000 A 
ATOM     14  C   UNL     1      47.481   1.532   6.887  0.00  0.00    +0.000 A 
ATOM     15  N   UNL     1      46.898   0.477   7.524  0.00  0.00    +0.000 N 
ATOM     16  N   UNL     1      45.960   0.835   8.422  0.00  0.00    +0.000 NA
ATOM     17  H   UNL     1      47.093  -0.510   7.392  0.00  0.00    +0.000 HD
ENDBRANCH   9  12
ENDBRANCH   7  10
ENDBRANCH   1   7
BRANCH   4  18
ATOM     18  C   UNL     1      48.286   7.132  13.481  0.00  0.00    +0.000 C 
BRANCH  18  19
ATOM     19  N   UNL     1      48.073   7.067  14.908  0.00  0.00    +0.000 N 
ATOM     20  C   UNL     1      49.117   6.828  15.770  0.00  0.00    +0.000 C 
ATOM     21  O   UNL     1      50.276   6.706  15.389  0.00  0.00    +0.000 OA
ATOM     22  H   UNL     1      47.141   6.832  15.232  0.00  0.00    +0.000 HD
BRANCH  20  23
ATOM     23  C   UNL     1      48.768   6.802  17.194  0.00  0.00    +0.000 A 
ATOM     24  C   UNL     1      48.349   7.961  17.830  0.00  0.00    +0.000 A 
ATOM     25  S   UNL     1      47.962   7.729  19.476  0.00  0.00    +0.000 S 
ATOM     26  C   UNL     1      48.382   6.080  19.401  0.00  0.00    +0.000 A 
ATOM     27  N   UNL     1      48.315   5.282  20.499  0.00  0.00    +0.000 NA
ATOM     28  C   UNL     1      48.690   4.067  20.298  0.00  0.00    +0.000 A 
ATOM     29  N   UNL     1      49.125   3.565  19.100  0.00  0.00    +0.000 N 
ATOM     30  C   UNL     1      49.199   4.331  17.965  0.00  0.00    +0.000 A 
ATOM     31  O   UNL     1      49.580   3.850  16.905  0.00  0.00    +0.000 OA
ATOM     32  C   UNL     1      48.793   5.712  18.136  0.00  0.00    +0.000 A 
ATOM     33  H   UNL     1      49.401   2.601  19.007  0.00  0.00    +0.000 HD
ENDBRANCH  20  23
ENDBRANCH  18  19
ENDBRANCH   4  18
TORSDOF 6
ENDMDL
MODEL 3
REMARK VINA RESULT:    -8.069      2.157      2.616
REMARK INTER + INTRA:         -11.798
REMARK INTER:                 -10.898
REMARK INTRA:                  -0.900
REMARK UNBOUND:                -0.898
REMARK  Name = 
REMARK  6 active torsions:
REMARK  status: ('A' for Active; 'I' for Inactive)
REMARK    1  A    between atoms: C_2  and  C_25
REMARK    2  A    between atoms: N_3  and  C_4
REMARK    3  A    between atoms: C_4  and  C_5
REMARK    4  A    between atoms: C_8  and  C_9
REMARK    5  A    between atoms: C_9  and  N_10
REMARK    6  A    between atoms: C_11  and  C_13
REMARK                            x       y       z     vdW  Elec       q    Type
REMARK                         _______ _______ _______ _____ _____    ______ ____
ROOT
ATOM      1  C   UNL     1      44.713   4.578  12.074  0.00  0.00    +0.000 C 
ATOM      2  C   UNL     1      45.309   5.722  11.247  0.00  0.00    +0.000 C 
ATOM      3  C   UNL     1      46.118   6.689  12.105  0.00  0.00    +0.000 C 
ATOM      4  C   UNL     1      47.224   5.988  12.908  0.00  0.00    +0.000 C 
ATOM      5  C   UNL     1      46.625   4.838  13.726  0.00  0.00    +0.000 C 
ATOM      6  C   UNL     1      45.831   3.865  12.854  0.00  0.00    +0.000 C 
ENDROOT
BRANCH   1   7
ATOM      7  C   UNL     1      43.953   3.593  11.168  0.00  0.00    +0.000 C 
BRANCH   7  10
ATOM      8  O   UNL     1      44.297   3.993   8.395  0.00  0.00    +0.000 OA
ATOM      9  C   UNL     1      44.952   3.119   8.958  0.00  0.00    +0.000 C 
ATOM     10  N   UNL     1      44.838   2.834  10.305  0.00  0.00    +0.000 N 
ATOM     11  H   UNL     1      45.481   2.144  10.671  0.00  0.00    +0.000 HD
BRANCH   9  12
ATOM     12  C   UNL     1      45.942   2.302   8.239  0.00  0.00    +0.000 A 
ATOM     13  C   UNL     1      46.877   2.794   7.290  0.00  0.00    +0.000 A 
ATOM     14  C   UNL     1      47.576   1.695   6.860  0.00  0.00    +0.000 A 
ATOM     15  N   UNL     1      47.028   0.630   7.511  0.00  0.00    +0.000 N 
ATOM     16  N   UNL     1      46.060   0.966   8.385  0.00  0.00    +0.000 NA
ATOM     17  H   UNL     1      47.269  -0.350   7.407  0.00  0.00    +0.000 HD
ENDBRANCH   9  12
ENDBRANCH   7  10
ENDBRANCH   1   7
BRANCH   4  18
ATOM     18  C   UNL     1      47.963   6.954  13.850  0.00  0.00    +0.000 C 
BRANCH  18  19
ATOM     19  N   UNL     1      47.893   6.561  15.238  0.00  0.00    +0.000 N 
ATOM     20  C   UNL     1      49.035   6.355  15.976  0.00  0.00    +0.000 C 
ATOM     21  O   UNL     1      50.159   6.533  15.518  0.00  0.00    +0.000 OA
ATOM     22  H   UNL     1      47.049   6.095  15.551  0.00  0.00    +0.000 HD
BRANCH  20  23
ATOM     23  C   UNL     1      48.825   5.976  17.376  0.00  0.00    +0.000 A 
ATOM     24  C   UNL     1      49.083   4.678  17.792  0.00  0.00    +0.000 A 
ATOM     25  S   UNL     1      48.806   4.434  19.458  0.00  0.00    +0.000 S 
ATOM     26  C   UNL     1      48.292   6.044  19.668  0.00  0.00    +0.000 A 
ATOM     27  N   UNL     1      47.872   6.501  20.876  0.00  0.00    +0.000 NA
ATOM     28  C   UNL     1      47.487   7.729  20.876  0.00  0.00    +0.000 A 
ATOM     29  N   UNL     1      47.484   8.554  19.783  0.00  0.00    +0.000 N 
ATOM     30  C   UNL     1      47.910   8.138  18.548  0.00  0.00    +0.000 A 
ATOM     31  O   UNL     1      47.908   8.903  17.591  0.00  0.00    +0.000 OA
ATOM     32  C   UNL     1      48.350   6.758  18.489  0.00  0.00    +0.000 A 
ATOM     33  H   UNL     1      47.174   9.510  19.850  0.00  0.00    +0.000 HD
ENDBRANCH  20  23
ENDBRANCH  18  19
ENDBRANCH   4  18
TORSDOF 6
ENDMDL
MODEL 4
REMARK VINA RESULT:    -7.769      1.303      1.745
REMARK INTER + INTRA:         -11.392
REMARK INTER:                 -10.725
REMARK INTRA:                  -0.667
REMARK UNBOUND:                -0.898
REMARK  Name = 
REMARK  6 active torsions:
REMARK  status: ('A' for Active; 'I' for Inactive)
REMARK    1  A    between atoms: C_2  and  C_25
REMARK    2  A    between atoms: N_3  and  C_4
REMARK    3  A    between atoms: C_4  and  C_5
REMARK    4  A    between atoms: C_8  and  C_9
REMARK    5  A    between atoms: C_9  and  N_10
REMARK    6  A    between atoms: C_11  and  C_13
REMARK                            x       y       z     vdW  Elec       q    Type
REMARK                         _______ _______ _______ _____ _____    ______ ____
ROOT
ATOM      1  C   UNL     1      44.911   6.054  11.659  0.00  0.00    +0.000 C 
ATOM      2  C   UNL     1      44.560   7.544  11.737  0.00  0.00    +0.000 C 
ATOM      3  C   UNL     1      45.397   8.276  12.779  0.00  0.00    +0.000 C 
ATOM      4  C   UNL     1      46.907   8.103  12.558  0.00  0.00    +0.000 C 
ATOM      5  C   UNL     1      47.253   6.611  12.471  0.00  0.00    +0.000 C 
ATOM      6  C   UNL     1      46.421   5.890  11.410  0.00  0.00    +0.000 C 
ENDROOT
BRANCH   1   7
ATOM      7  C   UNL     1      44.089   5.361  10.558  0.00  0.00    +0.000 C 
BRANCH   7  10
ATOM      8  O   UNL     1      43.939   2.572  10.143  0.00  0.00    +0.000 OA
ATOM      9  C   UNL     1      44.752   3.229   9.498  0.00  0.00    +0.000 C 
ATOM     10  N   UNL     1      44.915   4.592   9.646  0.00  0.00    +0.000 N 
ATOM     11  H   UNL     1      45.564   5.036   9.009  0.00  0.00    +0.000 HD
BRANCH   9  12
ATOM     12  C   UNL     1      45.623   2.614   8.484  0.00  0.00    +0.000 A 
ATOM     13  C   UNL     1      46.173   3.285   7.359  0.00  0.00    +0.000 A 
ATOM     14  C   UNL     1      46.889   2.333   6.679  0.00  0.00    +0.000 A 
ATOM     15  N   UNL     1      46.716   1.173   7.372  0.00  0.00    +0.000 N 
ATOM     16  N   UNL     1      45.984   1.314   8.494  0.00  0.00    +0.000 NA
ATOM     17  H   UNL     1      47.068   0.251   7.135  0.00  0.00    +0.000 HD
ENDBRANCH   9  12
ENDBRANCH   7  10
ENDBRANCH   1   7
BRANCH   4  18
ATOM     18  C   UNL     1      47.740   8.754  13.675  0.00  0.00    +0.000 C 
BRANCH  18  19
ATOM     19  N   UNL     1      47.904   7.907  14.833  0.00  0.00    +0.000 N 
ATOM     20  C   UNL     1      49.122   7.343  15.133  0.00  0.00    +0.000 C 
ATOM     21  O   UNL     1      50.133   7.561  14.472  0.00  0.00    +0.000 OA
ATOM     22  H   UNL     1      47.078   7.444  15.196  0.00  0.00    +0.000 HD
BRANCH  20  23
ATOM     23  C   UNL     1      49.157   6.517  16.343  0.00  0.00    +0.000 A 
ATOM     24  C   UNL     1      49.935   6.900  17.426  0.00  0.00    +0.000 A 
ATOM     25  S   UNL     1      49.826   5.830  18.750  0.00  0.00    +0.000 S 
ATOM     26  C   UNL     1      48.768   4.798  17.903  0.00  0.00    +0.000 A 
ATOM     27  N   UNL     1      48.304   3.649  18.460  0.00  0.00    +0.000 NA
ATOM     28  C   UNL     1      47.536   2.957  17.692  0.00  0.00    +0.000 A 
ATOM     29  N   UNL     1      47.180   3.304  16.416  0.00  0.00    +0.000 N 
ATOM     30  C   UNL     1      47.616   4.459  15.819  0.00  0.00    +0.000 A 
ATOM     31  O   UNL     1      47.269   4.748  14.681  0.00  0.00    +0.000 OA
ATOM     32  C   UNL     1      48.490   5.274  16.639  0.00  0.00    +0.000 A 
ATOM     33  H   UNL     1      46.570   2.720  15.867  0.00  0.00    +0.000 HD
ENDBRANCH  20  23
ENDBRANCH  18  19
ENDBRANCH   4  18
TORSDOF 6
ENDMDL
MODEL 5
REMARK VINA RESULT:    -7.128      4.934      9.362
REMARK INTER + INTRA:         -10.526
REMARK INTER:                  -9.899
REMARK INTRA:                  -0.627
REMARK UNBOUND:                -0.898
REMARK  Name = 
REMARK  6 active torsions:
REMARK  status: ('A' for Active; 'I' for Inactive)
REMARK    1  A    between atoms: C_2  and  C_25
REMARK    2  A    between atoms: N_3  and  C_4
REMARK    3  A    between atoms: C_4  and  C_5
REMARK    4  A    between atoms: C_8  and  C_9
REMARK    5  A    between atoms: C_9  and  N_10
REMARK    6  A    between atoms: C_11  and  C_13
REMARK                            x       y       z     vdW  Elec       q    Type
REMARK                         _______ _______ _______ _____ _____    ______ ____
ROOT
ATOM      1  C   UNL     1      51.355   2.882  18.059  0.00  0.00    +0.000 C 
ATOM      2  C   UNL     1      50.744   1.894  17.060  0.00  0.00    +0.000 C 
ATOM      3  C   UNL     1      49.227   2.022  16.983  0.00  0.00    +0.000 C 
ATOM      4  C   UNL     1      48.766   3.451  16.659  0.00  0.00    +0.000 C 
ATOM      5  C   UNL     1      49.387   4.437  17.655  0.00  0.00    +0.000 C 
ATOM      6  C   UNL     1      50.910   4.314  17.711  0.00  0.00    +0.000 C 
ENDROOT
BRANCH   1   7
ATOM      7  C   UNL     1      52.889   2.765  18.068  0.00  0.00    +0.000 C 
BRANCH   7  10
ATOM      8  O   UNL     1      54.508   0.959  19.514  0.00  0.00    +0.000 OA
ATOM      9  C   UNL     1      54.128   0.650  18.387  0.00  0.00    +0.000 C 
ATOM     10  N   UNL     1      53.353   1.474  17.594  0.00  0.00    +0.000 N 
ATOM     11  H   UNL     1      53.041   1.083  16.715  0.00  0.00    +0.000 HD
BRANCH   9  12
ATOM     12  C   UNL     1      54.456  -0.650  17.783  0.00  0.00    +0.000 A 
ATOM     13  C   UNL     1      55.009  -0.837  16.488  0.00  0.00    +0.000 A 
ATOM     14  C   UNL     1      55.124  -2.195  16.331  0.00  0.00    +0.000 A 
ATOM     15  N   UNL     1      54.622  -2.744  17.473  0.00  0.00    +0.000 N 
ATOM     16  N   UNL     1      54.242  -1.835  18.392  0.00  0.00    +0.000 NA
ATOM     17  H   UNL     1      54.510  -3.729  17.690  0.00  0.00    +0.000 HD
ENDBRANCH   9  12
ENDBRANCH   7  10
ENDBRANCH   1   7
BRANCH   4  18
ATOM     18  C   UNL     1      47.234   3.591  16.690  0.00  0.00    +0.000 C 
BRANCH  18  19
ATOM     19  N   UNL     1      46.726   4.519  15.707  0.00  0.00    +0.000 N 
ATOM     20  C   UNL     1      46.750   4.215  14.366  0.00  0.00    +0.000 C 
ATOM     21  O   UNL     1      47.155   3.139  13.938  0.00  0.00    +0.000 OA
ATOM     22  H   UNL     1      46.700   5.501  15.959  0.00  0.00    +0.000 HD
BRANCH  20  23
ATOM     23  C   UNL     1      46.190   5.236  13.475  0.00  0.00    +0.000 A 
ATOM     24  C   UNL     1      46.925   6.372  13.169  0.00  0.00    +0.000 A 
ATOM     25  S   UNL     1      46.121   7.430  12.098  0.00  0.00    +0.000 S 
ATOM     26  C   UNL     1      44.749   6.423  12.043  0.00  0.00    +0.000 A 
ATOM     27  N   UNL     1      43.651   6.764  11.318  0.00  0.00    +0.000 NA
ATOM     28  C   UNL     1      42.681   5.921  11.394  0.00  0.00    +0.000 A 
ATOM     29  N   UNL     1      42.700   4.762  12.123  0.00  0.00    +0.000 N 
ATOM     30  C   UNL     1      43.790   4.374  12.859  0.00  0.00    +0.000 A 
ATOM     31  O   UNL     1      43.781   3.325  13.490  0.00  0.00    +0.000 OA
ATOM     32  C   UNL     1      44.911   5.292  12.815  0.00  0.00    +0.000 A 
ATOM     33  H   UNL     1      41.907   4.140  12.137  0.00  0.00    +0.000 HD
ENDBRANCH  20  23
ENDBRANCH  18  19
ENDBRANCH   4  18
TORSDOF 6
ENDMDL
MODEL 6
REMARK VINA RESULT:    -7.083      3.441      4.628
REMARK INTER + INTRA:         -10.466
REMARK INTER:                  -9.640
REMARK INTRA:                  -0.825
REMARK UNBOUND:                -0.898
REMARK  Name = 
REMARK  6 active torsions:
REMARK  status: ('A' for Active; 'I' for Inactive)
REMARK    1  A    between atoms: C_2  and  C_25
REMARK    2  A    between atoms: N_3  and  C_4
REMARK    3  A    between atoms: C_4  and  C_5
REMARK    4  A    between atoms: C_8  and  C_9
REMARK    5  A    between atoms: C_9  and  N_10
REMARK    6  A    between atoms: C_11  and  C_13
REMARK                            x       y       z     vdW  Elec       q    Type
REMARK                         _______ _______ _______ _____ _____    ______ ____
ROOT
ATOM      1  C   UNL     1      44.512   4.304  11.924  0.00  0.00    +0.000 C 
ATOM      2  C   UNL     1      45.012   5.535  11.161  0.00  0.00    +0.000 C 
ATOM      3  C   UNL     1      45.786   6.492  12.060  0.00  0.00    +0.000 C 
ATOM      4  C   UNL     1      46.957   5.812  12.785  0.00  0.00    +0.000 C 
ATOM      5  C   UNL     1      46.453   4.576  13.541  0.00  0.00    +0.000 C 
ATOM      6  C   UNL     1      45.695   3.614  12.626  0.00  0.00    +0.000 C 
ENDROOT
BRANCH   1   7
ATOM      7  C   UNL     1      43.788   3.334  10.975  0.00  0.00    +0.000 C 
BRANCH   7  10
ATOM      8  O   UNL     1      44.448   4.001   8.312  0.00  0.00    +0.000 OA
ATOM      9  C   UNL     1      44.979   3.022   8.831  0.00  0.00    +0.000 C 
ATOM     10  N   UNL     1      44.704   2.604  10.119  0.00  0.00    +0.000 N 
ATOM     11  H   UNL     1      45.256   1.828  10.463  0.00  0.00    +0.000 HD
BRANCH   9  12
ATOM     12  C   UNL     1      45.980   2.210   8.122  0.00  0.00    +0.000 A 
ATOM     13  C   UNL     1      46.921   2.707   7.182  0.00  0.00    +0.000 A 
ATOM     14  C   UNL     1      47.629   1.611   6.758  0.00  0.00    +0.000 A 
ATOM     15  N   UNL     1      47.082   0.544   7.405  0.00  0.00    +0.000 N 
ATOM     16  N   UNL     1      46.104   0.875   8.270  0.00  0.00    +0.000 NA
ATOM     17  H   UNL     1      47.328  -0.435   7.303  0.00  0.00    +0.000 HD
ENDBRANCH   9  12
ENDBRANCH   7  10
ENDBRANCH   1   7
BRANCH   4  18
ATOM     18  C   UNL     1      47.662   6.760  13.771  0.00  0.00    +0.000 C 
BRANCH  18  19
ATOM     19  N   UNL     1      49.031   7.044  13.408  0.00  0.00    +0.000 N 
ATOM     20  C   UNL     1      49.334   8.024  12.493  0.00  0.00    +0.000 C 
ATOM     21  O   UNL     1      48.477   8.732  11.974  0.00  0.00    +0.000 OA
ATOM     22  H   UNL     1      49.714   6.304  13.538  0.00  0.00    +0.000 HD
BRANCH  20  23
ATOM     23  C   UNL     1      50.762   8.222  12.225  0.00  0.00    +0.000 A 
ATOM     24  C   UNL     1      51.273   7.980  10.959  0.00  0.00    +0.000 A 
ATOM     25  S   UNL     1      52.946   8.291  10.833  0.00  0.00    +0.000 S 
ATOM     26  C   UNL     1      53.048   8.720  12.479  0.00  0.00    +0.000 A 
ATOM     27  N   UNL     1      54.232   9.068  13.047  0.00  0.00    +0.000 NA
ATOM     28  C   UNL     1      54.160   9.338  14.304  0.00  0.00    +0.000 A 
ATOM     29  N   UNL     1      53.015   9.299  15.054  0.00  0.00    +0.000 N 
ATOM     30  C   UNL     1      51.798   8.963  14.519  0.00  0.00    +0.000 A 
ATOM     31  O   UNL     1      50.789   8.949  15.213  0.00  0.00    +0.000 OA
ATOM     32  C   UNL     1      51.822   8.642  13.106  0.00  0.00    +0.000 A 
ATOM     33  H   UNL     1      53.025   9.527  16.035  0.00  0.00    +0.000 HD
ENDBRANCH  20  23
ENDBRANCH  18  19
ENDBRANCH   4  18
TORSDOF 6
ENDMDL
MODEL 7
REMARK VINA RESULT:    -7.073      2.379      3.406
REMARK INTER + INTRA:         -10.452
REMARK INTER:                  -9.266
REMARK INTRA:                  -1.186
REMARK UNBOUND:                -0.898
REMARK  Name = 
REMARK  6 active torsions:
REMARK  status: ('A' for Active; 'I' for Inactive)
REMARK    1  A    between atoms: C_2  and  C_25
REMARK    2  A    between atoms: N_3  and  C_4
REMARK    3  A    between atoms: C_4  and  C_5
REMARK    4  A    between atoms: C_8  and  C_9
REMARK    5  A    between atoms: C_9  and  N_10
REMARK    6  A    between atoms: C_11  and  C_13
REMARK                            x       y       z     vdW  Elec       q    Type
REMARK                         _______ _______ _______ _____ _____    ______ ____
ROOT
ATOM      1  C   UNL     1      46.185   7.440  12.450  0.00  0.00    +0.000 C 
ATOM      2  C   UNL     1      46.412   8.838  13.034  0.00  0.00    +0.000 C 
ATOM      3  C   UNL     1      47.625   8.883  13.956  0.00  0.00    +0.000 C 
ATOM      4  C   UNL     1      48.908   8.383  13.275  0.00  0.00    +0.000 C 
ATOM      5  C   UNL     1      48.674   6.988  12.684  0.00  0.00    +0.000 C 
ATOM      6  C   UNL     1      47.466   6.957  11.747  0.00  0.00    +0.000 C 
ENDROOT
BRANCH   1   7
ATOM      7  C   UNL     1      44.990   7.445  11.481  0.00  0.00    +0.000 C 
BRANCH   7  10
ATOM      8  O   UNL     1      43.831   4.914  11.954  0.00  0.00    +0.000 OA
ATOM      9  C   UNL     1      44.394   5.122  10.882  0.00  0.00    +0.000 C 
ATOM     10  N   UNL     1      45.008   6.318  10.567  0.00  0.00    +0.000 N 
ATOM     11  H   UNL     1      45.375   6.397   9.627  0.00  0.00    +0.000 HD
BRANCH   9  12
ATOM     12  C   UNL     1      44.446   4.106   9.819  0.00  0.00    +0.000 A 
ATOM     13  C   UNL     1      44.476   2.701  10.028  0.00  0.00    +0.000 A 
ATOM     14  C   UNL     1      44.548   2.145   8.776  0.00  0.00    +0.000 A 
ATOM     15  N   UNL     1      44.596   3.195   7.908  0.00  0.00    +0.000 N 
ATOM     16  N   UNL     1      44.497   4.399   8.503  0.00  0.00    +0.000 NA
ATOM     17  H   UNL     1      44.694   3.159   6.898  0.00  0.00    +0.000 HD
ENDBRANCH   9  12
ENDBRANCH   7  10
ENDBRANCH   1   7
BRANCH   4  18
ATOM     18  C   UNL     1      50.102   8.332  14.245  0.00  0.00    +0.000 C 
BRANCH  18  19
ATOM     19  N   UNL     1      49.999   7.271  15.220  0.00  0.00    +0.000 N 
ATOM     20  C   UNL     1      49.689   7.541  16.532  0.00  0.00    +0.000 C 
ATOM     21  O   UNL     1      49.441   8.673  16.934  0.00  0.00    +0.000 OA
ATOM     22  H   UNL     1      50.501   6.410  15.030  0.00  0.00    +0.000 HD
BRANCH  20  23
ATOM     23  C   UNL     1      49.602   6.374  17.415  0.00  0.00    +0.000 A 
ATOM     24  C   UNL     1      50.389   6.302  18.555  0.00  0.00    +0.000 A 
ATOM     25  S   UNL     1      50.129   4.885  19.469  0.00  0.00    +0.000 S 
ATOM     26  C   UNL     1      48.985   4.303  18.348  0.00  0.00    +0.000 A 
ATOM     27  N   UNL     1      48.384   3.096  18.514  0.00  0.00    +0.000 NA
ATOM     28  C   UNL     1      47.565   2.776  17.574  0.00  0.00    +0.000 A 
ATOM     29  N   UNL     1      47.282   3.549  16.479  0.00  0.00    +0.000 N 
ATOM     30  C   UNL     1      47.857   4.777  16.278  0.00  0.00    +0.000 A 
ATOM     31  O   UNL     1      47.574   5.451  15.295  0.00  0.00    +0.000 OA
ATOM     32  C   UNL     1      48.795   5.185  17.305  0.00  0.00    +0.000 A 
ATOM     33  H   UNL     1      46.626   3.243  15.779  0.00  0.00    +0.000 HD
ENDBRANCH  20  23
ENDBRANCH  18  19
ENDBRANCH   4  18
TORSDOF 6
ENDMDL
MODEL 8
REMARK VINA RESULT:    -7.039      1.754      2.187
REMARK INTER + INTRA:         -10.407
REMARK INTER:                  -9.466
REMARK INTRA:                  -0.940
REMARK UNBOUND:                -0.898
REMARK  Name = 
REMARK  6 active torsions:
REMARK  status: ('A' for Active; 'I' for Inactive)
REMARK    1  A    between atoms: C_2  and  C_25
REMARK    2  A    between atoms: N_3  and  C_4
REMARK    3  A    between atoms: C_4  and  C_5
REMARK    4  A    between atoms: C_8  and  C_9
REMARK    5  A    between atoms: C_9  and  N_10
REMARK    6  A    between atoms: C_11  and  C_13
REMARK                            x       y       z     vdW  Elec       q    Type
REMARK                         _______ _______ _______ _____ _____    ______ ____
ROOT
ATOM      1  C   UNL     1      45.580   5.489  11.227  0.00  0.00    +0.000 C 
ATOM      2  C   UNL     1      45.813   5.003  12.661  0.00  0.00    +0.000 C 
ATOM      3  C   UNL     1      46.842   5.854  13.396  0.00  0.00    +0.000 C 
ATOM      4  C   UNL     1      46.485   7.349  13.398  0.00  0.00    +0.000 C 
ATOM      5  C   UNL     1      46.245   7.829  11.962  0.00  0.00    +0.000 C 
ATOM      6  C   UNL     1      45.197   6.979  11.240  0.00  0.00    +0.000 C 
ENDROOT
BRANCH   1   7
ATOM      7  C   UNL     1      44.496   4.644  10.537  0.00  0.00    +0.000 C 
BRANCH   7  10
ATOM      8  O   UNL     1      45.705   4.743   7.988  0.00  0.00    +0.000 OA
ATOM      9  C   UNL     1      45.637   3.666   8.575  0.00  0.00    +0.000 C 
ATOM     10  N   UNL     1      45.046   3.513   9.814  0.00  0.00    +0.000 N 
ATOM     11  H   UNL     1      45.115   2.593  10.231  0.00  0.00    +0.000 HD
BRANCH   9  12
ATOM     12  C   UNL     1      46.205   2.432   8.009  0.00  0.00    +0.000 A 
ATOM     13  C   UNL     1      47.069   2.368   6.884  0.00  0.00    +0.000 A 
ATOM     14  C   UNL     1      47.328   1.034   6.695  0.00  0.00    +0.000 A 
ATOM     15  N   UNL     1      46.608   0.379   7.650  0.00  0.00    +0.000 N 
ATOM     16  N   UNL     1      45.945   1.198   8.489  0.00  0.00    +0.000 NA
ATOM     17  H   UNL     1      46.527  -0.623   7.785  0.00  0.00    +0.000 HD
ENDBRANCH   9  12
ENDBRANCH   7  10
ENDBRANCH   1   7
BRANCH   4  18
ATOM     18  C   UNL     1      47.582   8.210  14.047  0.00  0.00    +0.000 C 
BRANCH  18  19
ATOM     19  N   UNL     1      48.627   7.430  14.669  0.00  0.00    +0.000 N 
ATOM     20  C   UNL     1      49.055   7.708  15.946  0.00  0.00    +0.000 C 
ATOM     21  O   UNL     1      48.552   8.590  16.635  0.00  0.00    +0.000 OA
ATOM     22  H   UNL     1      49.274   6.943  14.059  0.00  0.00    +0.000 HD
BRANCH  20  23
ATOM     23  C   UNL     1      50.109   6.832  16.465  0.00  0.00    +0.000 A 
ATOM     24  C   UNL     1      51.410   7.301  16.580  0.00  0.00    +0.000 A 
ATOM     25  S   UNL     1      52.489   6.149  17.228  0.00  0.00    +0.000 S 
ATOM     26  C   UNL     1      51.261   4.974  17.336  0.00  0.00    +0.000 A 
ATOM     27  N   UNL     1      51.521   3.720  17.790  0.00  0.00    +0.000 NA
ATOM     28  C   UNL     1      50.502   2.933  17.789  0.00  0.00    +0.000 A 
ATOM     29  N   UNL     1      49.240   3.277  17.382  0.00  0.00    +0.000 N 
ATOM     30  C   UNL     1      48.932   4.534  16.928  0.00  0.00    +0.000 A 
ATOM     31  O   UNL     1      47.791   4.815  16.584  0.00  0.00    +0.000 OA
ATOM     32  C   UNL     1      50.046   5.461  16.902  0.00  0.00    +0.000 A 
ATOM     33  H   UNL     1      48.483   2.614  17.411  0.00  0.00    +0.000 HD
ENDBRANCH  20  23
ENDBRANCH  18  19
ENDBRANCH   4  18
TORSDOF 6
ENDMDL
MODEL 9
REMARK VINA RESULT:    -6.946      3.235      8.877
REMARK INTER + INTRA:         -10.280
REMARK INTER:                  -9.445
REMARK INTRA:                  -0.835
REMARK UNBOUND:                -0.898
REMARK  Name = 
REMARK  6 active torsions:
REMARK  status: ('A' for Active; 'I' for Inactive)
REMARK    1  A    between atoms: C_2  and  C_25
REMARK    2  A    between atoms: N_3  and  C_4
REMARK    3  A    between atoms: C_4  and  C_5
REMARK    4  A    between atoms: C_8  and  C_9
REMARK    5  A    between atoms: C_9  and  N_10
REMARK    6  A    between atoms: C_11  and  C_13
REMARK                            x       y       z     vdW  Elec       q    Type
REMARK                         _______ _______ _______ _____ _____    ______ ____
ROOT
ATOM      1  C   UNL     1      50.115   6.877  15.180  0.00  0.00    +0.000 C 
ATOM      2  C   UNL     1      50.380   8.158  14.383  0.00  0.00    +0.000 C 
ATOM      3  C   UNL     1      49.610   8.185  13.068  0.00  0.00    +0.000 C 
ATOM      4  C   UNL     1      48.099   7.989  13.259  0.00  0.00    +0.000 C 
ATOM      5  C   UNL     1      47.838   6.710  14.066  0.00  0.00    +0.000 C 
ATOM      6  C   UNL     1      48.600   6.702  15.391  0.00  0.00    +0.000 C 
ENDROOT
BRANCH   1   7
ATOM      7  C   UNL     1      50.861   6.911  16.525  0.00  0.00    +0.000 C 
BRANCH   7  10
ATOM      8  O   UNL     1      49.559   4.897  18.015  0.00  0.00    +0.000 OA
ATOM      9  C   UNL     1      50.697   4.691  17.601  0.00  0.00    +0.000 C 
ATOM     10  N   UNL     1      51.423   5.622  16.883  0.00  0.00    +0.000 N 
ATOM     11  H   UNL     1      52.321   5.313  16.532  0.00  0.00    +0.000 HD
BRANCH   9  12
ATOM     12  C   UNL     1      51.388   3.411  17.821  0.00  0.00    +0.000 A 
ATOM     13  C   UNL     1      50.971   2.155  17.305  0.00  0.00    +0.000 A 
ATOM     14  C   UNL     1      51.883   1.244  17.775  0.00  0.00    +0.000 A 
ATOM     15  N   UNL     1      52.749   1.955  18.551  0.00  0.00    +0.000 N 
ATOM     16  N   UNL     1      52.501   3.279  18.571  0.00  0.00    +0.000 NA
ATOM     17  H   UNL     1      53.530   1.599  19.093  0.00  0.00    +0.000 HD
ENDBRANCH   9  12
ENDBRANCH   7  10
ENDBRANCH   1   7
BRANCH   4  18
ATOM     18  C   UNL     1      47.346   7.909  11.920  0.00  0.00    +0.000 C 
BRANCH  18  19
ATOM     19  N   UNL     1      46.667   6.650  11.722  0.00  0.00    +0.000 N 
ATOM     20  C   UNL     1      45.309   6.603  11.507  0.00  0.00    +0.000 C 
ATOM     21  O   UNL     1      44.616   7.612  11.428  0.00  0.00    +0.000 OA
ATOM     22  H   UNL     1      47.106   5.816  12.096  0.00  0.00    +0.000 HD
BRANCH  20  23
ATOM     23  C   UNL     1      44.747   5.264  11.304  0.00  0.00    +0.000 A 
ATOM     24  C   UNL     1      43.975   4.675  12.295  0.00  0.00    +0.000 A 
ATOM     25  S   UNL     1      43.387   3.132  11.868  0.00  0.00    +0.000 S 
ATOM     26  C   UNL     1      44.179   3.184  10.361  0.00  0.00    +0.000 A 
ATOM     27  N   UNL     1      44.116   2.140   9.493  0.00  0.00    +0.000 NA
ATOM     28  C   UNL     1      44.787   2.311   8.407  0.00  0.00    +0.000 A 
ATOM     29  N   UNL     1      45.516   3.428   8.099  0.00  0.00    +0.000 N 
ATOM     30  C   UNL     1      45.598   4.508   8.940  0.00  0.00    +0.000 A 
ATOM     31  O   UNL     1      46.248   5.498   8.631  0.00  0.00    +0.000 OA
ATOM     32  C   UNL     1      44.865   4.367  10.183  0.00  0.00    +0.000 A 
ATOM     33  H   UNL     1      46.017   3.502   7.228  0.00  0.00    +0.000 HD
ENDBRANCH  20  23
ENDBRANCH  18  19
ENDBRANCH   4  18
TORSDOF 6
ENDMDL
