MODEL 1
REMARK VINA RESULT:    -7.615      0.000      0.000
REMARK INTER + INTRA:         -11.207
REMARK INTER:                 -10.286
REMARK INTRA:                  -0.921
REMARK UNBOUND:                -0.921
REMARK  Name = 
REMARK  7 active torsions:
REMARK  status: ('A' for Active; 'I' for Inactive)
REMARK    1  A    between atoms: N_1  and  C_2
REMARK    2  A    between atoms: C_2  and  C_3
REMARK    3  A    between atoms: C_2  and  C_15
REMARK    4  A    between atoms: C_3  and  C_5
REMARK    5  A    between atoms: C_18  and  C_19
REMARK    6  A    between atoms: C_19  and  O_20
REMARK    7  A    between atoms: C_19  and  C_21
REMARK                            x       y       z     vdW  Elec       q    Type
REMARK                         _______ _______ _______ _____ _____    ______ ____
ROOT
ATOM      1  C   UNL     1      46.995   5.027  14.388  0.00  0.00    +0.000 C 
ENDROOT
BRANCH   1   2
ATOM      2  C   UNL     1      46.267   4.627  13.119  0.00  0.00    +0.000 A 
ATOM      3  C   UNL     1      45.928   5.596  12.161  0.00  0.00    +0.000 A 
ATOM      4  C   UNL     1      45.238   5.242  10.994  0.00  0.00    +0.000 A 
ATOM      5  C   UNL     1      44.874   3.911  10.744  0.00  0.00    +0.000 A 
ATOM      6  C   UNL     1      45.206   2.958  11.720  0.00  0.00    +0.000 A 
ATOM      7  C   UNL     1      45.867   3.309  12.895  0.00  0.00    +0.000 A 
BRANCH   5   8
ATOM      8  C   UNL     1      44.128   3.580   9.455  0.00  0.00    +0.000 C 
BRANCH   8   9
ATOM      9  C   UNL     1      44.914   2.958   8.268  0.00  0.00    +0.000 C 
ATOM     10  C   UNL     1      45.472   1.560   8.602  0.00  0.00    +0.000 C 
ATOM     11  C   UNL     1      46.644   1.142   7.730  0.00  0.00    +0.000 C 
ATOM     12  O   UNL     1      47.581   2.204   7.589  0.00  0.00    +0.000 OA
ATOM     13  C   UNL     1      47.018   3.284   6.851  0.00  0.00    +0.000 C 
ATOM     14  C   UNL     1      45.924   3.955   7.658  0.00  0.00    +0.000 C 
ENDBRANCH   8   9
BRANCH   8  15
ATOM     15  O   UNL     1      43.508   4.780   8.975  0.00  0.00    +0.000 OA
ATOM     16  H   UNL     1      43.501   5.413   9.715  0.00  0.00    +0.000 HD
ENDBRANCH   8  15
ENDBRANCH   5   8
ENDBRANCH   1   2
BRANCH   1  17
ATOM     17  N   UNL     1      47.474   3.808  15.088  0.00  0.00    +0.000 NA
ATOM     18  H   UNL     1      46.694   3.152  15.130  0.00  0.00    +0.000 HD
ATOM     19  H   UNL     1      47.637   4.066  16.063  0.00  0.00    +0.000 HD
ENDBRANCH   1  17
BRANCH   1  20
ATOM     20  C   UNL     1      48.185   5.998  14.128  0.00  0.00    +0.000 C 
ATOM     21  O   UNL     1      48.786   5.948  13.047  0.00  0.00    +0.000 OA
BRANCH  20  22
ATOM     22  C   UNL     1      48.517   7.075  15.083  0.00  0.00    +0.000 A 
ATOM     23  C   UNL     1      48.311   8.401  14.722  0.00  0.00    +0.000 A 
ATOM     24  S   UNL     1      48.646   9.511  15.972  0.00  0.00    +0.000 S 
ATOM     25  C   UNL     1      49.121   8.260  17.024  0.00  0.00    +0.000 A 
ATOM     26  N   UNL     1      49.519   8.533  18.294  0.00  0.00    +0.000 NA
ATOM     27  C   UNL     1      49.875   7.496  18.972  0.00  0.00    +0.000 A 
ATOM     28  N   UNL     1      49.889   6.215  18.489  0.00  0.00    +0.000 N 
ATOM     29  C   UNL     1      49.604   5.912  17.180  0.00  0.00    +0.000 A 
ATOM     30  O   UNL     1      49.854   4.807  16.721  0.00  0.00    +0.000 OA
ATOM     31  C   UNL     1      49.074   7.020  16.410  0.00  0.00    +0.000 A 
ATOM     32  H   UNL     1      50.262   5.459  19.047  0.00  0.00    +0.000 HD
ENDBRANCH  20  22
ENDBRANCH   1  20
TORSDOF 7
ENDMDL
MODEL 2
REMARK VINA RESULT:    -7.385      2.271      2.993
REMARK INTER + INTRA:         -10.896
REMARK INTER:                 -10.114
REMARK INTRA:                  -0.783
REMARK UNBOUND:                -0.921
REMARK  Name = 
REMARK  7 active torsions:
REMARK  status: ('A' for Active; 'I' for Inactive)
REMARK    1  A    between atoms: N_1  and  C_2
REMARK    2  A    between atoms: C_2  and  C_3
REMARK    3  A    between atoms: C_2  and  C_15
REMARK    4  A    between atoms: C_3  and  C_5
REMARK    5  A    between atoms: C_18  and  C_19
REMARK    6  A    between atoms: C_19  and  O_20
REMARK    7  A    between atoms: C_19  and  C_21
REMARK                            x       y       z     vdW  Elec       q    Type
REMARK                         _______ _______ _______ _____ _____    ______ ____
ROOT
ATOM      1  C   UNL     1      47.794   5.276  14.548  0.00  0.00    +0.000 C 
ENDROOT
BRANCH   1   2
ATOM      2  C   UNL     1      46.814   4.976  13.431  0.00  0.00    +0.000 A 
ATOM      3  C   UNL     1      46.362   3.663  13.218  0.00  0.00    +0.000 A 
ATOM      4  C   UNL     1      45.473   3.370  12.176  0.00  0.00    +0.000 A 
ATOM      5  C   UNL     1      45.001   4.377  11.321  0.00  0.00    +0.000 A 
ATOM      6  C   UNL     1      45.476   5.680  11.538  0.00  0.00    +0.000 A 
ATOM      7  C   UNL     1      46.382   5.972  12.555  0.00  0.00    +0.000 A 
BRANCH   5   8
ATOM      8  C   UNL     1      44.030   4.003  10.206  0.00  0.00    +0.000 C 
BRANCH   8   9
ATOM      9  C   UNL     1      44.588   3.381   8.897  0.00  0.00    +0.000 C 
ATOM     10  C   UNL     1      45.008   1.908   9.081  0.00  0.00    +0.000 C 
ATOM     11  C   UNL     1      46.009   1.422   8.046  0.00  0.00    +0.000 C 
ATOM     12  O   UNL     1      47.044   2.379   7.847  0.00  0.00    +0.000 OA
ATOM     13  C   UNL     1      46.533   3.564   7.247  0.00  0.00    +0.000 C 
ATOM     14  C   UNL     1      45.632   4.297   8.221  0.00  0.00    +0.000 C 
ENDBRANCH   8   9
BRANCH   8  15
ATOM     15  O   UNL     1      43.293   5.179   9.840  0.00  0.00    +0.000 OA
ATOM     16  H   UNL     1      42.417   5.107  10.259  0.00  0.00    +0.000 HD
ENDBRANCH   8  15
ENDBRANCH   5   8
ENDBRANCH   1   2
BRANCH   1  17
ATOM     17  N   UNL     1      47.717   6.718  14.899  0.00  0.00    +0.000 NA
ATOM     18  H   UNL     1      46.743   6.929  15.114  0.00  0.00    +0.000 HD
ATOM     19  H   UNL     1      47.906   7.245  14.045  0.00  0.00    +0.000 HD
ENDBRANCH   1  17
BRANCH   1  20
ATOM     20  C   UNL     1      47.558   4.404  15.817  0.00  0.00    +0.000 C 
ATOM     21  O   UNL     1      46.407   4.057  16.111  0.00  0.00    +0.000 OA
BRANCH  20  22
ATOM     22  C   UNL     1      48.690   3.858  16.593  0.00  0.00    +0.000 A 
ATOM     23  C   UNL     1      48.952   2.494  16.560  0.00  0.00    +0.000 A 
ATOM     24  S   UNL     1      50.352   2.045  17.423  0.00  0.00    +0.000 S 
ATOM     25  C   UNL     1      50.630   3.652  17.909  0.00  0.00    +0.000 A 
ATOM     26  N   UNL     1      51.706   3.972  18.675  0.00  0.00    +0.000 NA
ATOM     27  C   UNL     1      51.780   5.219  18.991  0.00  0.00    +0.000 A 
ATOM     28  N   UNL     1      50.867   6.172  18.627  0.00  0.00    +0.000 N 
ATOM     29  C   UNL     1      49.709   5.871  17.952  0.00  0.00    +0.000 A 
ATOM     30  O   UNL     1      48.807   6.690  17.852  0.00  0.00    +0.000 OA
ATOM     31  C   UNL     1      49.638   4.509  17.461  0.00  0.00    +0.000 A 
ATOM     32  H   UNL     1      50.939   7.116  18.981  0.00  0.00    +0.000 HD
ENDBRANCH  20  22
ENDBRANCH   1  20
TORSDOF 7
ENDMDL
MODEL 3
REMARK VINA RESULT:    -7.114      1.763      2.314
REMARK INTER + INTRA:         -10.531
REMARK INTER:                  -9.716
REMARK INTRA:                  -0.814
REMARK UNBOUND:                -0.921
REMARK  Name = 
REMARK  7 active torsions:
REMARK  status: ('A' for Active; 'I' for Inactive)
REMARK    1  A    between atoms: N_1  and  C_2
REMARK    2  A    between atoms: C_2  and  C_3
REMARK    3  A    between atoms: C_2  and  C_15
REMARK    4  A    between atoms: C_3  and  C_5
REMARK    5  A    between atoms: C_18  and  C_19
REMARK    6  A    between atoms: C_19  and  O_20
REMARK    7  A    between atoms: C_19  and  C_21
REMARK                            x       y       z     vdW  Elec       q    Type
REMARK                         _______ _______ _______ _____ _____    ______ ____
ROOT
ATOM      1  C   UNL     1      47.744   8.136  13.629  0.00  0.00    +0.000 C 
ENDROOT
BRANCH   1   2
ATOM      2  C   UNL     1      46.731   7.264  12.913  0.00  0.00    +0.000 A 
ATOM      3  C   UNL     1      45.774   7.842  12.062  0.00  0.00    +0.000 A 
ATOM      4  C   UNL     1      44.819   7.050  11.411  0.00  0.00    +0.000 A 
ATOM      5  C   UNL     1      44.796   5.658  11.581  0.00  0.00    +0.000 A 
ATOM      6  C   UNL     1      45.748   5.099  12.447  0.00  0.00    +0.000 A 
ATOM      7  C   UNL     1      46.682   5.886  13.119  0.00  0.00    +0.000 A 
BRANCH   5   8
ATOM      8  C   UNL     1      43.738   4.843  10.844  0.00  0.00    +0.000 C 
BRANCH   8   9
ATOM      9  C   UNL     1      44.146   4.059   9.567  0.00  0.00    +0.000 C 
ATOM     10  C   UNL     1      44.259   2.542   9.821  0.00  0.00    +0.000 C 
ATOM     11  C   UNL     1      45.130   1.813   8.811  0.00  0.00    +0.000 C 
ATOM     12  O   UNL     1      46.336   2.528   8.567  0.00  0.00    +0.000 OA
ATOM     13  C   UNL     1      46.072   3.763   7.910  0.00  0.00    +0.000 C 
ATOM     14  C   UNL     1      45.348   4.710   8.848  0.00  0.00    +0.000 C 
ENDBRANCH   8   9
BRANCH   8  15
ATOM     15  O   UNL     1      42.665   5.723  10.481  0.00  0.00    +0.000 OA
ATOM     16  H   UNL     1      42.746   6.515  11.041  0.00  0.00    +0.000 HD
ENDBRANCH   8  15
ENDBRANCH   5   8
ENDBRANCH   1   2
BRANCH   1  17
ATOM     17  N   UNL     1      47.063   8.906  14.701  0.00  0.00    +0.000 NA
ATOM     18  H   UNL     1      47.397   8.546  15.596  0.00  0.00    +0.000 HD
ATOM     19  H   UNL     1      46.076   8.644  14.679  0.00  0.00    +0.000 HD
ENDBRANCH   1  17
BRANCH   1  20
ATOM     20  C   UNL     1      48.933   7.325  14.225  0.00  0.00    +0.000 C 
ATOM     21  O   UNL     1      49.756   6.803  13.462  0.00  0.00    +0.000 OA
BRANCH  20  22
ATOM     22  C   UNL     1      49.183   7.290  15.680  0.00  0.00    +0.000 A 
ATOM     23  C   UNL     1      49.930   8.301  16.273  0.00  0.00    +0.000 A 
ATOM     24  S   UNL     1      50.036   8.168  17.970  0.00  0.00    +0.000 S 
ATOM     25  C   UNL     1      49.126   6.730  17.964  0.00  0.00    +0.000 A 
ATOM     26  N   UNL     1      48.830   6.089  19.126  0.00  0.00    +0.000 NA
ATOM     27  C   UNL     1      48.158   5.000  18.974  0.00  0.00    +0.000 A 
ATOM     28  N   UNL     1      47.771   4.484  17.766  0.00  0.00    +0.000 N 
ATOM     29  C   UNL     1      48.146   5.038  16.567  0.00  0.00    +0.000 A 
ATOM     30  O   UNL     1      47.993   4.432  15.516  0.00  0.00    +0.000 OA
ATOM     31  C   UNL     1      48.792   6.331  16.681  0.00  0.00    +0.000 A 
ATOM     32  H   UNL     1      47.320   3.580  17.713  0.00  0.00    +0.000 HD
ENDBRANCH  20  22
ENDBRANCH   1  20
TORSDOF 7
ENDMDL
MODEL 4
REMARK VINA RESULT:    -6.949      3.443      8.486
REMARK INTER + INTRA:         -10.308
REMARK INTER:                  -9.169
REMARK INTRA:                  -1.139
REMARK UNBOUND:                -0.921
REMARK  Name = 
REMARK  7 active torsions:
REMARK  status: ('A' for Active; 'I' for Inactive)
REMARK    1  A    between atoms: N_1  and  C_2
REMARK    2  A    between atoms: C_2  and  C_3
REMARK    3  A    between atoms: C_2  and  C_15
REMARK    4  A    between atoms: C_3  and  C_5
REMARK    5  A    between atoms: C_18  and  C_19
REMARK    6  A    between atoms: C_19  and  O_20
REMARK    7  A    between atoms: C_19  and  C_21
REMARK                            x       y       z     vdW  Elec       q    Type
REMARK                         _______ _______ _______ _____ _____    ______ ____
ROOT
ATOM      1  C   UNL     1      48.278   7.465  14.742  0.00  0.00    +0.000 C 
ENDROOT
BRANCH   1   2
ATOM      2  C   UNL     1      49.127   6.699  15.739  0.00  0.00    +0.000 A 
ATOM      3  C   UNL     1      50.498   6.980  15.864  0.00  0.00    +0.000 A 
ATOM      4  C   UNL     1      51.298   6.266  16.767  0.00  0.00    +0.000 A 
ATOM      5  C   UNL     1      50.754   5.258  17.576  0.00  0.00    +0.000 A 
ATOM      6  C   UNL     1      49.386   4.980  17.426  0.00  0.00    +0.000 A 
ATOM      7  C   UNL     1      48.593   5.667  16.510  0.00  0.00    +0.000 A 
BRANCH   5   8
ATOM      8  C   UNL     1      51.668   4.516  18.545  0.00  0.00    +0.000 C 
BRANCH   8   9
ATOM      9  C   UNL     1      52.534   3.340  18.014  0.00  0.00    +0.000 C 
ATOM     10  C   UNL     1      51.676   2.166  17.500  0.00  0.00    +0.000 C 
ATOM     11  C   UNL     1      52.411   0.836  17.468  0.00  0.00    +0.000 C 
ATOM     12  O   UNL     1      53.150   0.632  18.668  0.00  0.00    +0.000 OA
ATOM     13  C   UNL     1      54.215   1.570  18.776  0.00  0.00    +0.000 C 
ATOM     14  C   UNL     1      53.664   2.965  18.998  0.00  0.00    +0.000 C 
ENDBRANCH   8   9
BRANCH   8  15
ATOM     15  O   UNL     1      50.865   4.004  19.617  0.00  0.00    +0.000 OA
ATOM     16  H   UNL     1      50.821   4.700  20.296  0.00  0.00    +0.000 HD
ENDBRANCH   8  15
ENDBRANCH   5   8
ENDBRANCH   1   2
BRANCH   1  17
ATOM     17  N   UNL     1      48.873   8.806  14.514  0.00  0.00    +0.000 NA
ATOM     18  H   UNL     1      48.108   9.481  14.489  0.00  0.00    +0.000 HD
ATOM     19  H   UNL     1      49.244   8.813  13.563  0.00  0.00    +0.000 HD
ENDBRANCH   1  17
BRANCH   1  20
ATOM     20  C   UNL     1      48.107   6.718  13.386  0.00  0.00    +0.000 C 
ATOM     21  O   UNL     1      49.104   6.253  12.818  0.00  0.00    +0.000 OA
BRANCH  20  22
ATOM     22  C   UNL     1      46.768   6.423  12.838  0.00  0.00    +0.000 A 
ATOM     23  C   UNL     1      45.983   7.459  12.347  0.00  0.00    +0.000 A 
ATOM     24  S   UNL     1      44.515   6.937  11.655  0.00  0.00    +0.000 S 
ATOM     25  C   UNL     1      44.857   5.313  12.029  0.00  0.00    +0.000 A 
ATOM     26  N   UNL     1      43.992   4.322  11.686  0.00  0.00    +0.000 NA
ATOM     27  C   UNL     1      44.364   3.144  12.052  0.00  0.00    +0.000 A 
ATOM     28  N   UNL     1      45.511   2.868  12.747  0.00  0.00    +0.000 N 
ATOM     29  C   UNL     1      46.352   3.850  13.211  0.00  0.00    +0.000 A 
ATOM     30  O   UNL     1      47.229   3.596  14.025  0.00  0.00    +0.000 OA
ATOM     31  C   UNL     1      46.051   5.179  12.718  0.00  0.00    +0.000 A 
ATOM     32  H   UNL     1      45.699   1.932  13.079  0.00  0.00    +0.000 HD
ENDBRANCH  20  22
ENDBRANCH   1  20
TORSDOF 7
ENDMDL
MODEL 5
REMARK VINA RESULT:    -6.845      3.931      8.138
REMARK INTER + INTRA:         -10.167
REMARK INTER:                  -8.730
REMARK INTRA:                  -1.437
REMARK UNBOUND:                -0.921
REMARK  Name = 
REMARK  7 active torsions:
REMARK  status: ('A' for Active; 'I' for Inactive)
REMARK    1  A    between atoms: N_1  and  C_2
REMARK    2  A    between atoms: C_2  and  C_3
REMARK    3  A    between atoms: C_2  and  C_15
REMARK    4  A    between atoms: C_3  and  C_5
REMARK    5  A    between atoms: C_18  and  C_19
REMARK    6  A    between atoms: C_19  and  O_20
REMARK    7  A    between atoms: C_19  and  C_21
REMARK                            x       y       z     vdW  Elec       q    Type
REMARK                         _______ _______ _______ _____ _____    ______ ____
ROOT
ATOM      1  C   UNL     1      43.914   4.883  12.565  0.00  0.00    +0.000 C 
ENDROOT
BRANCH   1   2
ATOM      2  C   UNL     1      45.197   5.621  12.894  0.00  0.00    +0.000 A 
ATOM      3  C   UNL     1      46.297   4.927  13.426  0.00  0.00    +0.000 A 
ATOM      4  C   UNL     1      47.481   5.601  13.753  0.00  0.00    +0.000 A 
ATOM      5  C   UNL     1      47.608   6.983  13.551  0.00  0.00    +0.000 A 
ATOM      6  C   UNL     1      46.494   7.663  13.035  0.00  0.00    +0.000 A 
ATOM      7  C   UNL     1      45.304   7.002  12.734  0.00  0.00    +0.000 A 
BRANCH   5   8
ATOM      8  C   UNL     1      48.921   7.665  13.919  0.00  0.00    +0.000 C 
BRANCH   8   9
ATOM      9  C   UNL     1      49.753   8.352  12.802  0.00  0.00    +0.000 C 
ATOM     10  C   UNL     1      50.037   7.406  11.617  0.00  0.00    +0.000 C 
ATOM     11  C   UNL     1      51.237   7.815  10.779  0.00  0.00    +0.000 C 
ATOM     12  O   UNL     1      52.338   8.178  11.605  0.00  0.00    +0.000 OA
ATOM     13  C   UNL     1      52.055   9.366  12.337  0.00  0.00    +0.000 C 
ATOM     14  C   UNL     1      50.979   9.100  13.372  0.00  0.00    +0.000 C 
ENDBRANCH   8   9
BRANCH   8  15
ATOM     15  O   UNL     1      49.769   6.695  14.549  0.00  0.00    +0.000 OA
ATOM     16  H   UNL     1      50.623   7.131  14.718  0.00  0.00    +0.000 HD
ENDBRANCH   8  15
ENDBRANCH   5   8
ENDBRANCH   1   2
BRANCH   1  17
ATOM     17  N   UNL     1      42.780   5.523  13.280  0.00  0.00    +0.000 NA
ATOM     18  H   UNL     1      42.790   6.515  13.045  0.00  0.00    +0.000 HD
ATOM     19  H   UNL     1      43.001   5.499  14.277  0.00  0.00    +0.000 HD
ENDBRANCH   1  17
BRANCH   1  20
ATOM     20  C   UNL     1      43.618   4.825  11.037  0.00  0.00    +0.000 C 
ATOM     21  O   UNL     1      42.951   5.726  10.512  0.00  0.00    +0.000 OA
BRANCH  20  22
ATOM     22  C   UNL     1      44.240   3.799  10.175  0.00  0.00    +0.000 A 
ATOM     23  C   UNL     1      43.856   2.469  10.304  0.00  0.00    +0.000 A 
ATOM     24  S   UNL     1      44.589   1.433   9.166  0.00  0.00    +0.000 S 
ATOM     25  C   UNL     1      45.479   2.717   8.493  0.00  0.00    +0.000 A 
ATOM     26  N   UNL     1      46.315   2.510   7.441  0.00  0.00    +0.000 NA
ATOM     27  C   UNL     1      46.945   3.564   7.048  0.00  0.00    +0.000 A 
ATOM     28  N   UNL     1      46.830   4.801   7.624  0.00  0.00    +0.000 N 
ATOM     29  C   UNL     1      46.086   5.028   8.756  0.00  0.00    +0.000 A 
ATOM     30  O   UNL     1      46.191   6.073   9.380  0.00  0.00    +0.000 OA
ATOM     31  C   UNL     1      45.258   3.909   9.162  0.00  0.00    +0.000 A 
ATOM     32  H   UNL     1      47.418   5.566   7.321  0.00  0.00    +0.000 HD
ENDBRANCH  20  22
ENDBRANCH   1  20
TORSDOF 7
ENDMDL
MODEL 6
REMARK VINA RESULT:    -6.803      2.395      3.144
REMARK INTER + INTRA:         -10.111
REMARK INTER:                  -9.019
REMARK INTRA:                  -1.091
REMARK UNBOUND:                -0.921
REMARK  Name = 
REMARK  7 active torsions:
REMARK  status: ('A' for Active; 'I' for Inactive)
REMARK    1  A    between atoms: N_1  and  C_2
REMARK    2  A    between atoms: C_2  and  C_3
REMARK    3  A    between atoms: C_2  and  C_15
REMARK    4  A    between atoms: C_3  and  C_5
REMARK    5  A    between atoms: C_18  and  C_19
REMARK    6  A    between atoms: C_19  and  O_20
REMARK    7  A    between atoms: C_19  and  C_21
REMARK                            x       y       z     vdW  Elec       q    Type
REMARK                         _______ _______ _______ _____ _____    ______ ____
ROOT
ATOM      1  C   UNL     1      49.037   6.976  13.714  0.00  0.00    +0.000 C 
ENDROOT
BRANCH   1   2
ATOM      2  C   UNL     1      47.747   6.536  13.049  0.00  0.00    +0.000 A 
ATOM      3  C   UNL     1      47.210   5.265  13.314  0.00  0.00    +0.000 A 
ATOM      4  C   UNL     1      46.030   4.839  12.690  0.00  0.00    +0.000 A 
ATOM      5  C   UNL     1      45.346   5.670  11.791  0.00  0.00    +0.000 A 
ATOM      6  C   UNL     1      45.905   6.930  11.525  0.00  0.00    +0.000 A 
ATOM      7  C   UNL     1      47.093   7.347  12.121  0.00  0.00    +0.000 A 
BRANCH   5   8
ATOM      8  C   UNL     1      44.063   5.159  11.144  0.00  0.00    +0.000 C 
BRANCH   8   9
ATOM      9  C   UNL     1      44.162   4.271   9.873  0.00  0.00    +0.000 C 
ATOM     10  C   UNL     1      44.140   2.765  10.206  0.00  0.00    +0.000 C 
ATOM     11  C   UNL     1      44.743   1.888   9.122  0.00  0.00    +0.000 C 
ATOM     12  O   UNL     1      45.967   2.435   8.644  0.00  0.00    +0.000 OA
ATOM     13  C   UNL     1      45.742   3.661   7.957  0.00  0.00    +0.000 C 
ATOM     14  C   UNL     1      45.296   4.733   8.931  0.00  0.00    +0.000 C 
ENDBRANCH   8   9
BRANCH   8  15
ATOM     15  O   UNL     1      43.246   6.290  10.812  0.00  0.00    +0.000 OA
ATOM     16  H   UNL     1      43.456   6.533   9.893  0.00  0.00    +0.000 HD
ENDBRANCH   8  15
ENDBRANCH   5   8
ENDBRANCH   1   2
BRANCH   1  17
ATOM     17  N   UNL     1      49.559   8.185  13.028  0.00  0.00    +0.000 NA
ATOM     18  H   UNL     1      48.855   8.918  13.119  0.00  0.00    +0.000 HD
ATOM     19  H   UNL     1      49.577   7.979  12.028  0.00  0.00    +0.000 HD
ENDBRANCH   1  17
BRANCH   1  20
ATOM     20  C   UNL     1      48.872   7.255  15.238  0.00  0.00    +0.000 C 
ATOM     21  O   UNL     1      48.285   8.280  15.609  0.00  0.00    +0.000 OA
BRANCH  20  22
ATOM     22  C   UNL     1      49.269   6.253  16.248  0.00  0.00    +0.000 A 
ATOM     23  C   UNL     1      48.292   5.518  16.908  0.00  0.00    +0.000 A 
ATOM     24  S   UNL     1      48.921   4.334  17.961  0.00  0.00    +0.000 S 
ATOM     25  C   UNL     1      50.520   4.794  17.605  0.00  0.00    +0.000 A 
ATOM     26  N   UNL     1      51.573   4.150  18.175  0.00  0.00    +0.000 NA
ATOM     27  C   UNL     1      52.726   4.617  17.837  0.00  0.00    +0.000 A 
ATOM     28  N   UNL     1      52.921   5.680  16.997  0.00  0.00    +0.000 N 
ATOM     29  C   UNL     1      51.886   6.428  16.492  0.00  0.00    +0.000 A 
ATOM     30  O   UNL     1      52.091   7.503  15.947  0.00  0.00    +0.000 OA
ATOM     31  C   UNL     1      50.570   5.870  16.735  0.00  0.00    +0.000 A 
ATOM     32  H   UNL     1      53.849   6.050  16.842  0.00  0.00    +0.000 HD
ENDBRANCH  20  22
ENDBRANCH   1  20
TORSDOF 7
ENDMDL
MODEL 7
REMARK VINA RESULT:    -6.759      4.321      8.768
REMARK INTER + INTRA:         -10.051
REMARK INTER:                  -9.192
REMARK INTRA:                  -0.859
REMARK UNBOUND:                -0.921
REMARK  Name = 
REMARK  7 active torsions:
REMARK  status: ('A' for Active; 'I' for Inactive)
REMARK    1  A    between atoms: N_1  and  C_2
REMARK    2  A    between atoms: C_2  and  C_3
REMARK    3  A    between atoms: C_2  and  C_15
REMARK    4  A    between atoms: C_3  and  C_5
REMARK    5  A    between atoms: C_18  and  C_19
REMARK    6  A    between atoms: C_19  and  O_20
REMARK    7  A    between atoms: C_19  and  C_21
REMARK                            x       y       z     vdW  Elec       q    Type
REMARK                         _______ _______ _______ _____ _____    ______ ____
ROOT
ATOM      1  C   UNL     1      44.413   2.952  10.922  0.00  0.00    +0.000 C 
ENDROOT
BRANCH   1   2
ATOM      2  C   UNL     1      45.267   3.983  11.635  0.00  0.00    +0.000 A 
ATOM      3  C   UNL     1      45.931   3.651  12.828  0.00  0.00    +0.000 A 
ATOM      4  C   UNL     1      46.706   4.600  13.507  0.00  0.00    +0.000 A 
ATOM      5  C   UNL     1      46.849   5.905  13.013  0.00  0.00    +0.000 A 
ATOM      6  C   UNL     1      46.166   6.224  11.830  0.00  0.00    +0.000 A 
ATOM      7  C   UNL     1      45.371   5.292  11.165  0.00  0.00    +0.000 A 
BRANCH   5   8
ATOM      8  C   UNL     1      47.709   6.897  13.789  0.00  0.00    +0.000 C 
BRANCH   8   9
ATOM      9  C   UNL     1      48.495   7.985  13.009  0.00  0.00    +0.000 C 
ATOM     10  C   UNL     1      49.615   7.386  12.133  0.00  0.00    +0.000 C 
ATOM     11  C   UNL     1      50.714   8.374  11.780  0.00  0.00    +0.000 C 
ATOM     12  O   UNL     1      51.107   9.130  12.920  0.00  0.00    +0.000 OA
ATOM     13  C   UNL     1      50.054   9.984  13.353  0.00  0.00    +0.000 C 
ATOM     14  C   UNL     1      48.913   9.162  13.919  0.00  0.00    +0.000 C 
ENDBRANCH   8   9
BRANCH   8  15
ATOM     15  O   UNL     1      48.662   6.155  14.564  0.00  0.00    +0.000 OA
ATOM     16  H   UNL     1      48.854   6.684  15.359  0.00  0.00    +0.000 HD
ENDBRANCH   8  15
ENDBRANCH   5   8
ENDBRANCH   1   2
BRANCH   1  17
ATOM     17  N   UNL     1      43.004   3.081  11.373  0.00  0.00    +0.000 NA
ATOM     18  H   UNL     1      42.849   2.381  12.099  0.00  0.00    +0.000 HD
ATOM     19  H   UNL     1      42.412   2.774  10.599  0.00  0.00    +0.000 HD
ENDBRANCH   1  17
BRANCH   1  20
ATOM     20  C   UNL     1      44.491   3.064   9.370  0.00  0.00    +0.000 C 
ATOM     21  O   UNL     1      43.876   3.971   8.794  0.00  0.00    +0.000 OA
BRANCH  20  22
ATOM     22  C   UNL     1      45.400   2.205   8.584  0.00  0.00    +0.000 A 
ATOM     23  C   UNL     1      45.396   0.831   8.791  0.00  0.00    +0.000 A 
ATOM     24  S   UNL     1      46.424  -0.024   7.733  0.00  0.00    +0.000 S 
ATOM     25  C   UNL     1      46.944   1.418   6.993  0.00  0.00    +0.000 A 
ATOM     26  N   UNL     1      47.838   1.392   5.969  0.00  0.00    +0.000 NA
ATOM     27  C   UNL     1      48.163   2.556   5.520  0.00  0.00    +0.000 A 
ATOM     28  N   UNL     1      47.691   3.742   6.014  0.00  0.00    +0.000 N 
ATOM     29  C   UNL     1      46.878   3.817   7.118  0.00  0.00    +0.000 A 
ATOM     30  O   UNL     1      46.669   4.884   7.676  0.00  0.00    +0.000 OA
ATOM     31  C   UNL     1      46.379   2.537   7.582  0.00  0.00    +0.000 A 
ATOM     32  H   UNL     1      48.054   4.622   5.672  0.00  0.00    +0.000 HD
ENDBRANCH  20  22
ENDBRANCH   1  20
TORSDOF 7
ENDMDL
MODEL 8
REMARK VINA RESULT:    -6.502      2.318      3.866
REMARK INTER + INTRA:          -9.704
REMARK INTER:                  -8.261
REMARK INTRA:                  -1.443
REMARK UNBOUND:                -0.921
REMARK  Name = 
REMARK  7 active torsions:
REMARK  status: ('A' for Active; 'I' for Inactive)
REMARK    1  A    between atoms: N_1  and  C_2
REMARK    2  A    between atoms: C_2  and  C_3
REMARK    3  A    between atoms: C_2  and  C_15
REMARK    4  A    between atoms: C_3  and  C_5
REMARK    5  A    between atoms: C_18  and  C_19
REMARK    6  A    between atoms: C_19  and  O_20
REMARK    7  A    between atoms: C_19  and  C_21
REMARK                            x       y       z     vdW  Elec       q    Type
REMARK                         _______ _______ _______ _____ _____    ______ ____
ROOT
ATOM      1  C   UNL     1      49.120   9.314  14.179  0.00  0.00    +0.000 C 
ENDROOT
BRANCH   1   2
ATOM      2  C   UNL     1      48.161   8.503  13.329  0.00  0.00    +0.000 A 
ATOM      3  C   UNL     1      46.791   8.474  13.638  0.00  0.00    +0.000 A 
ATOM      4  C   UNL     1      45.897   7.713  12.872  0.00  0.00    +0.000 A 
ATOM      5  C   UNL     1      46.342   6.967  11.772  0.00  0.00    +0.000 A 
ATOM      6  C   UNL     1      47.716   6.993  11.487  0.00  0.00    +0.000 A 
ATOM      7  C   UNL     1      48.612   7.726  12.262  0.00  0.00    +0.000 A 
BRANCH   5   8
ATOM      8  C   UNL     1      45.326   6.160  10.969  0.00  0.00    +0.000 C 
BRANCH   8   9
ATOM      9  C   UNL     1      45.124   4.657  11.303  0.00  0.00    +0.000 C 
ATOM     10  C   UNL     1      44.868   3.805  10.042  0.00  0.00    +0.000 C 
ATOM     11  C   UNL     1      44.164   2.489  10.323  0.00  0.00    +0.000 C 
ATOM     12  O   UNL     1      43.075   2.673  11.221  0.00  0.00    +0.000 OA
ATOM     13  C   UNL     1      43.538   3.055  12.512  0.00  0.00    +0.000 C 
ATOM     14  C   UNL     1      44.126   4.451  12.464  0.00  0.00    +0.000 C 
ENDBRANCH   8   9
BRANCH   8  15
ATOM     15  O   UNL     1      45.681   6.246   9.582  0.00  0.00    +0.000 OA
ATOM     16  H   UNL     1      44.980   6.757   9.140  0.00  0.00    +0.000 HD
ENDBRANCH   8  15
ENDBRANCH   5   8
ENDBRANCH   1   2
BRANCH   1  17
ATOM     17  N   UNL     1      48.347  10.180  15.106  0.00  0.00    +0.000 NA
ATOM     18  H   UNL     1      47.438   9.740  15.250  0.00  0.00    +0.000 HD
ATOM     19  H   UNL     1      48.132  11.042  14.603  0.00  0.00    +0.000 HD
ENDBRANCH   1  17
BRANCH   1  20
ATOM     20  C   UNL     1      50.119   8.429  14.982  0.00  0.00    +0.000 C 
ATOM     21  O   UNL     1      51.248   8.214  14.521  0.00  0.00    +0.000 OA
BRANCH  20  22
ATOM     22  C   UNL     1      49.803   7.964  16.349  0.00  0.00    +0.000 A 
ATOM     23  C   UNL     1      50.368   8.610  17.442  0.00  0.00    +0.000 A 
ATOM     24  S   UNL     1      49.819   8.018  18.944  0.00  0.00    +0.000 S 
ATOM     25  C   UNL     1      48.845   6.848  18.185  0.00  0.00    +0.000 A 
ATOM     26  N   UNL     1      48.077   5.999  18.918  0.00  0.00    +0.000 NA
ATOM     27  C   UNL     1      47.409   5.148  18.217  0.00  0.00    +0.000 A 
ATOM     28  N   UNL     1      47.454   5.057  16.852  0.00  0.00    +0.000 N 
ATOM     29  C   UNL     1      48.301   5.818  16.083  0.00  0.00    +0.000 A 
ATOM     30  O   UNL     1      48.494   5.552  14.906  0.00  0.00    +0.000 OA
ATOM     31  C   UNL     1      48.977   6.876  16.807  0.00  0.00    +0.000 A 
ATOM     32  H   UNL     1      46.972   4.310  16.370  0.00  0.00    +0.000 HD
ENDBRANCH  20  22
ENDBRANCH   1  20
TORSDOF 7
ENDMDL
MODEL 9
REMARK VINA RESULT:    -6.485      3.800      7.941
REMARK INTER + INTRA:          -9.681
REMARK INTER:                  -9.067
REMARK INTRA:                  -0.613
REMARK UNBOUND:                -0.921
REMARK  Name = 
REMARK  7 active torsions:
REMARK  status: ('A' for Active; 'I' for Inactive)
REMARK    1  A    between atoms: N_1  and  C_2
REMARK    2  A    between atoms: C_2  and  C_3
REMARK    3  A    between atoms: C_2  and  C_15
REMARK    4  A    between atoms: C_3  and  C_5
REMARK    5  A    between atoms: C_18  and  C_19
REMARK    6  A    between atoms: C_19  and  O_20
REMARK    7  A    between atoms: C_19  and  C_21
REMARK                            x       y       z     vdW  Elec       q    Type
REMARK                         _______ _______ _______ _____ _____    ______ ____
ROOT
ATOM      1  C   UNL     1      47.549   7.108  12.742  0.00  0.00    +0.000 C 
ENDROOT
BRANCH   1   2
ATOM      2  C   UNL     1      47.566   6.265  14.002  0.00  0.00    +0.000 A 
ATOM      3  C   UNL     1      48.208   6.734  15.160  0.00  0.00    +0.000 A 
ATOM      4  C   UNL     1      48.248   5.956  16.325  0.00  0.00    +0.000 A 
ATOM      5  C   UNL     1      47.642   4.692  16.372  0.00  0.00    +0.000 A 
ATOM      6  C   UNL     1      47.020   4.232  15.201  0.00  0.00    +0.000 A 
ATOM      7  C   UNL     1      47.002   4.990  14.032  0.00  0.00    +0.000 A 
BRANCH   5   8
ATOM      8  C   UNL     1      47.711   3.889  17.667  0.00  0.00    +0.000 C 
BRANCH   8   9
ATOM      9  C   UNL     1      49.040   3.179  18.044  0.00  0.00    +0.000 C 
ATOM     10  C   UNL     1      50.128   4.174  18.497  0.00  0.00    +0.000 C 
ATOM     11  C   UNL     1      51.544   3.636  18.372  0.00  0.00    +0.000 C 
ATOM     12  O   UNL     1      51.733   2.983  17.121  0.00  0.00    +0.000 OA
ATOM     13  C   UNL     1      50.946   1.800  17.040  0.00  0.00    +0.000 C 
ATOM     14  C   UNL     1      49.474   2.154  16.972  0.00  0.00    +0.000 C 
ENDBRANCH   8   9
BRANCH   8  15
ATOM     15  O   UNL     1      46.688   2.884  17.627  0.00  0.00    +0.000 OA
ATOM     16  H   UNL     1      47.092   2.054  17.935  0.00  0.00    +0.000 HD
ENDBRANCH   8  15
ENDBRANCH   5   8
ENDBRANCH   1   2
BRANCH   1  17
ATOM     17  N   UNL     1      48.552   6.581  11.782  0.00  0.00    +0.000 NA
ATOM     18  H   UNL     1      48.657   5.583  11.965  0.00  0.00    +0.000 HD
ATOM     19  H   UNL     1      49.456   6.980  12.041  0.00  0.00    +0.000 HD
ENDBRANCH   1  17
BRANCH   1  20
ATOM     20  C   UNL     1      46.146   7.171  12.069  0.00  0.00    +0.000 C 
ATOM     21  O   UNL     1      45.473   8.206  12.161  0.00  0.00    +0.000 OA
BRANCH  20  22
ATOM     22  C   UNL     1      45.663   6.079  11.200  0.00  0.00    +0.000 A 
ATOM     23  C   UNL     1      46.105   6.002   9.884  0.00  0.00    +0.000 A 
ATOM     24  S   UNL     1      45.538   4.627   9.051  0.00  0.00    +0.000 S 
ATOM     25  C   UNL     1      44.646   4.112  10.406  0.00  0.00    +0.000 A 
ATOM     26  N   UNL     1      43.924   2.961  10.367  0.00  0.00    +0.000 NA
ATOM     27  C   UNL     1      43.277   2.704  11.452  0.00  0.00    +0.000 A 
ATOM     28  N   UNL     1      43.270   3.503  12.564  0.00  0.00    +0.000 N 
ATOM     29  C   UNL     1      43.893   4.727  12.603  0.00  0.00    +0.000 A 
ATOM     30  O   UNL     1      43.673   5.517  13.510  0.00  0.00    +0.000 OA
ATOM     31  C   UNL     1      44.739   5.005  11.460  0.00  0.00    +0.000 A 
ATOM     32  H   UNL     1      42.672   3.287  13.350  0.00  0.00    +0.000 HD
ENDBRANCH  20  22
ENDBRANCH   1  20
TORSDOF 7
ENDMDL
