MODEL 1
REMARK VINA RESULT:    -8.283      0.000      0.000
REMARK INTER + INTRA:         -11.349
REMARK INTER:                 -10.704
REMARK INTRA:                  -0.645
REMARK UNBOUND:                -0.645
REMARK  Name = 
REMARK  5 active torsions:
REMARK  status: ('A' for Active; 'I' for Inactive)
REMARK    1  A    between atoms: C_2  and  C_4
REMARK    2  A    between atoms: C_7  and  O_8
REMARK    3  A    between atoms: O_8  and  C_9
REMARK    4  A    between atoms: C_9  and  C_10
REMARK    5  A    between atoms: C_14  and  C_15
REMARK                            x       y       z     vdW  Elec       q    Type
REMARK                         _______ _______ _______ _____ _____    ______ ____
ROOT
ATOM      1  C   UNL     1      43.816   5.190  10.788  0.00  0.00    +0.000 C 
ENDROOT
BRANCH   1   2
ATOM      2  C   UNL     1      44.905   5.141  11.824  0.00  0.00    +0.000 A 
ATOM      3  C   UNL     1      44.816   4.267  12.899  0.00  0.00    +0.000 A 
ATOM      4  N   UNL     1      45.728   4.201  13.891  0.00  0.00    +0.000 NA
ATOM      5  C   UNL     1      46.783   5.051  13.814  0.00  0.00    +0.000 A 
ATOM      6  C   UNL     1      46.991   5.980  12.793  0.00  0.00    +0.000 A 
ATOM      7  C   UNL     1      46.007   6.007  11.793  0.00  0.00    +0.000 A 
BRANCH   6   8
ATOM      8  C   UNL     1      48.164   6.874  12.750  0.00  0.00    +0.000 A 
ATOM      9  C   UNL     1      48.520   7.582  11.591  0.00  0.00    +0.000 A 
ATOM     10  C   UNL     1      49.658   8.387  11.565  0.00  0.00    +0.000 A 
ATOM     11  C   UNL     1      50.418   8.483  12.714  0.00  0.00    +0.000 A 
ATOM     12  N   UNL     1      50.118   7.839  13.860  0.00  0.00    +0.000 NA
ATOM     13  C   UNL     1      49.011   7.055  13.848  0.00  0.00    +0.000 A 
ENDBRANCH   6   8
ENDBRANCH   1   2
BRANCH   1  14
ATOM     14  O   UNL     1      43.596   3.882  10.253  0.00  0.00    +0.000 OA
BRANCH  14  18
ATOM     15  C   UNL     1      46.390   2.710   7.543  0.00  0.00    +0.000 A 
ATOM     16  N   UNL     1      45.956   1.742   8.387  0.00  0.00    +0.000 NA
ATOM     17  C   UNL     1      45.026   2.129   9.287  0.00  0.00    +0.000 A 
ATOM     18  C   UNL     1      44.522   3.410   9.378  0.00  0.00    +0.000 A 
ATOM     19  C   UNL     1      45.043   4.303   8.462  0.00  0.00    +0.000 A 
ATOM     20  N   UNL     1      45.971   3.989   7.534  0.00  0.00    +0.000 NA
BRANCH  15  22
ATOM     21  N   UNL     1      47.415   2.988   5.343  0.00  0.00    +0.000 N 
ATOM     22  C   UNL     1      47.437   2.298   6.533  0.00  0.00    +0.000 C 
ATOM     23  O   UNL     1      48.265   1.415   6.724  0.00  0.00    +0.000 OA
ATOM     24  H   UNL     1      48.089   2.755   4.629  0.00  0.00    +0.000 HD
ATOM     25  H   UNL     1      46.727   3.717   5.186  0.00  0.00    +0.000 HD
ENDBRANCH  15  22
ENDBRANCH  14  18
ENDBRANCH   1  14
TORSDOF 5
ENDMDL
MODEL 2
REMARK VINA RESULT:    -8.110      1.647      1.902
REMARK INTER + INTRA:         -11.125
REMARK INTER:                 -10.517
REMARK INTRA:                  -0.608
REMARK UNBOUND:                -0.645
REMARK  Name = 
REMARK  5 active torsions:
REMARK  status: ('A' for Active; 'I' for Inactive)
REMARK    1  A    between atoms: C_2  and  C_4
REMARK    2  A    between atoms: C_7  and  O_8
REMARK    3  A    between atoms: O_8  and  C_9
REMARK    4  A    between atoms: C_9  and  C_10
REMARK    5  A    between atoms: C_14  and  C_15
REMARK                            x       y       z     vdW  Elec       q    Type
REMARK                         _______ _______ _______ _____ _____    ______ ____
ROOT
ATOM      1  C   UNL     1      43.826   3.255  11.643  0.00  0.00    +0.000 C 
ENDROOT
BRANCH   1   2
ATOM      2  C   UNL     1      45.016   3.997  12.187  0.00  0.00    +0.000 A 
ATOM      3  C   UNL     1      45.969   3.338  12.952  0.00  0.00    +0.000 A 
ATOM      4  N   UNL     1      47.035   3.946  13.512  0.00  0.00    +0.000 NA
ATOM      5  C   UNL     1      47.159   5.281  13.307  0.00  0.00    +0.000 A 
ATOM      6  C   UNL     1      46.273   6.064  12.565  0.00  0.00    +0.000 A 
ATOM      7  C   UNL     1      45.181   5.378  12.011  0.00  0.00    +0.000 A 
BRANCH   6   8
ATOM      8  C   UNL     1      46.462   7.513  12.361  0.00  0.00    +0.000 A 
ATOM      9  C   UNL     1      47.733   8.078  12.163  0.00  0.00    +0.000 A 
ATOM     10  C   UNL     1      47.888   9.456  12.015  0.00  0.00    +0.000 A 
ATOM     11  C   UNL     1      46.758  10.250  12.053  0.00  0.00    +0.000 A 
ATOM     12  N   UNL     1      45.513   9.762  12.224  0.00  0.00    +0.000 NA
ATOM     13  C   UNL     1      45.398   8.419  12.377  0.00  0.00    +0.000 A 
ENDBRANCH   6   8
ENDBRANCH   1   2
BRANCH   1  14
ATOM     14  O   UNL     1      43.606   3.626  10.279  0.00  0.00    +0.000 OA
BRANCH  14  18
ATOM     15  C   UNL     1      46.399   2.668   7.487  0.00  0.00    +0.000 A 
ATOM     16  N   UNL     1      46.000   1.647   8.284  0.00  0.00    +0.000 NA
ATOM     17  C   UNL     1      45.070   1.963   9.212  0.00  0.00    +0.000 A 
ATOM     18  C   UNL     1      44.534   3.224   9.373  0.00  0.00    +0.000 A 
ATOM     19  C   UNL     1      45.020   4.176   8.498  0.00  0.00    +0.000 A 
ATOM     20  N   UNL     1      45.947   3.934   7.547  0.00  0.00    +0.000 NA
BRANCH  15  22
ATOM     21  N   UNL     1      47.343   3.028   5.262  0.00  0.00    +0.000 N 
ATOM     22  C   UNL     1      47.445   2.336   6.447  0.00  0.00    +0.000 C 
ATOM     23  O   UNL     1      48.339   1.512   6.610  0.00  0.00    +0.000 OA
ATOM     24  H   UNL     1      48.013   2.846   4.529  0.00  0.00    +0.000 HD
ATOM     25  H   UNL     1      46.601   3.706   5.128  0.00  0.00    +0.000 HD
ENDBRANCH  15  22
ENDBRANCH  14  18
ENDBRANCH   1  14
TORSDOF 5
ENDMDL
MODEL 3
REMARK VINA RESULT:    -7.947      2.610      7.062
REMARK INTER + INTRA:         -10.915
REMARK INTER:                 -10.773
REMARK INTRA:                  -0.142
REMARK UNBOUND:                -0.645
REMARK  Name = 
REMARK  5 active torsions:
REMARK  status: ('A' for Active; 'I' for Inactive)
REMARK    1  A    between atoms: C_2  and  C_4
REMARK    2  A    between atoms: C_7  and  O_8
REMARK    3  A    between atoms: O_8  and  C_9
REMARK    4  A    between atoms: C_9  and  C_10
REMARK    5  A    between atoms: C_14  and  C_15
REMARK                            x       y       z     vdW  Elec       q    Type
REMARK                         _______ _______ _______ _____ _____    ______ ____
ROOT
ATOM      1  C   UNL     1      44.651   6.249  11.428  0.00  0.00    +0.000 C 
ENDROOT
BRANCH   1   2
ATOM      2  C   UNL     1      44.502   4.899  10.780  0.00  0.00    +0.000 A 
ATOM      3  C   UNL     1      43.592   3.976  11.276  0.00  0.00    +0.000 A 
ATOM      4  N   UNL     1      43.436   2.731  10.779  0.00  0.00    +0.000 NA
ATOM      5  C   UNL     1      44.232   2.383   9.736  0.00  0.00    +0.000 A 
ATOM      6  C   UNL     1      45.189   3.211   9.146  0.00  0.00    +0.000 A 
ATOM      7  C   UNL     1      45.309   4.491   9.709  0.00  0.00    +0.000 A 
BRANCH   6   8
ATOM      8  C   UNL     1      46.019   2.786   8.003  0.00  0.00    +0.000 A 
ATOM      9  C   UNL     1      46.331   3.655   6.945  0.00  0.00    +0.000 A 
ATOM     10  C   UNL     1      47.083   3.216   5.855  0.00  0.00    +0.000 A 
ATOM     11  C   UNL     1      47.527   1.908   5.851  0.00  0.00    +0.000 A 
ATOM     12  N   UNL     1      47.271   1.033   6.845  0.00  0.00    +0.000 NA
ATOM     13  C   UNL     1      46.527   1.489   7.884  0.00  0.00    +0.000 A 
ENDBRANCH   6   8
ENDBRANCH   1   2
BRANCH   1  14
ATOM     14  O   UNL     1      46.011   6.451  11.820  0.00  0.00    +0.000 OA
BRANCH  14  18
ATOM     15  C   UNL     1      47.425   4.819  15.264  0.00  0.00    +0.000 A 
ATOM     16  N   UNL     1      46.275   4.277  14.792  0.00  0.00    +0.000 NA
ATOM     17  C   UNL     1      45.805   4.817  13.647  0.00  0.00    +0.000 A 
ATOM     18  C   UNL     1      46.419   5.849  12.967  0.00  0.00    +0.000 A 
ATOM     19  C   UNL     1      47.584   6.312  13.548  0.00  0.00    +0.000 A 
ATOM     20  N   UNL     1      48.114   5.822  14.688  0.00  0.00    +0.000 NA
BRANCH  15  22
ATOM     21  N   UNL     1      47.054   4.118  17.574  0.00  0.00    +0.000 N 
ATOM     22  C   UNL     1      47.964   4.233  16.549  0.00  0.00    +0.000 C 
ATOM     23  O   UNL     1      49.126   3.874  16.706  0.00  0.00    +0.000 OA
ATOM     24  H   UNL     1      47.357   3.735  18.458  0.00  0.00    +0.000 HD
ATOM     25  H   UNL     1      46.094   4.418  17.443  0.00  0.00    +0.000 HD
ENDBRANCH  15  22
ENDBRANCH  14  18
ENDBRANCH   1  14
TORSDOF 5
ENDMDL
MODEL 4
REMARK VINA RESULT:    -7.805      2.536      6.549
REMARK INTER + INTRA:         -10.731
REMARK INTER:                 -10.002
REMARK INTRA:                  -0.729
REMARK UNBOUND:                -0.645
REMARK  Name = 
REMARK  5 active torsions:
REMARK  status: ('A' for Active; 'I' for Inactive)
REMARK    1  A    between atoms: C_2  and  C_4
REMARK    2  A    between atoms: C_7  and  O_8
REMARK    3  A    between atoms: O_8  and  C_9
REMARK    4  A    between atoms: C_9  and  C_10
REMARK    5  A    between atoms: C_14  and  C_15
REMARK                            x       y       z     vdW  Elec       q    Type
REMARK                         _______ _______ _______ _____ _____    ______ ____
ROOT
ATOM      1  C   UNL     1      43.891   6.128  11.387  0.00  0.00    +0.000 C 
ENDROOT
BRANCH   1   2
ATOM      2  C   UNL     1      43.987   4.724  10.856  0.00  0.00    +0.000 A 
ATOM      3  C   UNL     1      43.276   3.694  11.455  0.00  0.00    +0.000 A 
ATOM      4  N   UNL     1      43.349   2.404  11.064  0.00  0.00    +0.000 NA
ATOM      5  C   UNL     1      44.177   2.123  10.026  0.00  0.00    +0.000 A 
ATOM      6  C   UNL     1      44.950   3.061   9.339  0.00  0.00    +0.000 A 
ATOM      7  C   UNL     1      44.836   4.384   9.794  0.00  0.00    +0.000 A 
BRANCH   6   8
ATOM      8  C   UNL     1      45.824   2.702   8.207  0.00  0.00    +0.000 A 
ATOM      9  C   UNL     1      46.119   3.611   7.177  0.00  0.00    +0.000 A 
ATOM     10  C   UNL     1      46.915   3.233   6.095  0.00  0.00    +0.000 A 
ATOM     11  C   UNL     1      47.418   1.947   6.071  0.00  0.00    +0.000 A 
ATOM     12  N   UNL     1      47.181   1.038   7.038  0.00  0.00    +0.000 NA
ATOM     13  C   UNL     1      46.394   1.434   8.069  0.00  0.00    +0.000 A 
ENDBRANCH   6   8
ENDBRANCH   1   2
BRANCH   1  14
ATOM     14  O   UNL     1      44.455   6.190  12.700  0.00  0.00    +0.000 OA
BRANCH  14  18
ATOM     15  C   UNL     1      48.395   7.171  12.892  0.00  0.00    +0.000 A 
ATOM     16  N   UNL     1      48.093   5.902  13.260  0.00  0.00    +0.000 NA
ATOM     17  C   UNL     1      46.784   5.573  13.195  0.00  0.00    +0.000 A 
ATOM     18  C   UNL     1      45.788   6.436  12.787  0.00  0.00    +0.000 A 
ATOM     19  C   UNL     1      46.224   7.699  12.436  0.00  0.00    +0.000 A 
ATOM     20  N   UNL     1      47.513   8.098  12.474  0.00  0.00    +0.000 NA
BRANCH  15  22
ATOM     21  N   UNL     1      50.580   7.350  11.816  0.00  0.00    +0.000 N 
ATOM     22  C   UNL     1      49.854   7.560  12.965  0.00  0.00    +0.000 C 
ATOM     23  O   UNL     1      50.390   8.033  13.961  0.00  0.00    +0.000 OA
ATOM     24  H   UNL     1      51.561   7.589  11.806  0.00  0.00    +0.000 HD
ATOM     25  H   UNL     1      50.136   6.957  10.993  0.00  0.00    +0.000 HD
ENDBRANCH  15  22
ENDBRANCH  14  18
ENDBRANCH   1  14
TORSDOF 5
ENDMDL
MODEL 5
REMARK VINA RESULT:    -7.351      2.026      3.284
REMARK INTER + INTRA:         -10.144
REMARK INTER:                  -9.721
REMARK INTRA:                  -0.424
REMARK UNBOUND:                -0.645
REMARK  Name = 
REMARK  5 active torsions:
REMARK  status: ('A' for Active; 'I' for Inactive)
REMARK    1  A    between atoms: C_2  and  C_4
REMARK    2  A    between atoms: C_7  and  O_8
REMARK    3  A    between atoms: O_8  and  C_9
REMARK    4  A    between atoms: C_9  and  C_10
REMARK    5  A    between atoms: C_14  and  C_15
REMARK                            x       y       z     vdW  Elec       q    Type
REMARK                         _______ _______ _______ _____ _____    ______ ____
ROOT
ATOM      1  C   UNL     1      44.336   4.371  11.598  0.00  0.00    +0.000 C 
ENDROOT
BRANCH   1   2
ATOM      2  C   UNL     1      45.437   5.108  12.310  0.00  0.00    +0.000 A 
ATOM      3  C   UNL     1      46.016   6.233  11.738  0.00  0.00    +0.000 A 
ATOM      4  N   UNL     1      47.038   6.917  12.293  0.00  0.00    +0.000 NA
ATOM      5  C   UNL     1      47.514   6.456  13.478  0.00  0.00    +0.000 A 
ATOM      6  C   UNL     1      47.028   5.337  14.157  0.00  0.00    +0.000 A 
ATOM      7  C   UNL     1      45.969   4.664  13.528  0.00  0.00    +0.000 A 
BRANCH   6   8
ATOM      8  C   UNL     1      47.574   4.886  15.451  0.00  0.00    +0.000 A 
ATOM      9  C   UNL     1      48.497   5.655  16.179  0.00  0.00    +0.000 A 
ATOM     10  C   UNL     1      49.030   5.187  17.380  0.00  0.00    +0.000 A 
ATOM     11  C   UNL     1      48.615   3.953  17.842  0.00  0.00    +0.000 A 
ATOM     12  N   UNL     1      47.722   3.178  17.194  0.00  0.00    +0.000 NA
ATOM     13  C   UNL     1      47.232   3.658  16.024  0.00  0.00    +0.000 A 
ENDBRANCH   6   8
ENDBRANCH   1   2
BRANCH   1  14
ATOM     14  O   UNL     1      44.279   4.786  10.231  0.00  0.00    +0.000 OA
BRANCH  14  18
ATOM     15  C   UNL     1      46.531   2.554   7.688  0.00  0.00    +0.000 A 
ATOM     16  N   UNL     1      46.632   3.896   7.528  0.00  0.00    +0.000 NA
ATOM     17  C   UNL     1      45.885   4.640   8.374  0.00  0.00    +0.000 A 
ATOM     18  C   UNL     1      45.063   4.114   9.349  0.00  0.00    +0.000 A 
ATOM     19  C   UNL     1      45.050   2.734   9.412  0.00  0.00    +0.000 A 
ATOM     20  N   UNL     1      45.769   1.927   8.603  0.00  0.00    +0.000 NA
BRANCH  15  22
ATOM     21  N   UNL     1      48.386   2.354   6.111  0.00  0.00    +0.000 N 
ATOM     22  C   UNL     1      47.353   1.704   6.746  0.00  0.00    +0.000 C 
ATOM     23  O   UNL     1      47.145   0.514   6.536  0.00  0.00    +0.000 OA
ATOM     24  H   UNL     1      48.968   1.837   5.468  0.00  0.00    +0.000 HD
ATOM     25  H   UNL     1      48.555   3.339   6.284  0.00  0.00    +0.000 HD
ENDBRANCH  15  22
ENDBRANCH  14  18
ENDBRANCH   1  14
TORSDOF 5
ENDMDL
MODEL 6
REMARK VINA RESULT:    -6.696      3.977      8.134
REMARK INTER + INTRA:          -9.298
REMARK INTER:                  -8.853
REMARK INTRA:                  -0.446
REMARK UNBOUND:                -0.645
REMARK  Name = 
REMARK  5 active torsions:
REMARK  status: ('A' for Active; 'I' for Inactive)
REMARK    1  A    between atoms: C_2  and  C_4
REMARK    2  A    between atoms: C_7  and  O_8
REMARK    3  A    between atoms: O_8  and  C_9
REMARK    4  A    between atoms: C_9  and  C_10
REMARK    5  A    between atoms: C_14  and  C_15
REMARK                            x       y       z     vdW  Elec       q    Type
REMARK                         _______ _______ _______ _____ _____    ______ ____
ROOT
ATOM      1  C   UNL     1      46.065   4.849  14.025  0.00  0.00    +0.000 C 
ENDROOT
BRANCH   1   2
ATOM      2  C   UNL     1      45.200   4.472  12.853  0.00  0.00    +0.000 A 
ATOM      3  C   UNL     1      43.822   4.378  12.995  0.00  0.00    +0.000 A 
ATOM      4  N   UNL     1      42.989   4.000  12.004  0.00  0.00    +0.000 NA
ATOM      5  C   UNL     1      43.555   3.694  10.809  0.00  0.00    +0.000 A 
ATOM      6  C   UNL     1      44.922   3.741  10.533  0.00  0.00    +0.000 A 
ATOM      7  C   UNL     1      45.740   4.136  11.604  0.00  0.00    +0.000 A 
BRANCH   6   8
ATOM      8  C   UNL     1      45.485   3.410   9.210  0.00  0.00    +0.000 A 
ATOM      9  C   UNL     1      45.736   2.085   8.818  0.00  0.00    +0.000 A 
ATOM     10  C   UNL     1      46.307   1.802   7.577  0.00  0.00    +0.000 A 
ATOM     11  C   UNL     1      46.605   2.858   6.738  0.00  0.00    +0.000 A 
ATOM     12  N   UNL     1      46.373   4.148   7.055  0.00  0.00    +0.000 NA
ATOM     13  C   UNL     1      45.828   4.389   8.273  0.00  0.00    +0.000 A 
ENDBRANCH   6   8
ENDBRANCH   1   2
BRANCH   1  14
ATOM     14  O   UNL     1      46.888   3.740  14.397  0.00  0.00    +0.000 OA
BRANCH  14  18
ATOM     15  C   UNL     1      48.650   4.175  18.035  0.00  0.00    +0.000 A 
ATOM     16  N   UNL     1      48.539   2.899  17.591  0.00  0.00    +0.000 NA
ATOM     17  C   UNL     1      47.956   2.753  16.381  0.00  0.00    +0.000 A 
ATOM     18  C   UNL     1      47.490   3.800  15.613  0.00  0.00    +0.000 A 
ATOM     19  C   UNL     1      47.663   5.050  16.175  0.00  0.00    +0.000 A 
ATOM     20  N   UNL     1      48.237   5.274  17.376  0.00  0.00    +0.000 NA
BRANCH  15  22
ATOM     21  N   UNL     1      48.572   3.879  20.458  0.00  0.00    +0.000 N 
ATOM     22  C   UNL     1      49.293   4.360  19.390  0.00  0.00    +0.000 C 
ATOM     23  O   UNL     1      50.382   4.896  19.566  0.00  0.00    +0.000 OA
ATOM     24  H   UNL     1      48.951   3.976  21.389  0.00  0.00    +0.000 HD
ATOM     25  H   UNL     1      47.671   3.438  20.311  0.00  0.00    +0.000 HD
ENDBRANCH  15  22
ENDBRANCH  14  18
ENDBRANCH   1  14
TORSDOF 5
ENDMDL
MODEL 7
REMARK VINA RESULT:    -6.687      2.806      7.168
REMARK INTER + INTRA:          -9.286
REMARK INTER:                  -8.702
REMARK INTRA:                  -0.584
REMARK UNBOUND:                -0.645
REMARK  Name = 
REMARK  5 active torsions:
REMARK  status: ('A' for Active; 'I' for Inactive)
REMARK    1  A    between atoms: C_2  and  C_4
REMARK    2  A    between atoms: C_7  and  O_8
REMARK    3  A    between atoms: O_8  and  C_9
REMARK    4  A    between atoms: C_9  and  C_10
REMARK    5  A    between atoms: C_14  and  C_15
REMARK                            x       y       z     vdW  Elec       q    Type
REMARK                         _______ _______ _______ _____ _____    ______ ____
ROOT
ATOM      1  C   UNL     1      45.265   7.471  11.595  0.00  0.00    +0.000 C 
ENDROOT
BRANCH   1   2
ATOM      2  C   UNL     1      44.727   6.165  11.077  0.00  0.00    +0.000 A 
ATOM      3  C   UNL     1      43.532   5.652  11.562  0.00  0.00    +0.000 A 
ATOM      4  N   UNL     1      43.013   4.466  11.181  0.00  0.00    +0.000 NA
ATOM      5  C   UNL     1      43.720   3.750  10.271  0.00  0.00    +0.000 A 
ATOM      6  C   UNL     1      44.934   4.146   9.707  0.00  0.00    +0.000 A 
ATOM      7  C   UNL     1      45.428   5.385  10.146  0.00  0.00    +0.000 A 
BRANCH   6   8
ATOM      8  C   UNL     1      45.657   3.334   8.710  0.00  0.00    +0.000 A 
ATOM      9  C   UNL     1      46.240   3.903   7.566  0.00  0.00    +0.000 A 
ATOM     10  C   UNL     1      46.881   3.106   6.617  0.00  0.00    +0.000 A 
ATOM     11  C   UNL     1      46.942   1.744   6.840  0.00  0.00    +0.000 A 
ATOM     12  N   UNL     1      46.414   1.145   7.927  0.00  0.00    +0.000 NA
ATOM     13  C   UNL     1      45.787   1.947   8.823  0.00  0.00    +0.000 A 
ENDBRANCH   6   8
ENDBRANCH   1   2
BRANCH   1  14
ATOM     14  O   UNL     1      45.615   7.337  12.975  0.00  0.00    +0.000 OA
BRANCH  14  18
ATOM     15  C   UNL     1      49.514   7.817  14.019  0.00  0.00    +0.000 A 
ATOM     16  N   UNL     1      49.216   6.644  13.410  0.00  0.00    +0.000 NA
ATOM     17  C   UNL     1      47.921   6.483  13.060  0.00  0.00    +0.000 A 
ATOM     18  C   UNL     1      46.935   7.421  13.287  0.00  0.00    +0.000 A 
ATOM     19  C   UNL     1      47.367   8.575  13.912  0.00  0.00    +0.000 A 
ATOM     20  N   UNL     1      48.642   8.806  14.289  0.00  0.00    +0.000 NA
BRANCH  15  22
ATOM     21  N   UNL     1      51.430   7.137  15.374  0.00  0.00    +0.000 N 
ATOM     22  C   UNL     1      50.957   8.013  14.425  0.00  0.00    +0.000 C 
ATOM     23  O   UNL     1      51.689   8.882  13.963  0.00  0.00    +0.000 OA
ATOM     24  H   UNL     1      52.386   7.221  15.686  0.00  0.00    +0.000 HD
ATOM     25  H   UNL     1      50.823   6.420  15.757  0.00  0.00    +0.000 HD
ENDBRANCH  15  22
ENDBRANCH  14  18
ENDBRANCH   1  14
TORSDOF 5
ENDMDL
MODEL 8
REMARK VINA RESULT:    -6.251      2.990      5.375
REMARK INTER + INTRA:          -8.723
REMARK INTER:                  -8.202
REMARK INTRA:                  -0.521
REMARK UNBOUND:                -0.645
REMARK  Name = 
REMARK  5 active torsions:
REMARK  status: ('A' for Active; 'I' for Inactive)
REMARK    1  A    between atoms: C_2  and  C_4
REMARK    2  A    between atoms: C_7  and  O_8
REMARK    3  A    between atoms: O_8  and  C_9
REMARK    4  A    between atoms: C_9  and  C_10
REMARK    5  A    between atoms: C_14  and  C_15
REMARK                            x       y       z     vdW  Elec       q    Type
REMARK                         _______ _______ _______ _____ _____    ______ ____
ROOT
ATOM      1  C   UNL     1      47.531   7.857  12.208  0.00  0.00    +0.000 C 
ENDROOT
BRANCH   1   2
ATOM      2  C   UNL     1      48.196   7.655  13.543  0.00  0.00    +0.000 A 
ATOM      3  C   UNL     1      49.137   8.564  14.005  0.00  0.00    +0.000 A 
ATOM      4  N   UNL     1      49.809   8.425  15.167  0.00  0.00    +0.000 NA
ATOM      5  C   UNL     1      49.533   7.322  15.908  0.00  0.00    +0.000 A 
ATOM      6  C   UNL     1      48.615   6.330  15.558  0.00  0.00    +0.000 A 
ATOM      7  C   UNL     1      47.952   6.526  14.336  0.00  0.00    +0.000 A 
BRANCH   6   8
ATOM      8  C   UNL     1      48.343   5.155  16.408  0.00  0.00    +0.000 A 
ATOM      9  C   UNL     1      49.274   4.685  17.348  0.00  0.00    +0.000 A 
ATOM     10  C   UNL     1      49.009   3.546  18.110  0.00  0.00    +0.000 A 
ATOM     11  C   UNL     1      47.801   2.902  17.925  0.00  0.00    +0.000 A 
ATOM     12  N   UNL     1      46.864   3.316  17.048  0.00  0.00    +0.000 NA
ATOM     13  C   UNL     1      47.158   4.419  16.316  0.00  0.00    +0.000 A 
ENDBRANCH   6   8
ENDBRANCH   1   2
BRANCH   1  14
ATOM     14  O   UNL     1      46.110   7.802  12.361  0.00  0.00    +0.000 OA
BRANCH  14  18
ATOM     15  C   UNL     1      44.443   4.222  11.400  0.00  0.00    +0.000 A 
ATOM     16  N   UNL     1      44.095   4.719  12.612  0.00  0.00    +0.000 NA
ATOM     17  C   UNL     1      44.646   5.909  12.933  0.00  0.00    +0.000 A 
ATOM     18  C   UNL     1      45.509   6.609  12.114  0.00  0.00    +0.000 A 
ATOM     19  C   UNL     1      45.783   5.999  10.906  0.00  0.00    +0.000 A 
ATOM     20  N   UNL     1      45.269   4.813  10.518  0.00  0.00    +0.000 NA
BRANCH  15  22
ATOM     21  N   UNL     1      44.402   2.270   9.931  0.00  0.00    +0.000 N 
ATOM     22  C   UNL     1      43.842   2.886  11.026  0.00  0.00    +0.000 C 
ATOM     23  O   UNL     1      42.917   2.355  11.632  0.00  0.00    +0.000 OA
ATOM     24  H   UNL     1      44.039   1.376   9.633  0.00  0.00    +0.000 HD
ATOM     25  H   UNL     1      45.164   2.712   9.429  0.00  0.00    +0.000 HD
ENDBRANCH  15  22
ENDBRANCH  14  18
ENDBRANCH   1  14
TORSDOF 5
ENDMDL
MODEL 9
REMARK VINA RESULT:    -6.132      4.710      8.074
REMARK INTER + INTRA:          -8.569
REMARK INTER:                  -7.954
REMARK INTRA:                  -0.615
REMARK UNBOUND:                -0.645
REMARK  Name = 
REMARK  5 active torsions:
REMARK  status: ('A' for Active; 'I' for Inactive)
REMARK    1  A    between atoms: C_2  and  C_4
REMARK    2  A    between atoms: C_7  and  O_8
REMARK    3  A    between atoms: O_8  and  C_9
REMARK    4  A    between atoms: C_9  and  C_10
REMARK    5  A    between atoms: C_14  and  C_15
REMARK                            x       y       z     vdW  Elec       q    Type
REMARK                         _______ _______ _______ _____ _____    ______ ____
ROOT
ATOM      1  C   UNL     1      48.499   6.343  16.224  0.00  0.00    +0.000 C 
ENDROOT
BRANCH   1   2
ATOM      2  C   UNL     1      48.172   6.372  14.756  0.00  0.00    +0.000 A 
ATOM      3  C   UNL     1      48.902   7.172  13.887  0.00  0.00    +0.000 A 
ATOM      4  N   UNL     1      48.638   7.286  12.569  0.00  0.00    +0.000 NA
ATOM      5  C   UNL     1      47.590   6.571  12.089  0.00  0.00    +0.000 A 
ATOM      6  C   UNL     1      46.773   5.734  12.851  0.00  0.00    +0.000 A 
ATOM      7  C   UNL     1      47.092   5.660  14.216  0.00  0.00    +0.000 A 
BRANCH   6   8
ATOM      8  C   UNL     1      45.652   4.967  12.275  0.00  0.00    +0.000 A 
ATOM      9  C   UNL     1      44.937   5.421  11.154  0.00  0.00    +0.000 A 
ATOM     10  C   UNL     1      43.854   4.697  10.655  0.00  0.00    +0.000 A 
ATOM     11  C   UNL     1      43.513   3.514  11.282  0.00  0.00    +0.000 A 
ATOM     12  N   UNL     1      44.171   3.022  12.351  0.00  0.00    +0.000 NA
ATOM     13  C   UNL     1      45.211   3.757  12.818  0.00  0.00    +0.000 A 
ENDBRANCH   6   8
ENDBRANCH   1   2
BRANCH   1  14
ATOM     14  O   UNL     1      48.042   5.116  16.798  0.00  0.00    +0.000 OA
BRANCH  14  18
ATOM     15  C   UNL     1      50.972   2.362  17.390  0.00  0.00    +0.000 A 
ATOM     16  N   UNL     1      49.771   1.860  17.010  0.00  0.00    +0.000 NA
ATOM     17  C   UNL     1      48.797   2.774  16.811  0.00  0.00    +0.000 A 
ATOM     18  C   UNL     1      48.965   4.135  16.970  0.00  0.00    +0.000 A 
ATOM     19  C   UNL     1      50.235   4.519  17.357  0.00  0.00    +0.000 A 
ATOM     20  N   UNL     1      51.257   3.664  17.574  0.00  0.00    +0.000 NA
BRANCH  15  22
ATOM     21  N   UNL     1      51.667   0.135  18.117  0.00  0.00    +0.000 N 
ATOM     22  C   UNL     1      52.074   1.354  17.625  0.00  0.00    +0.000 C 
ATOM     23  O   UNL     1      53.261   1.570  17.407  0.00  0.00    +0.000 OA
ATOM     24  H   UNL     1      52.360  -0.577  18.296  0.00  0.00    +0.000 HD
ATOM     25  H   UNL     1      50.686  -0.041  18.300  0.00  0.00    +0.000 HD
ENDBRANCH  15  22
ENDBRANCH  14  18
ENDBRANCH   1  14
TORSDOF 5
ENDMDL
