MODEL 1
REMARK VINA RESULT:    -7.483      0.000      0.000
REMARK INTER + INTRA:          -9.181
REMARK INTER:                  -8.795
REMARK INTRA:                  -0.386
REMARK UNBOUND:                -0.386
REMARK  Name = 
REMARK  3 active torsions:
REMARK  status: ('A' for Active; 'I' for Inactive)
REMARK    1  A    between atoms: C_2  and  C_3
REMARK    2  A    between atoms: C_7  and  C_8
REMARK    3  A    between atoms: C_8  and  N_9
REMARK                            x       y       z     vdW  Elec       q    Type
REMARK                         _______ _______ _______ _____ _____    ______ ____
ROOT
ATOM      1  C   UNL     1      44.187   2.621   9.888  0.00  0.00    +0.000 C 
ENDROOT
BRANCH   1   2
ATOM      2  N   UNL     1      45.116   3.067   8.853  0.00  0.00    +0.000 N 
ATOM      3  C   UNL     1      45.347   4.387   8.545  0.00  0.00    +0.000 A 
ATOM      4  C   UNL     1      46.367   4.438   7.622  0.00  0.00    +0.000 A 
ATOM      5  C   UNL     1      46.784   3.105   7.362  0.00  0.00    +0.000 A 
ATOM      6  C   UNL     1      47.776   2.539   6.550  0.00  0.00    +0.000 A 
ATOM      7  N   UNL     1      47.958   1.197   6.514  0.00  0.00    +0.000 NA
ATOM      8  C   UNL     1      47.160   0.414   7.269  0.00  0.00    +0.000 A 
ATOM      9  C   UNL     1      46.151   0.874   8.102  0.00  0.00    +0.000 A 
ATOM     10  C   UNL     1      45.980   2.261   8.137  0.00  0.00    +0.000 A 
ENDBRANCH   1   2
BRANCH   1  15
ATOM     11  C   UNL     1      45.272   4.537  13.011  0.00  0.00    +0.000 A 
ATOM     12  C   UNL     1      44.133   5.300  13.280  0.00  0.00    +0.000 A 
ATOM     13  C   UNL     1      43.011   5.187  12.461  0.00  0.00    +0.000 A 
ATOM     14  C   UNL     1      43.025   4.317  11.369  0.00  0.00    +0.000 A 
ATOM     15  C   UNL     1      44.163   3.552  11.076  0.00  0.00    +0.000 A 
ATOM     16  C   UNL     1      45.287   3.669  11.911  0.00  0.00    +0.000 A 
BRANCH  11  18
ATOM     17  N   UNL     1      47.354   4.698  14.551  0.00  0.00    +0.000 NA
ATOM     18  C   UNL     1      46.420   4.632  13.865  0.00  0.00    +0.000 C 
ENDBRANCH  11  18
ENDBRANCH   1  15
TORSDOF 3
ENDMDL
MODEL 2
REMARK VINA RESULT:    -7.359      1.424      6.050
REMARK INTER + INTRA:          -9.035
REMARK INTER:                  -8.452
REMARK INTRA:                  -0.584
REMARK UNBOUND:                -0.386
REMARK  Name = 
REMARK  3 active torsions:
REMARK  status: ('A' for Active; 'I' for Inactive)
REMARK    1  A    between atoms: C_2  and  C_3
REMARK    2  A    between atoms: C_7  and  C_8
REMARK    3  A    between atoms: C_8  and  N_9
REMARK                            x       y       z     vdW  Elec       q    Type
REMARK                         _______ _______ _______ _____ _____    ______ ____
ROOT
ATOM      1  C   UNL     1      44.140   4.274   9.145  0.00  0.00    +0.000 C 
ENDROOT
BRANCH   1   2
ATOM      2  N   UNL     1      44.269   4.126  10.592  0.00  0.00    +0.000 N 
ATOM      3  C   UNL     1      43.634   3.151  11.324  0.00  0.00    +0.000 A 
ATOM      4  C   UNL     1      44.083   3.230  12.623  0.00  0.00    +0.000 A 
ATOM      5  C   UNL     1      45.036   4.283  12.688  0.00  0.00    +0.000 A 
ATOM      6  C   UNL     1      45.833   4.808  13.714  0.00  0.00    +0.000 A 
ATOM      7  N   UNL     1      46.684   5.835  13.473  0.00  0.00    +0.000 NA
ATOM      8  C   UNL     1      46.743   6.348  12.226  0.00  0.00    +0.000 A 
ATOM      9  C   UNL     1      45.996   5.903  11.145  0.00  0.00    +0.000 A 
ATOM     10  C   UNL     1      45.130   4.837  11.406  0.00  0.00    +0.000 A 
ENDBRANCH   1   2
BRANCH   1  15
ATOM     11  C   UNL     1      46.533   1.685   7.670  0.00  0.00    +0.000 A 
ATOM     12  C   UNL     1      47.446   2.501   6.998  0.00  0.00    +0.000 A 
ATOM     13  C   UNL     1      47.297   3.886   7.030  0.00  0.00    +0.000 A 
ATOM     14  C   UNL     1      46.233   4.460   7.729  0.00  0.00    +0.000 A 
ATOM     15  C   UNL     1      45.299   3.657   8.400  0.00  0.00    +0.000 A 
ATOM     16  C   UNL     1      45.462   2.262   8.365  0.00  0.00    +0.000 A 
BRANCH  11  18
ATOM     17  N   UNL     1      46.818  -0.894   7.640  0.00  0.00    +0.000 NA
ATOM     18  C   UNL     1      46.696   0.261   7.658  0.00  0.00    +0.000 C 
ENDBRANCH  11  18
ENDBRANCH   1  15
TORSDOF 3
ENDMDL
MODEL 3
REMARK VINA RESULT:    -6.893      0.839      1.798
REMARK INTER + INTRA:          -8.488
REMARK INTER:                  -7.980
REMARK INTRA:                  -0.508
REMARK UNBOUND:                -0.386
REMARK  Name = 
REMARK  3 active torsions:
REMARK  status: ('A' for Active; 'I' for Inactive)
REMARK    1  A    between atoms: C_2  and  C_3
REMARK    2  A    between atoms: C_7  and  C_8
REMARK    3  A    between atoms: C_8  and  N_9
REMARK                            x       y       z     vdW  Elec       q    Type
REMARK                         _______ _______ _______ _____ _____    ______ ____
ROOT
ATOM      1  C   UNL     1      44.556   4.550   8.949  0.00  0.00    +0.000 C 
ENDROOT
BRANCH   1   2
ATOM      2  N   UNL     1      45.091   3.207   8.743  0.00  0.00    +0.000 N 
ATOM      3  C   UNL     1      44.510   2.064   9.240  0.00  0.00    +0.000 A 
ATOM      4  C   UNL     1      45.203   0.983   8.746  0.00  0.00    +0.000 A 
ATOM      5  C   UNL     1      46.239   1.478   7.908  0.00  0.00    +0.000 A 
ATOM      6  C   UNL     1      47.230   0.868   7.128  0.00  0.00    +0.000 A 
ATOM      7  N   UNL     1      48.096   1.616   6.402  0.00  0.00    +0.000 NA
ATOM      8  C   UNL     1      47.991   2.960   6.451  0.00  0.00    +0.000 A 
ATOM      9  C   UNL     1      47.049   3.659   7.192  0.00  0.00    +0.000 A 
ATOM     10  C   UNL     1      46.156   2.875   7.928  0.00  0.00    +0.000 A 
ENDBRANCH   1   2
BRANCH   1  15
ATOM     11  C   UNL     1      45.382   5.304  12.603  0.00  0.00    +0.000 A 
ATOM     12  C   UNL     1      44.110   5.530  13.136  0.00  0.00    +0.000 A 
ATOM     13  C   UNL     1      42.985   5.426  12.318  0.00  0.00    +0.000 A 
ATOM     14  C   UNL     1      43.127   5.104  10.967  0.00  0.00    +0.000 A 
ATOM     15  C   UNL     1      44.397   4.885  10.412  0.00  0.00    +0.000 A 
ATOM     16  C   UNL     1      45.523   4.987  11.246  0.00  0.00    +0.000 A 
BRANCH  11  18
ATOM     17  N   UNL     1      47.475   5.440  14.130  0.00  0.00    +0.000 NA
ATOM     18  C   UNL     1      46.539   5.387  13.445  0.00  0.00    +0.000 C 
ENDBRANCH  11  18
ENDBRANCH   1  15
TORSDOF 3
ENDMDL
MODEL 4
REMARK VINA RESULT:    -6.415      1.943      5.847
REMARK INTER + INTRA:          -7.926
REMARK INTER:                  -7.363
REMARK INTRA:                  -0.562
REMARK UNBOUND:                -0.386
REMARK  Name = 
REMARK  3 active torsions:
REMARK  status: ('A' for Active; 'I' for Inactive)
REMARK    1  A    between atoms: C_2  and  C_3
REMARK    2  A    between atoms: C_7  and  C_8
REMARK    3  A    between atoms: C_8  and  N_9
REMARK                            x       y       z     vdW  Elec       q    Type
REMARK                         _______ _______ _______ _____ _____    ______ ____
ROOT
ATOM      1  C   UNL     1      43.791   5.458  11.263  0.00  0.00    +0.000 C 
ENDROOT
BRANCH   1   2
ATOM      2  N   UNL     1      44.939   6.194  11.785  0.00  0.00    +0.000 N 
ATOM      3  C   UNL     1      45.191   7.518  11.512  0.00  0.00    +0.000 A 
ATOM      4  C   UNL     1      46.272   7.911  12.267  0.00  0.00    +0.000 A 
ATOM      5  C   UNL     1      46.692   6.794  13.039  0.00  0.00    +0.000 A 
ATOM      6  C   UNL     1      47.702   6.597  13.990  0.00  0.00    +0.000 A 
ATOM      7  N   UNL     1      47.862   5.392  14.589  0.00  0.00    +0.000 NA
ATOM      8  C   UNL     1      47.035   4.383  14.246  0.00  0.00    +0.000 A 
ATOM      9  C   UNL     1      46.009   4.475  13.317  0.00  0.00    +0.000 A 
ATOM     10  C   UNL     1      45.849   5.726  12.714  0.00  0.00    +0.000 A 
ENDBRANCH   1   2
BRANCH   1  15
ATOM     11  C   UNL     1      45.379   3.411   8.453  0.00  0.00    +0.000 A 
ATOM     12  C   UNL     1      44.991   2.115   8.800  0.00  0.00    +0.000 A 
ATOM     13  C   UNL     1      44.208   1.902   9.934  0.00  0.00    +0.000 A 
ATOM     14  C   UNL     1      43.815   2.982  10.726  0.00  0.00    +0.000 A 
ATOM     15  C   UNL     1      44.203   4.290  10.401  0.00  0.00    +0.000 A 
ATOM     16  C   UNL     1      44.988   4.494   9.254  0.00  0.00    +0.000 A 
BRANCH  11  18
ATOM     17  N   UNL     1      46.800   3.833   6.324  0.00  0.00    +0.000 NA
ATOM     18  C   UNL     1      46.164   3.637   7.276  0.00  0.00    +0.000 C 
ENDBRANCH  11  18
ENDBRANCH   1  15
TORSDOF 3
ENDMDL
MODEL 5
REMARK VINA RESULT:    -6.098      2.060      3.861
REMARK INTER + INTRA:          -7.553
REMARK INTER:                  -6.992
REMARK INTRA:                  -0.561
REMARK UNBOUND:                -0.386
REMARK  Name = 
REMARK  3 active torsions:
REMARK  status: ('A' for Active; 'I' for Inactive)
REMARK    1  A    between atoms: C_2  and  C_3
REMARK    2  A    between atoms: C_7  and  C_8
REMARK    3  A    between atoms: C_8  and  N_9
REMARK                            x       y       z     vdW  Elec       q    Type
REMARK                         _______ _______ _______ _____ _____    ______ ____
ROOT
ATOM      1  C   UNL     1      44.511   6.341  11.671  0.00  0.00    +0.000 C 
ENDROOT
BRANCH   1   2
ATOM      2  N   UNL     1      44.305   4.934  11.342  0.00  0.00    +0.000 N 
ATOM      3  C   UNL     1      43.517   4.079  12.077  0.00  0.00    +0.000 A 
ATOM      4  C   UNL     1      43.449   2.878  11.409  0.00  0.00    +0.000 A 
ATOM      5  C   UNL     1      44.213   3.002  10.216  0.00  0.00    +0.000 A 
ATOM      6  C   UNL     1      44.488   2.139   9.147  0.00  0.00    +0.000 A 
ATOM      7  N   UNL     1      45.260   2.547   8.110  0.00  0.00    +0.000 NA
ATOM      8  C   UNL     1      45.764   3.798   8.131  0.00  0.00    +0.000 A 
ATOM      9  C   UNL     1      45.553   4.725   9.141  0.00  0.00    +0.000 A 
ATOM     10  C   UNL     1      44.748   4.295  10.199  0.00  0.00    +0.000 A 
ENDBRANCH   1   2
BRANCH   1  15
ATOM     11  C   UNL     1      47.540   6.099  13.988  0.00  0.00    +0.000 A 
ATOM     12  C   UNL     1      48.399   7.045  13.423  0.00  0.00    +0.000 A 
ATOM     13  C   UNL     1      47.996   7.769  12.302  0.00  0.00    +0.000 A 
ATOM     14  C   UNL     1      46.738   7.547  11.739  0.00  0.00    +0.000 A 
ATOM     15  C   UNL     1      45.866   6.593  12.285  0.00  0.00    +0.000 A 
ATOM     16  C   UNL     1      46.280   5.873  13.418  0.00  0.00    +0.000 A 
BRANCH  11  18
ATOM     17  N   UNL     1      48.268   4.767  16.092  0.00  0.00    +0.000 NA
ATOM     18  C   UNL     1      47.941   5.369  15.155  0.00  0.00    +0.000 C 
ENDBRANCH  11  18
ENDBRANCH   1  15
TORSDOF 3
ENDMDL
MODEL 6
REMARK VINA RESULT:    -6.066      2.785      4.343
REMARK INTER + INTRA:          -7.515
REMARK INTER:                  -6.956
REMARK INTRA:                  -0.560
REMARK UNBOUND:                -0.386
REMARK  Name = 
REMARK  3 active torsions:
REMARK  status: ('A' for Active; 'I' for Inactive)
REMARK    1  A    between atoms: C_2  and  C_3
REMARK    2  A    between atoms: C_7  and  C_8
REMARK    3  A    between atoms: C_8  and  N_9
REMARK                            x       y       z     vdW  Elec       q    Type
REMARK                         _______ _______ _______ _____ _____    ______ ____
ROOT
ATOM      1  C   UNL     1      44.481   6.270  11.819  0.00  0.00    +0.000 C 
ENDROOT
BRANCH   1   2
ATOM      2  N   UNL     1      44.297   4.875  11.427  0.00  0.00    +0.000 N 
ATOM      3  C   UNL     1      43.528   3.975  12.126  0.00  0.00    +0.000 A 
ATOM      4  C   UNL     1      43.477   2.804  11.405  0.00  0.00    +0.000 A 
ATOM      5  C   UNL     1      44.233   2.995  10.216  0.00  0.00    +0.000 A 
ATOM      6  C   UNL     1      44.518   2.186   9.107  0.00  0.00    +0.000 A 
ATOM      7  N   UNL     1      45.277   2.653   8.087  0.00  0.00    +0.000 NA
ATOM      8  C   UNL     1      45.759   3.911   8.162  0.00  0.00    +0.000 A 
ATOM      9  C   UNL     1      45.538   4.788   9.213  0.00  0.00    +0.000 A 
ATOM     10  C   UNL     1      44.745   4.296  10.255  0.00  0.00    +0.000 A 
ENDBRANCH   1   2
BRANCH   1  15
ATOM     11  C   UNL     1      47.896   7.919  12.285  0.00  0.00    +0.000 A 
ATOM     12  C   UNL     1      48.482   7.082  13.238  0.00  0.00    +0.000 A 
ATOM     13  C   UNL     1      47.780   5.978  13.721  0.00  0.00    +0.000 A 
ATOM     14  C   UNL     1      46.490   5.712  13.258  0.00  0.00    +0.000 A 
ATOM     15  C   UNL     1      45.880   6.547  12.311  0.00  0.00    +0.000 A 
ATOM     16  C   UNL     1      46.598   7.653  11.827  0.00  0.00    +0.000 A 
BRANCH  11  18
ATOM     17  N   UNL     1      49.223   9.942  11.348  0.00  0.00    +0.000 NA
ATOM     18  C   UNL     1      48.623   9.041  11.769  0.00  0.00    +0.000 C 
ENDBRANCH  11  18
ENDBRANCH   1  15
TORSDOF 3
ENDMDL
MODEL 7
REMARK VINA RESULT:    -5.835      3.154      6.412
REMARK INTER + INTRA:          -7.244
REMARK INTER:                  -6.844
REMARK INTRA:                  -0.400
REMARK UNBOUND:                -0.386
REMARK  Name = 
REMARK  3 active torsions:
REMARK  status: ('A' for Active; 'I' for Inactive)
REMARK    1  A    between atoms: C_2  and  C_3
REMARK    2  A    between atoms: C_7  and  C_8
REMARK    3  A    between atoms: C_8  and  N_9
REMARK                            x       y       z     vdW  Elec       q    Type
REMARK                         _______ _______ _______ _____ _____    ______ ____
ROOT
ATOM      1  C   UNL     1      44.719   6.243  12.864  0.00  0.00    +0.000 C 
ENDROOT
BRANCH   1   2
ATOM      2  N   UNL     1      46.106   6.697  12.892  0.00  0.00    +0.000 N 
ATOM      3  C   UNL     1      47.182   5.868  13.104  0.00  0.00    +0.000 A 
ATOM      4  C   UNL     1      48.331   6.607  12.934  0.00  0.00    +0.000 A 
ATOM      5  C   UNL     1      47.948   7.933  12.596  0.00  0.00    +0.000 A 
ATOM      6  C   UNL     1      48.660   9.100  12.289  0.00  0.00    +0.000 A 
ATOM      7  N   UNL     1      48.008  10.248  11.984  0.00  0.00    +0.000 NA
ATOM      8  C   UNL     1      46.659  10.248  11.989  0.00  0.00    +0.000 A 
ATOM      9  C   UNL     1      45.863   9.150  12.281  0.00  0.00    +0.000 A 
ATOM     10  C   UNL     1      46.549   7.970  12.585  0.00  0.00    +0.000 A 
ENDBRANCH   1   2
BRANCH   1  15
ATOM     11  C   UNL     1      44.917   4.049   9.741  0.00  0.00    +0.000 A 
ATOM     12  C   UNL     1      44.144   2.951  10.123  0.00  0.00    +0.000 A 
ATOM     13  C   UNL     1      43.548   2.923  11.383  0.00  0.00    +0.000 A 
ATOM     14  C   UNL     1      43.728   3.989  12.267  0.00  0.00    +0.000 A 
ATOM     15  C   UNL     1      44.511   5.095  11.906  0.00  0.00    +0.000 A 
ATOM     16  C   UNL     1      45.102   5.116  10.632  0.00  0.00    +0.000 A 
BRANCH  11  18
ATOM     17  N   UNL     1      45.989   4.140   7.380  0.00  0.00    +0.000 NA
ATOM     18  C   UNL     1      45.512   4.093   8.438  0.00  0.00    +0.000 C 
ENDBRANCH  11  18
ENDBRANCH   1  15
TORSDOF 3
ENDMDL
MODEL 8
REMARK VINA RESULT:    -5.665      3.774      5.500
REMARK INTER + INTRA:          -7.045
REMARK INTER:                  -6.516
REMARK INTRA:                  -0.529
REMARK UNBOUND:                -0.386
REMARK  Name = 
REMARK  3 active torsions:
REMARK  status: ('A' for Active; 'I' for Inactive)
REMARK    1  A    between atoms: C_2  and  C_3
REMARK    2  A    between atoms: C_7  and  C_8
REMARK    3  A    between atoms: C_8  and  N_9
REMARK                            x       y       z     vdW  Elec       q    Type
REMARK                         _______ _______ _______ _____ _____    ______ ____
ROOT
ATOM      1  C   UNL     1      47.580   5.963  12.568  0.00  0.00    +0.000 C 
ENDROOT
BRANCH   1   2
ATOM      2  N   UNL     1      46.166   6.203  12.293  0.00  0.00    +0.000 N 
ATOM      3  C   UNL     1      45.613   7.453  12.144  0.00  0.00    +0.000 A 
ATOM      4  C   UNL     1      44.299   7.298  11.767  0.00  0.00    +0.000 A 
ATOM      5  C   UNL     1      44.038   5.904  11.670  0.00  0.00    +0.000 A 
ATOM      6  C   UNL     1      42.912   5.151  11.312  0.00  0.00    +0.000 A 
ATOM      7  N   UNL     1      42.961   3.797  11.296  0.00  0.00    +0.000 NA
ATOM      8  C   UNL     1      44.115   3.187  11.639  0.00  0.00    +0.000 A 
ATOM      9  C   UNL     1      45.282   3.840  12.009  0.00  0.00    +0.000 A 
ATOM     10  C   UNL     1      45.219   5.236  12.013  0.00  0.00    +0.000 A 
ENDBRANCH   1   2
BRANCH   1  15
ATOM     11  C   UNL     1      47.653   4.751  16.191  0.00  0.00    +0.000 A 
ATOM     12  C   UNL     1      48.428   5.740  16.800  0.00  0.00    +0.000 A 
ATOM     13  C   UNL     1      48.917   6.805  16.045  0.00  0.00    +0.000 A 
ATOM     14  C   UNL     1      48.638   6.881  14.679  0.00  0.00    +0.000 A 
ATOM     15  C   UNL     1      47.871   5.891  14.047  0.00  0.00    +0.000 A 
ATOM     16  C   UNL     1      47.379   4.825  14.818  0.00  0.00    +0.000 A 
BRANCH  11  18
ATOM     17  N   UNL     1      46.698   2.784  17.588  0.00  0.00    +0.000 NA
ATOM     18  C   UNL     1      47.129   3.667  16.969  0.00  0.00    +0.000 C 
ENDBRANCH  11  18
ENDBRANCH   1  15
TORSDOF 3
ENDMDL
MODEL 9
REMARK VINA RESULT:    -5.161      2.771      6.567
REMARK INTER + INTRA:          -6.452
REMARK INTER:                  -6.258
REMARK INTRA:                  -0.193
REMARK UNBOUND:                -0.386
REMARK  Name = 
REMARK  3 active torsions:
REMARK  status: ('A' for Active; 'I' for Inactive)
REMARK    1  A    between atoms: C_2  and  C_3
REMARK    2  A    between atoms: C_7  and  C_8
REMARK    3  A    between atoms: C_8  and  N_9
REMARK                            x       y       z     vdW  Elec       q    Type
REMARK                         _______ _______ _______ _____ _____    ______ ____
ROOT
ATOM      1  C   UNL     1      46.529   4.960  13.802  0.00  0.00    +0.000 C 
ENDROOT
BRANCH   1   2
ATOM      2  N   UNL     1      47.345   6.066  13.308  0.00  0.00    +0.000 N 
ATOM      3  C   UNL     1      47.203   6.629  12.061  0.00  0.00    +0.000 A 
ATOM      4  C   UNL     1      48.038   7.720  11.987  0.00  0.00    +0.000 A 
ATOM      5  C   UNL     1      48.709   7.838  13.234  0.00  0.00    +0.000 A 
ATOM      6  C   UNL     1      49.641   8.747  13.752  0.00  0.00    +0.000 A 
ATOM      7  N   UNL     1      50.109   8.614  15.017  0.00  0.00    +0.000 NA
ATOM      8  C   UNL     1      49.664   7.584  15.766  0.00  0.00    +0.000 A 
ATOM      9  C   UNL     1      48.747   6.631  15.347  0.00  0.00    +0.000 A 
ATOM     10  C   UNL     1      48.267   6.786  14.044  0.00  0.00    +0.000 A 
ENDBRANCH   1   2
BRANCH   1  15
ATOM     11  C   UNL     1      44.323   3.513  11.038  0.00  0.00    +0.000 A 
ATOM     12  C   UNL     1      43.111   4.164  11.279  0.00  0.00    +0.000 A 
ATOM     13  C   UNL     1      43.009   5.079  12.326  0.00  0.00    +0.000 A 
ATOM     14  C   UNL     1      44.114   5.342  13.138  0.00  0.00    +0.000 A 
ATOM     15  C   UNL     1      45.336   4.689  12.918  0.00  0.00    +0.000 A 
ATOM     16  C   UNL     1      45.430   3.773  11.857  0.00  0.00    +0.000 A 
BRANCH  11  18
ATOM     17  N   UNL     1      44.526   1.831   9.073  0.00  0.00    +0.000 NA
ATOM     18  C   UNL     1      44.438   2.589   9.948  0.00  0.00    +0.000 C 
ENDBRANCH  11  18
ENDBRANCH   1  15
TORSDOF 3
ENDMDL
