MODEL 1
REMARK VINA RESULT:    -8.249      0.000      0.000
REMARK INTER + INTRA:         -13.657
REMARK INTER:                 -12.347
REMARK INTRA:                  -1.309
REMARK UNBOUND:                -1.309
REMARK  Name = 
REMARK  11 active torsions:
REMARK  status: ('A' for Active; 'I' for Inactive)
REMARK    1  A    between atoms: C_1  and  C_2
REMARK    2  A    between atoms: C_2  and  N_3
REMARK    3  A    between atoms: C_2  and  C_13
REMARK    4  A    between atoms: N_3  and  C_4
REMARK    5  A    between atoms: C_4  and  C_5
REMARK    6  A    between atoms: C_8  and  C_9
REMARK    7  A    between atoms: C_9  and  O_10
REMARK    8  A    between atoms: C_16  and  C_17
REMARK    9  A    between atoms: C_17  and  N_18
REMARK   10  A    between atoms: C_19  and  C_21
REMARK   11  A    between atoms: N_27  and  C_28
REMARK                            x       y       z     vdW  Elec       q    Type
REMARK                         _______ _______ _______ _____ _____    ______ ____
ROOT
ATOM      1  C   UNL     1      45.502   5.241  12.227  0.00  0.00    +0.000 A 
ATOM      2  C   UNL     1      45.990   6.257  11.412  0.00  0.00    +0.000 A 
ATOM      3  C   UNL     1      47.196   6.863  11.739  0.00  0.00    +0.000 A 
ATOM      4  C   UNL     1      47.875   6.431  12.866  0.00  0.00    +0.000 A 
ATOM      5  N   UNL     1      47.381   5.446  13.648  0.00  0.00    +0.000 NA
ATOM      6  N   UNL     1      46.195   4.847  13.321  0.00  0.00    +0.000 NA
ENDROOT
BRANCH   1   8
ATOM      7  C   UNL     1      43.160   4.827  13.075  0.00  0.00    +0.000 C 
ATOM      8  C   UNL     1      44.157   4.579  11.927  0.00  0.00    +0.000 C 
BRANCH   8   9
ATOM      9  N   UNL     1      44.322   3.138  11.619  0.00  0.00    +0.000 NA
ATOM     10  H   UNL     1      44.662   2.651  12.445  0.00  0.00    +0.000 HD
BRANCH   9  11
ATOM     11  C   UNL     1      45.238   2.895  10.508  0.00  0.00    +0.000 C 
BRANCH  11  12
ATOM     12  C   UNL     1      44.512   2.694   9.160  0.00  0.00    +0.000 C 
ATOM     13  C   UNL     1      44.805   3.802   8.135  0.00  0.00    +0.000 C 
ATOM     14  C   UNL     1      46.255   3.797   7.653  0.00  0.00    +0.000 C 
ATOM     15  C   UNL     1      46.684   2.423   7.110  0.00  0.00    +0.000 C 
ATOM     16  C   UNL     1      46.358   1.288   8.092  0.00  0.00    +0.000 C 
ATOM     17  C   UNL     1      44.900   1.332   8.556  0.00  0.00    +0.000 C 
BRANCH  15  18
ATOM     18  C   UNL     1      48.178   2.409   6.764  0.00  0.00    +0.000 C 
BRANCH  18  19
ATOM     19  O   UNL     1      48.401   1.798   5.500  0.00  0.00    +0.000 OA
ATOM     20  H   UNL     1      49.339   1.914   5.278  0.00  0.00    +0.000 HD
ENDBRANCH  18  19
ENDBRANCH  15  18
ENDBRANCH  11  12
ENDBRANCH   9  11
ENDBRANCH   8   9
ENDBRANCH   1   8
BRANCH   4  21
ATOM     21  C   UNL     1      49.154   7.081  13.302  0.00  0.00    +0.000 C 
BRANCH  21  22
ATOM     22  N   UNL     1      49.180   7.305  14.729  0.00  0.00    +0.000 N 
ATOM     23  C   UNL     1      50.330   7.512  15.441  0.00  0.00    +0.000 C 
ATOM     24  O   UNL     1      51.419   7.684  14.910  0.00  0.00    +0.000 OA
ATOM     25  H   UNL     1      48.300   7.185  15.209  0.00  0.00    +0.000 HD
BRANCH  23  26
ATOM     26  C   UNL     1      50.143   7.590  16.892  0.00  0.00    +0.000 A 
ATOM     27  C   UNL     1      50.475   8.737  17.596  0.00  0.00    +0.000 A 
ATOM     28  S   UNL     1      50.099   8.632  19.259  0.00  0.00    +0.000 S 
ATOM     29  C   UNL     1      49.539   7.032  19.095  0.00  0.00    +0.000 A 
ATOM     30  N   UNL     1      49.056   6.340  20.157  0.00  0.00    +0.000 NA
ATOM     31  C   UNL     1      48.686   5.130  19.886  0.00  0.00    +0.000 A 
ATOM     32  N   UNL     1      48.766   4.525  18.649  0.00  0.00    +0.000 N 
ATOM     33  C   UNL     1      48.332   3.156  18.460  0.00  0.00    +0.000 C 
ATOM     34  C   UNL     1      49.270   5.198  17.544  0.00  0.00    +0.000 A 
ATOM     35  O   UNL     1      49.369   4.675  16.436  0.00  0.00    +0.000 OA
ATOM     36  C   UNL     1      49.651   6.579  17.797  0.00  0.00    +0.000 A 
ENDBRANCH  23  26
ENDBRANCH  21  22
ENDBRANCH   4  21
TORSDOF 9
ENDMDL
MODEL 2
REMARK VINA RESULT:    -7.952      1.755      2.365
REMARK INTER + INTRA:         -13.212
REMARK INTER:                 -12.121
REMARK INTRA:                  -1.091
REMARK UNBOUND:                -1.309
REMARK  Name = 
REMARK  11 active torsions:
REMARK  status: ('A' for Active; 'I' for Inactive)
REMARK    1  A    between atoms: C_1  and  C_2
REMARK    2  A    between atoms: C_2  and  N_3
REMARK    3  A    between atoms: C_2  and  C_13
REMARK    4  A    between atoms: N_3  and  C_4
REMARK    5  A    between atoms: C_4  and  C_5
REMARK    6  A    between atoms: C_8  and  C_9
REMARK    7  A    between atoms: C_9  and  O_10
REMARK    8  A    between atoms: C_16  and  C_17
REMARK    9  A    between atoms: C_17  and  N_18
REMARK   10  A    between atoms: C_19  and  C_21
REMARK   11  A    between atoms: N_27  and  C_28
REMARK                            x       y       z     vdW  Elec       q    Type
REMARK                         _______ _______ _______ _____ _____    ______ ____
ROOT
ATOM      1  C   UNL     1      45.297   5.526  12.029  0.00  0.00    +0.000 A 
ATOM      2  C   UNL     1      45.756   6.765  11.596  0.00  0.00    +0.000 A 
ATOM      3  C   UNL     1      46.790   7.382  12.290  0.00  0.00    +0.000 A 
ATOM      4  C   UNL     1      47.331   6.737  13.390  0.00  0.00    +0.000 A 
ATOM      5  N   UNL     1      46.866   5.536  13.797  0.00  0.00    +0.000 NA
ATOM      6  N   UNL     1      45.852   4.928  13.109  0.00  0.00    +0.000 NA
ENDROOT
BRANCH   1   8
ATOM      7  C   UNL     1      42.784   5.348  11.860  0.00  0.00    +0.000 C 
ATOM      8  C   UNL     1      44.132   4.835  11.319  0.00  0.00    +0.000 C 
BRANCH   8   9
ATOM      9  N   UNL     1      44.251   3.359  11.399  0.00  0.00    +0.000 NA
ATOM     10  H   UNL     1      44.577   3.095  12.326  0.00  0.00    +0.000 HD
BRANCH   9  11
ATOM     11  C   UNL     1      45.160   2.808  10.396  0.00  0.00    +0.000 C 
BRANCH  11  12
ATOM     12  C   UNL     1      44.463   2.510   9.050  0.00  0.00    +0.000 C 
ATOM     13  C   UNL     1      44.608   3.643   8.022  0.00  0.00    +0.000 C 
ATOM     14  C   UNL     1      46.046   3.824   7.536  0.00  0.00    +0.000 C 
ATOM     15  C   UNL     1      46.648   2.515   6.997  0.00  0.00    +0.000 C 
ATOM     16  C   UNL     1      46.474   1.352   7.982  0.00  0.00    +0.000 C 
ATOM     17  C   UNL     1      45.023   1.207   8.449  0.00  0.00    +0.000 C 
BRANCH  15  18
ATOM     18  C   UNL     1      48.130   2.694   6.647  0.00  0.00    +0.000 C 
BRANCH  18  19
ATOM     19  O   UNL     1      48.583   1.647   5.800  0.00  0.00    +0.000 OA
ATOM     20  H   UNL     1      48.558   1.975   4.886  0.00  0.00    +0.000 HD
ENDBRANCH  18  19
ENDBRANCH  15  18
ENDBRANCH  11  12
ENDBRANCH   9  11
ENDBRANCH   8   9
ENDBRANCH   1   8
BRANCH   4  21
ATOM     21  C   UNL     1      48.410   7.374  14.213  0.00  0.00    +0.000 C 
BRANCH  21  22
ATOM     22  N   UNL     1      48.290   7.030  15.611  0.00  0.00    +0.000 N 
ATOM     23  C   UNL     1      49.313   6.504  16.350  0.00  0.00    +0.000 C 
ATOM     24  O   UNL     1      50.462   6.427  15.937  0.00  0.00    +0.000 OA
ATOM     25  H   UNL     1      47.360   7.089  15.999  0.00  0.00    +0.000 HD
BRANCH  23  26
ATOM     26  C   UNL     1      48.941   6.108  17.712  0.00  0.00    +0.000 A 
ATOM     27  C   UNL     1      49.136   4.810  18.158  0.00  0.00    +0.000 A 
ATOM     28  S   UNL     1      48.705   4.596  19.797  0.00  0.00    +0.000 S 
ATOM     29  C   UNL     1      48.191   6.214  19.937  0.00  0.00    +0.000 A 
ATOM     30  N   UNL     1      47.708   6.702  21.107  0.00  0.00    +0.000 NA
ATOM     31  C   UNL     1      47.338   7.941  21.060  0.00  0.00    +0.000 A 
ATOM     32  N   UNL     1      47.385   8.749  19.943  0.00  0.00    +0.000 N 
ATOM     33  C   UNL     1      46.932  10.124  19.999  0.00  0.00    +0.000 C 
ATOM     34  C   UNL     1      47.858   8.277  18.725  0.00  0.00    +0.000 A 
ATOM     35  O   UNL     1      47.891   8.972  17.712  0.00  0.00    +0.000 OA
ATOM     36  C   UNL     1      48.331   6.903  18.751  0.00  0.00    +0.000 A 
ENDBRANCH  23  26
ENDBRANCH  21  22
ENDBRANCH   4  21
TORSDOF 9
ENDMDL
MODEL 3
REMARK VINA RESULT:    -7.693      3.086      8.809
REMARK INTER + INTRA:         -12.826
REMARK INTER:                 -10.609
REMARK INTRA:                  -2.216
REMARK UNBOUND:                -1.309
REMARK  Name = 
REMARK  11 active torsions:
REMARK  status: ('A' for Active; 'I' for Inactive)
REMARK    1  A    between atoms: C_1  and  C_2
REMARK    2  A    between atoms: C_2  and  N_3
REMARK    3  A    between atoms: C_2  and  C_13
REMARK    4  A    between atoms: N_3  and  C_4
REMARK    5  A    between atoms: C_4  and  C_5
REMARK    6  A    between atoms: C_8  and  C_9
REMARK    7  A    between atoms: C_9  and  O_10
REMARK    8  A    between atoms: C_16  and  C_17
REMARK    9  A    between atoms: C_17  and  N_18
REMARK   10  A    between atoms: C_19  and  C_21
REMARK   11  A    between atoms: N_27  and  C_28
REMARK                            x       y       z     vdW  Elec       q    Type
REMARK                         _______ _______ _______ _____ _____    ______ ____
ROOT
ATOM      1  C   UNL     1      49.568   7.570  15.708  0.00  0.00    +0.000 A 
ATOM      2  C   UNL     1      48.732   8.677  15.607  0.00  0.00    +0.000 A 
ATOM      3  C   UNL     1      47.919   8.809  14.489  0.00  0.00    +0.000 A 
ATOM      4  C   UNL     1      47.967   7.829  13.511  0.00  0.00    +0.000 A 
ATOM      5  N   UNL     1      48.791   6.765  13.625  0.00  0.00    +0.000 NA
ATOM      6  N   UNL     1      49.587   6.634  14.730  0.00  0.00    +0.000 NA
ENDROOT
BRANCH   1   8
ATOM      7  C   UNL     1      51.768   6.617  16.501  0.00  0.00    +0.000 C 
ATOM      8  C   UNL     1      50.510   7.410  16.902  0.00  0.00    +0.000 C 
BRANCH   8   9
ATOM      9  N   UNL     1      49.809   6.815  18.065  0.00  0.00    +0.000 NA
ATOM     10  H   UNL     1      49.988   7.378  18.893  0.00  0.00    +0.000 HD
BRANCH   9  11
ATOM     11  C   UNL     1      50.212   5.435  18.327  0.00  0.00    +0.000 C 
BRANCH  11  12
ATOM     12  C   UNL     1      49.073   4.577  18.919  0.00  0.00    +0.000 C 
ATOM     13  C   UNL     1      47.674   5.164  18.675  0.00  0.00    +0.000 C 
ATOM     14  C   UNL     1      47.271   5.149  17.201  0.00  0.00    +0.000 C 
ATOM     15  C   UNL     1      47.393   3.748  16.577  0.00  0.00    +0.000 C 
ATOM     16  C   UNL     1      48.764   3.115  16.847  0.00  0.00    +0.000 C 
ATOM     17  C   UNL     1      49.133   3.154  18.332  0.00  0.00    +0.000 C 
BRANCH  15  18
ATOM     18  C   UNL     1      47.117   3.791  15.070  0.00  0.00    +0.000 C 
BRANCH  18  19
ATOM     19  O   UNL     1      46.661   5.077  14.672  0.00  0.00    +0.000 OA
ATOM     20  H   UNL     1      45.762   4.975  14.319  0.00  0.00    +0.000 HD
ENDBRANCH  18  19
ENDBRANCH  15  18
ENDBRANCH  11  12
ENDBRANCH   9  11
ENDBRANCH   8   9
ENDBRANCH   1   8
BRANCH   4  21
ATOM     21  C   UNL     1      47.156   7.942  12.255  0.00  0.00    +0.000 C 
BRANCH  21  22
ATOM     22  N   UNL     1      46.499   6.697  11.930  0.00  0.00    +0.000 N 
ATOM     23  C   UNL     1      45.167   6.601  11.632  0.00  0.00    +0.000 C 
ATOM     24  O   UNL     1      44.452   7.579  11.458  0.00  0.00    +0.000 OA
ATOM     25  H   UNL     1      47.055   5.863  12.048  0.00  0.00    +0.000 HD
BRANCH  23  26
ATOM     26  C   UNL     1      44.678   5.230  11.459  0.00  0.00    +0.000 A 
ATOM     27  C   UNL     1      43.959   4.597  12.460  0.00  0.00    +0.000 A 
ATOM     28  S   UNL     1      43.422   3.037  12.012  0.00  0.00    +0.000 S 
ATOM     29  C   UNL     1      44.186   3.144  10.493  0.00  0.00    +0.000 A 
ATOM     30  N   UNL     1      44.112   2.132   9.593  0.00  0.00    +0.000 NA
ATOM     31  C   UNL     1      44.758   2.345   8.491  0.00  0.00    +0.000 A 
ATOM     32  N   UNL     1      45.495   3.473   8.200  0.00  0.00    +0.000 N 
ATOM     33  C   UNL     1      46.190   3.603   6.936  0.00  0.00    +0.000 C 
ATOM     34  C   UNL     1      45.606   4.522   9.106  0.00  0.00    +0.000 A 
ATOM     35  O   UNL     1      46.273   5.528   8.876  0.00  0.00    +0.000 OA
ATOM     36  C   UNL     1      44.853   4.342  10.336  0.00  0.00    +0.000 A 
ENDBRANCH  23  26
ENDBRANCH  21  22
ENDBRANCH   4  21
TORSDOF 9
ENDMDL
MODEL 4
REMARK VINA RESULT:    -7.624      1.786      1.961
REMARK INTER + INTRA:         -12.722
REMARK INTER:                 -11.434
REMARK INTRA:                  -1.288
REMARK UNBOUND:                -1.309
REMARK  Name = 
REMARK  11 active torsions:
REMARK  status: ('A' for Active; 'I' for Inactive)
REMARK    1  A    between atoms: C_1  and  C_2
REMARK    2  A    between atoms: C_2  and  N_3
REMARK    3  A    between atoms: C_2  and  C_13
REMARK    4  A    between atoms: N_3  and  C_4
REMARK    5  A    between atoms: C_4  and  C_5
REMARK    6  A    between atoms: C_8  and  C_9
REMARK    7  A    between atoms: C_9  and  O_10
REMARK    8  A    between atoms: C_16  and  C_17
REMARK    9  A    between atoms: C_17  and  N_18
REMARK   10  A    between atoms: C_19  and  C_21
REMARK   11  A    between atoms: N_27  and  C_28
REMARK                            x       y       z     vdW  Elec       q    Type
REMARK                         _______ _______ _______ _____ _____    ______ ____
ROOT
ATOM      1  C   UNL     1      46.192   5.789  12.338  0.00  0.00    +0.000 A 
ATOM      2  C   UNL     1      46.283   7.047  11.752  0.00  0.00    +0.000 A 
ATOM      3  C   UNL     1      47.434   7.800  11.948  0.00  0.00    +0.000 A 
ATOM      4  C   UNL     1      48.455   7.269  12.719  0.00  0.00    +0.000 A 
ATOM      5  N   UNL     1      48.343   6.047  13.284  0.00  0.00    +0.000 NA
ATOM      6  N   UNL     1      47.212   5.305  13.085  0.00  0.00    +0.000 NA
ENDROOT
BRANCH   1   8
ATOM      7  C   UNL     1      45.033   3.645  12.998  0.00  0.00    +0.000 C 
ATOM      8  C   UNL     1      44.925   4.948  12.184  0.00  0.00    +0.000 C 
BRANCH   8   9
ATOM      9  N   UNL     1      44.612   4.701  10.755  0.00  0.00    +0.000 NA
ATOM     10  H   UNL     1      43.603   4.710  10.622  0.00  0.00    +0.000 HD
BRANCH   9  11
ATOM     11  C   UNL     1      45.149   3.433  10.266  0.00  0.00    +0.000 C 
BRANCH  11  12
ATOM     12  C   UNL     1      44.462   2.947   8.971  0.00  0.00    +0.000 C 
ATOM     13  C   UNL     1      44.777   3.820   7.746  0.00  0.00    +0.000 C 
ATOM     14  C   UNL     1      46.240   3.732   7.313  0.00  0.00    +0.000 C 
ATOM     15  C   UNL     1      46.692   2.280   7.081  0.00  0.00    +0.000 C 
ATOM     16  C   UNL     1      46.346   1.372   8.268  0.00  0.00    +0.000 C 
ATOM     17  C   UNL     1      44.876   1.493   8.675  0.00  0.00    +0.000 C 
BRANCH  15  18
ATOM     18  C   UNL     1      48.195   2.213   6.783  0.00  0.00    +0.000 C 
BRANCH  18  19
ATOM     19  O   UNL     1      48.431   1.759   5.457  0.00  0.00    +0.000 OA
ATOM     20  H   UNL     1      48.487   0.790   5.483  0.00  0.00    +0.000 HD
ENDBRANCH  18  19
ENDBRANCH  15  18
ENDBRANCH  11  12
ENDBRANCH   9  11
ENDBRANCH   8   9
ENDBRANCH   1   8
BRANCH   4  21
ATOM     21  C   UNL     1      49.699   8.053  13.012  0.00  0.00    +0.000 C 
BRANCH  21  22
ATOM     22  N   UNL     1      50.533   7.387  13.984  0.00  0.00    +0.000 N 
ATOM     23  C   UNL     1      50.912   7.954  15.171  0.00  0.00    +0.000 C 
ATOM     24  O   UNL     1      50.447   9.009  15.582  0.00  0.00    +0.000 OA
ATOM     25  H   UNL     1      50.931   6.506  13.693  0.00  0.00    +0.000 HD
BRANCH  23  26
ATOM     26  C   UNL     1      51.863   7.158  15.951  0.00  0.00    +0.000 A 
ATOM     27  C   UNL     1      53.213   7.471  15.967  0.00  0.00    +0.000 A 
ATOM     28  S   UNL     1      54.121   6.461  17.004  0.00  0.00    +0.000 S 
ATOM     29  C   UNL     1      52.746   5.542  17.412  0.00  0.00    +0.000 A 
ATOM     30  N   UNL     1      52.824   4.504  18.283  0.00  0.00    +0.000 NA
ATOM     31  C   UNL     1      51.705   3.886  18.482  0.00  0.00    +0.000 A 
ATOM     32  N   UNL     1      50.502   4.190  17.878  0.00  0.00    +0.000 N 
ATOM     33  C   UNL     1      49.309   3.422  18.167  0.00  0.00    +0.000 C 
ATOM     34  C   UNL     1      50.391   5.235  16.970  0.00  0.00    +0.000 A 
ATOM     35  O   UNL     1      49.335   5.513  16.405  0.00  0.00    +0.000 OA
ATOM     36  C   UNL     1      51.617   5.987  16.758  0.00  0.00    +0.000 A 
ENDBRANCH  23  26
ENDBRANCH  21  22
ENDBRANCH   4  21
TORSDOF 9
ENDMDL
MODEL 5
REMARK VINA RESULT:    -7.009      3.874      9.225
REMARK INTER + INTRA:         -11.801
REMARK INTER:                  -9.486
REMARK INTRA:                  -2.315
REMARK UNBOUND:                -1.309
REMARK  Name = 
REMARK  11 active torsions:
REMARK  status: ('A' for Active; 'I' for Inactive)
REMARK    1  A    between atoms: C_1  and  C_2
REMARK    2  A    between atoms: C_2  and  N_3
REMARK    3  A    between atoms: C_2  and  C_13
REMARK    4  A    between atoms: N_3  and  C_4
REMARK    5  A    between atoms: C_4  and  C_5
REMARK    6  A    between atoms: C_8  and  C_9
REMARK    7  A    between atoms: C_9  and  O_10
REMARK    8  A    between atoms: C_16  and  C_17
REMARK    9  A    between atoms: C_17  and  N_18
REMARK   10  A    between atoms: C_19  and  C_21
REMARK   11  A    between atoms: N_27  and  C_28
REMARK                            x       y       z     vdW  Elec       q    Type
REMARK                         _______ _______ _______ _____ _____    ______ ____
ROOT
ATOM      1  C   UNL     1      51.138   3.872  18.549  0.00  0.00    +0.000 A 
ATOM      2  C   UNL     1      50.088   4.397  19.295  0.00  0.00    +0.000 A 
ATOM      3  C   UNL     1      48.789   4.258  18.823  0.00  0.00    +0.000 A 
ATOM      4  C   UNL     1      48.584   3.597  17.623  0.00  0.00    +0.000 A 
ATOM      5  N   UNL     1      49.618   3.100  16.911  0.00  0.00    +0.000 NA
ATOM      6  N   UNL     1      50.896   3.233  17.381  0.00  0.00    +0.000 NA
ENDROOT
BRANCH   1   8
ATOM      7  C   UNL     1      52.638   4.438  20.500  0.00  0.00    +0.000 C 
ATOM      8  C   UNL     1      52.585   4.043  19.012  0.00  0.00    +0.000 C 
BRANCH   8   9
ATOM      9  N   UNL     1      53.320   4.995  18.145  0.00  0.00    +0.000 NA
ATOM     10  H   UNL     1      54.316   4.788  18.182  0.00  0.00    +0.000 HD
BRANCH   9  11
ATOM     11  C   UNL     1      53.106   6.390  18.522  0.00  0.00    +0.000 C 
BRANCH  11  12
ATOM     12  C   UNL     1      52.969   7.329  17.304  0.00  0.00    +0.000 C 
ATOM     13  C   UNL     1      51.983   6.817  16.242  0.00  0.00    +0.000 C 
ATOM     14  C   UNL     1      50.535   6.810  16.730  0.00  0.00    +0.000 C 
ATOM     15  C   UNL     1      50.095   8.183  17.267  0.00  0.00    +0.000 C 
ATOM     16  C   UNL     1      51.088   8.745  18.294  0.00  0.00    +0.000 C 
ATOM     17  C   UNL     1      52.526   8.728  17.771  0.00  0.00    +0.000 C 
BRANCH  15  18
ATOM     18  C   UNL     1      48.689   8.112  17.875  0.00  0.00    +0.000 C 
BRANCH  18  19
ATOM     19  O   UNL     1      47.907   7.114  17.233  0.00  0.00    +0.000 OA
ATOM     20  H   UNL     1      47.345   6.700  17.908  0.00  0.00    +0.000 HD
ENDBRANCH  18  19
ENDBRANCH  15  18
ENDBRANCH  11  12
ENDBRANCH   9  11
ENDBRANCH   8   9
ENDBRANCH   1   8
BRANCH   4  21
ATOM     21  C   UNL     1      47.212   3.462  17.033  0.00  0.00    +0.000 C 
BRANCH  21  22
ATOM     22  N   UNL     1      46.956   4.477  16.038  0.00  0.00    +0.000 N 
ATOM     23  C   UNL     1      47.173   4.296  14.700  0.00  0.00    +0.000 C 
ATOM     24  O   UNL     1      47.450   3.208  14.212  0.00  0.00    +0.000 OA
ATOM     25  H   UNL     1      46.713   5.390  16.394  0.00  0.00    +0.000 HD
BRANCH  23  26
ATOM     26  C   UNL     1      46.970   5.494  13.881  0.00  0.00    +0.000 A 
ATOM     27  C   UNL     1      47.931   6.492  13.824  0.00  0.00    +0.000 A 
ATOM     28  S   UNL     1      47.520   7.754  12.748  0.00  0.00    +0.000 S 
ATOM     29  C   UNL     1      46.023   7.032  12.376  0.00  0.00    +0.000 A 
ATOM     30  N   UNL     1      45.165   7.601  11.493  0.00  0.00    +0.000 NA
ATOM     31  C   UNL     1      44.059   6.950  11.324  0.00  0.00    +0.000 A 
ATOM     32  N   UNL     1      43.709   5.783  11.969  0.00  0.00    +0.000 N 
ATOM     33  C   UNL     1      42.436   5.142  11.712  0.00  0.00    +0.000 C 
ATOM     34  C   UNL     1      44.557   5.181  12.891  0.00  0.00    +0.000 A 
ATOM     35  O   UNL     1      44.259   4.152  13.493  0.00  0.00    +0.000 OA
ATOM     36  C   UNL     1      45.832   5.856  13.071  0.00  0.00    +0.000 A 
ENDBRANCH  23  26
ENDBRANCH  21  22
ENDBRANCH   4  21
TORSDOF 9
ENDMDL
MODEL 6
REMARK VINA RESULT:    -6.681      2.214      3.122
REMARK INTER + INTRA:         -11.310
REMARK INTER:                  -9.979
REMARK INTRA:                  -1.331
REMARK UNBOUND:                -1.309
REMARK  Name = 
REMARK  11 active torsions:
REMARK  status: ('A' for Active; 'I' for Inactive)
REMARK    1  A    between atoms: C_1  and  C_2
REMARK    2  A    between atoms: C_2  and  N_3
REMARK    3  A    between atoms: C_2  and  C_13
REMARK    4  A    between atoms: N_3  and  C_4
REMARK    5  A    between atoms: C_4  and  C_5
REMARK    6  A    between atoms: C_8  and  C_9
REMARK    7  A    between atoms: C_9  and  O_10
REMARK    8  A    between atoms: C_16  and  C_17
REMARK    9  A    between atoms: C_17  and  N_18
REMARK   10  A    between atoms: C_19  and  C_21
REMARK   11  A    between atoms: N_27  and  C_28
REMARK                            x       y       z     vdW  Elec       q    Type
REMARK                         _______ _______ _______ _____ _____    ______ ____
ROOT
ATOM      1  C   UNL     1      46.897   7.760  12.707  0.00  0.00    +0.000 A 
ATOM      2  C   UNL     1      47.974   7.207  12.022  0.00  0.00    +0.000 A 
ATOM      3  C   UNL     1      49.249   7.331  12.558  0.00  0.00    +0.000 A 
ATOM      4  C   UNL     1      49.404   8.000  13.761  0.00  0.00    +0.000 A 
ATOM      5  N   UNL     1      48.345   8.534  14.407  0.00  0.00    +0.000 NA
ATOM      6  N   UNL     1      47.089   8.406  13.880  0.00  0.00    +0.000 NA
ENDROOT
BRANCH   1   8
ATOM      7  C   UNL     1      44.967   9.088  11.765  0.00  0.00    +0.000 C 
ATOM      8  C   UNL     1      45.484   7.683  12.128  0.00  0.00    +0.000 C 
BRANCH   8   9
ATOM      9  N   UNL     1      44.566   6.959  13.041  0.00  0.00    +0.000 NA
ATOM     10  H   UNL     1      44.587   7.395  13.960  0.00  0.00    +0.000 HD
BRANCH   9  11
ATOM     11  C   UNL     1      44.899   5.542  13.175  0.00  0.00    +0.000 C 
BRANCH  11  12
ATOM     12  C   UNL     1      43.707   4.611  12.864  0.00  0.00    +0.000 C 
ATOM     13  C   UNL     1      42.771   5.157  11.773  0.00  0.00    +0.000 C 
ATOM     14  C   UNL     1      43.430   5.206  10.395  0.00  0.00    +0.000 C 
ATOM     15  C   UNL     1      44.017   3.846   9.981  0.00  0.00    +0.000 C 
ATOM     16  C   UNL     1      44.917   3.251  11.072  0.00  0.00    +0.000 C 
ATOM     17  C   UNL     1      44.225   3.225  12.437  0.00  0.00    +0.000 C 
BRANCH  15  18
ATOM     18  C   UNL     1      44.789   3.959   8.661  0.00  0.00    +0.000 C 
BRANCH  18  19
ATOM     19  O   UNL     1      45.553   5.157   8.619  0.00  0.00    +0.000 OA
ATOM     20  H   UNL     1      46.399   4.982   9.062  0.00  0.00    +0.000 HD
ENDBRANCH  18  19
ENDBRANCH  15  18
ENDBRANCH  11  12
ENDBRANCH   9  11
ENDBRANCH   8   9
ENDBRANCH   1   8
BRANCH   4  21
ATOM     21  C   UNL     1      50.760   8.215  14.365  0.00  0.00    +0.000 C 
BRANCH  21  22
ATOM     22  N   UNL     1      50.831   7.706  15.714  0.00  0.00    +0.000 N 
ATOM     23  C   UNL     1      51.881   6.969  16.189  0.00  0.00    +0.000 C 
ATOM     24  O   UNL     1      52.921   6.811  15.564  0.00  0.00    +0.000 OA
ATOM     25  H   UNL     1      49.999   7.823  16.273  0.00  0.00    +0.000 HD
BRANCH  23  26
ATOM     26  C   UNL     1      51.694   6.443  17.545  0.00  0.00    +0.000 A 
ATOM     27  C   UNL     1      52.646   6.650  18.530  0.00  0.00    +0.000 A 
ATOM     28  S   UNL     1      52.183   6.019  20.049  0.00  0.00    +0.000 S 
ATOM     29  C   UNL     1      50.726   5.402  19.417  0.00  0.00    +0.000 A 
ATOM     30  N   UNL     1      49.839   4.742  20.204  0.00  0.00    +0.000 NA
ATOM     31  C   UNL     1      48.787   4.313  19.583  0.00  0.00    +0.000 A 
ATOM     32  N   UNL     1      48.536   4.461  18.235  0.00  0.00    +0.000 N 
ATOM     33  C   UNL     1      47.327   3.929  17.640  0.00  0.00    +0.000 C 
ATOM     34  C   UNL     1      49.430   5.117  17.398  0.00  0.00    +0.000 A 
ATOM     35  O   UNL     1      49.237   5.244  16.191  0.00  0.00    +0.000 OA
ATOM     36  C   UNL     1      50.601   5.658  18.068  0.00  0.00    +0.000 A 
ENDBRANCH  23  26
ENDBRANCH  21  22
ENDBRANCH   4  21
TORSDOF 9
ENDMDL
MODEL 7
REMARK VINA RESULT:    -6.410      4.194      6.249
REMARK INTER + INTRA:         -10.904
REMARK INTER:                  -9.602
REMARK INTRA:                  -1.302
REMARK UNBOUND:                -1.309
REMARK  Name = 
REMARK  11 active torsions:
REMARK  status: ('A' for Active; 'I' for Inactive)
REMARK    1  A    between atoms: C_1  and  C_2
REMARK    2  A    between atoms: C_2  and  N_3
REMARK    3  A    between atoms: C_2  and  C_13
REMARK    4  A    between atoms: N_3  and  C_4
REMARK    5  A    between atoms: C_4  and  C_5
REMARK    6  A    between atoms: C_8  and  C_9
REMARK    7  A    between atoms: C_9  and  O_10
REMARK    8  A    between atoms: C_16  and  C_17
REMARK    9  A    between atoms: C_17  and  N_18
REMARK   10  A    between atoms: C_19  and  C_21
REMARK   11  A    between atoms: N_27  and  C_28
REMARK                            x       y       z     vdW  Elec       q    Type
REMARK                         _______ _______ _______ _____ _____    ______ ____
ROOT
ATOM      1  C   UNL     1      46.792   6.254  12.529  0.00  0.00    +0.000 A 
ATOM      2  C   UNL     1      47.475   6.877  11.491  0.00  0.00    +0.000 A 
ATOM      3  C   UNL     1      48.505   7.759  11.795  0.00  0.00    +0.000 A 
ATOM      4  C   UNL     1      48.817   7.986  13.125  0.00  0.00    +0.000 A 
ATOM      5  N   UNL     1      48.136   7.375  14.119  0.00  0.00    +0.000 NA
ATOM      6  N   UNL     1      47.127   6.502  13.817  0.00  0.00    +0.000 NA
ENDROOT
BRANCH   1   8
ATOM      7  C   UNL     1      45.725   4.038  13.100  0.00  0.00    +0.000 C 
ATOM      8  C   UNL     1      45.624   5.310  12.238  0.00  0.00    +0.000 C 
BRANCH   8   9
ATOM      9  N   UNL     1      45.523   5.009  10.790  0.00  0.00    +0.000 NA
ATOM     10  H   UNL     1      44.742   5.525  10.390  0.00  0.00    +0.000 HD
BRANCH   9  11
ATOM     11  C   UNL     1      45.346   3.585  10.516  0.00  0.00    +0.000 C 
BRANCH  11  12
ATOM     12  C   UNL     1      44.525   3.314   9.236  0.00  0.00    +0.000 C 
ATOM     13  C   UNL     1      45.011   4.112   8.016  0.00  0.00    +0.000 C 
ATOM     14  C   UNL     1      46.395   3.676   7.534  0.00  0.00    +0.000 C 
ATOM     15  C   UNL     1      46.468   2.164   7.263  0.00  0.00    +0.000 C 
ATOM     16  C   UNL     1      45.941   1.340   8.446  0.00  0.00    +0.000 C 
ATOM     17  C   UNL     1      44.558   1.811   8.903  0.00  0.00    +0.000 C 
BRANCH  15  18
ATOM     18  C   UNL     1      47.899   1.735   6.916  0.00  0.00    +0.000 C 
BRANCH  18  19
ATOM     19  O   UNL     1      48.635   2.819   6.365  0.00  0.00    +0.000 OA
ATOM     20  H   UNL     1      48.305   2.972   5.465  0.00  0.00    +0.000 HD
ENDBRANCH  18  19
ENDBRANCH  15  18
ENDBRANCH  11  12
ENDBRANCH   9  11
ENDBRANCH   8   9
ENDBRANCH   1   8
BRANCH   4  21
ATOM     21  C   UNL     1      49.880   8.967  13.520  0.00  0.00    +0.000 C 
BRANCH  21  22
ATOM     22  N   UNL     1      50.724   9.319  12.402  0.00  0.00    +0.000 N 
ATOM     23  C   UNL     1      52.082   9.157  12.400  0.00  0.00    +0.000 C 
ATOM     24  O   UNL     1      52.681   8.554  13.280  0.00  0.00    +0.000 OA
ATOM     25  H   UNL     1      50.269   9.810  11.646  0.00  0.00    +0.000 HD
BRANCH  23  26
ATOM     26  C   UNL     1      52.759   9.697  11.218  0.00  0.00    +0.000 A 
ATOM     27  C   UNL     1      53.324  10.963  11.233  0.00  0.00    +0.000 A 
ATOM     28  S   UNL     1      54.128  11.353   9.777  0.00  0.00    +0.000 S 
ATOM     29  C   UNL     1      53.692   9.867   9.067  0.00  0.00    +0.000 A 
ATOM     30  N   UNL     1      54.076   9.548   7.805  0.00  0.00    +0.000 NA
ATOM     31  C   UNL     1      53.655   8.396   7.391  0.00  0.00    +0.000 A 
ATOM     32  N   UNL     1      52.864   7.526   8.111  0.00  0.00    +0.000 N 
ATOM     33  C   UNL     1      52.439   6.263   7.544  0.00  0.00    +0.000 C 
ATOM     34  C   UNL     1      52.439   7.828   9.399  0.00  0.00    +0.000 A 
ATOM     35  O   UNL     1      51.718   7.078  10.053  0.00  0.00    +0.000 OA
ATOM     36  C   UNL     1      52.933   9.092   9.919  0.00  0.00    +0.000 A 
ENDBRANCH  23  26
ENDBRANCH  21  22
ENDBRANCH   4  21
TORSDOF 9
ENDMDL
MODEL 8
REMARK VINA RESULT:    -6.289      4.044      9.434
REMARK INTER + INTRA:         -10.723
REMARK INTER:                  -8.886
REMARK INTRA:                  -1.837
REMARK UNBOUND:                -1.309
REMARK  Name = 
REMARK  11 active torsions:
REMARK  status: ('A' for Active; 'I' for Inactive)
REMARK    1  A    between atoms: C_1  and  C_2
REMARK    2  A    between atoms: C_2  and  N_3
REMARK    3  A    between atoms: C_2  and  C_13
REMARK    4  A    between atoms: N_3  and  C_4
REMARK    5  A    between atoms: C_4  and  C_5
REMARK    6  A    between atoms: C_8  and  C_9
REMARK    7  A    between atoms: C_9  and  O_10
REMARK    8  A    between atoms: C_16  and  C_17
REMARK    9  A    between atoms: C_17  and  N_18
REMARK   10  A    between atoms: C_19  and  C_21
REMARK   11  A    between atoms: N_27  and  C_28
REMARK                            x       y       z     vdW  Elec       q    Type
REMARK                         _______ _______ _______ _____ _____    ______ ____
ROOT
ATOM      1  C   UNL     1      51.443   4.517  17.403  0.00  0.00    +0.000 A 
ATOM      2  C   UNL     1      51.064   3.196  17.615  0.00  0.00    +0.000 A 
ATOM      3  C   UNL     1      49.744   2.828  17.387  0.00  0.00    +0.000 A 
ATOM      4  C   UNL     1      48.849   3.792  16.952  0.00  0.00    +0.000 A 
ATOM      5  N   UNL     1      49.237   5.071  16.758  0.00  0.00    +0.000 NA
ATOM      6  N   UNL     1      50.538   5.430  16.977  0.00  0.00    +0.000 NA
ENDROOT
BRANCH   1   8
ATOM      7  C   UNL     1      53.585   3.984  18.629  0.00  0.00    +0.000 C 
ATOM      8  C   UNL     1      52.875   4.972  17.684  0.00  0.00    +0.000 C 
BRANCH   8   9
ATOM      9  N   UNL     1      52.909   6.366  18.190  0.00  0.00    +0.000 NA
ATOM     10  H   UNL     1      53.867   6.708  18.179  0.00  0.00    +0.000 HD
BRANCH   9  11
ATOM     11  C   UNL     1      52.369   6.494  19.541  0.00  0.00    +0.000 C 
BRANCH  11  12
ATOM     12  C   UNL     1      52.127   7.961  19.957  0.00  0.00    +0.000 C 
ATOM     13  C   UNL     1      51.877   8.902  18.768  0.00  0.00    +0.000 C 
ATOM     14  C   UNL     1      50.559   8.615  18.050  0.00  0.00    +0.000 C 
ATOM     15  C   UNL     1      49.359   8.618  19.013  0.00  0.00    +0.000 C 
ATOM     16  C   UNL     1      49.599   7.726  20.238  0.00  0.00    +0.000 C 
ATOM     17  C   UNL     1      50.931   8.040  20.924  0.00  0.00    +0.000 C 
BRANCH  15  18
ATOM     18  C   UNL     1      48.074   8.192  18.292  0.00  0.00    +0.000 C 
BRANCH  18  19
ATOM     19  O   UNL     1      48.352   7.767  16.965  0.00  0.00    +0.000 OA
ATOM     20  H   UNL     1      49.317   7.755  16.856  0.00  0.00    +0.000 HD
ENDBRANCH  18  19
ENDBRANCH  15  18
ENDBRANCH  11  12
ENDBRANCH   9  11
ENDBRANCH   8   9
ENDBRANCH   1   8
BRANCH   4  21
ATOM     21  C   UNL     1      47.400   3.471  16.741  0.00  0.00    +0.000 C 
BRANCH  21  22
ATOM     22  N   UNL     1      46.795   4.348  15.765  0.00  0.00    +0.000 N 
ATOM     23  C   UNL     1      46.814   4.108  14.419  0.00  0.00    +0.000 C 
ATOM     24  O   UNL     1      47.204   3.053  13.936  0.00  0.00    +0.000 OA
ATOM     25  H   UNL     1      46.448   5.227  16.120  0.00  0.00    +0.000 HD
BRANCH  23  26
ATOM     26  C   UNL     1      46.256   5.187  13.599  0.00  0.00    +0.000 A 
ATOM     27  C   UNL     1      45.014   5.059  12.997  0.00  0.00    +0.000 A 
ATOM     28  S   UNL     1      44.531   6.467  12.158  0.00  0.00    +0.000 S 
ATOM     29  C   UNL     1      45.991   7.262  12.527  0.00  0.00    +0.000 A 
ATOM     30  N   UNL     1      46.229   8.532  12.110  0.00  0.00    +0.000 NA
ATOM     31  C   UNL     1      47.388   8.999  12.447  0.00  0.00    +0.000 A 
ATOM     32  N   UNL     1      48.355   8.313  13.152  0.00  0.00    +0.000 N 
ATOM     33  C   UNL     1      49.626   8.931  13.466  0.00  0.00    +0.000 C 
ATOM     34  C   UNL     1      48.151   7.007  13.579  0.00  0.00    +0.000 A 
ATOM     35  O   UNL     1      49.005   6.369  14.192  0.00  0.00    +0.000 OA
ATOM     36  C   UNL     1      46.840   6.463  13.264  0.00  0.00    +0.000 A 
ENDBRANCH  23  26
ENDBRANCH  21  22
ENDBRANCH   4  21
TORSDOF 9
ENDMDL
MODEL 9
REMARK VINA RESULT:    -5.890      3.939      8.840
REMARK INTER + INTRA:         -10.126
REMARK INTER:                  -8.100
REMARK INTRA:                  -2.026
REMARK UNBOUND:                -1.309
REMARK  Name = 
REMARK  11 active torsions:
REMARK  status: ('A' for Active; 'I' for Inactive)
REMARK    1  A    between atoms: C_1  and  C_2
REMARK    2  A    between atoms: C_2  and  N_3
REMARK    3  A    between atoms: C_2  and  C_13
REMARK    4  A    between atoms: N_3  and  C_4
REMARK    5  A    between atoms: C_4  and  C_5
REMARK    6  A    between atoms: C_8  and  C_9
REMARK    7  A    between atoms: C_9  and  O_10
REMARK    8  A    between atoms: C_16  and  C_17
REMARK    9  A    between atoms: C_17  and  N_18
REMARK   10  A    between atoms: C_19  and  C_21
REMARK   11  A    between atoms: N_27  and  C_28
REMARK                            x       y       z     vdW  Elec       q    Type
REMARK                         _______ _______ _______ _____ _____    ______ ____
ROOT
ATOM      1  C   UNL     1      48.308   3.306  16.559  0.00  0.00    +0.000 A 
ATOM      2  C   UNL     1      47.557   4.474  16.640  0.00  0.00    +0.000 A 
ATOM      3  C   UNL     1      46.792   4.862  15.547  0.00  0.00    +0.000 A 
ATOM      4  C   UNL     1      46.802   4.068  14.412  0.00  0.00    +0.000 A 
ATOM      5  N   UNL     1      47.543   2.940  14.352  0.00  0.00    +0.000 NA
ATOM      6  N   UNL     1      48.291   2.557  15.431  0.00  0.00    +0.000 NA
ENDROOT
BRANCH   1   8
ATOM      7  C   UNL     1      48.827   3.632  19.008  0.00  0.00    +0.000 C 
ATOM      8  C   UNL     1      49.197   2.868  17.723  0.00  0.00    +0.000 C 
BRANCH   8   9
ATOM      9  N   UNL     1      50.635   2.994  17.381  0.00  0.00    +0.000 NA
ATOM     10  H   UNL     1      51.088   2.089  17.484  0.00  0.00    +0.000 HD
BRANCH   9  11
ATOM     11  C   UNL     1      51.332   3.977  18.206  0.00  0.00    +0.000 C 
BRANCH  11  12
ATOM     12  C   UNL     1      51.969   5.115  17.380  0.00  0.00    +0.000 C 
ATOM     13  C   UNL     1      50.937   6.037  16.710  0.00  0.00    +0.000 C 
ATOM     14  C   UNL     1      50.135   6.862  17.716  0.00  0.00    +0.000 C 
ATOM     15  C   UNL     1      51.042   7.659  18.670  0.00  0.00    +0.000 C 
ATOM     16  C   UNL     1      52.117   6.774  19.317  0.00  0.00    +0.000 C 
ATOM     17  C   UNL     1      52.892   5.960  18.278  0.00  0.00    +0.000 C 
BRANCH  15  18
ATOM     18  C   UNL     1      50.217   8.366  19.752  0.00  0.00    +0.000 C 
BRANCH  18  19
ATOM     19  O   UNL     1      49.301   9.286  19.173  0.00  0.00    +0.000 OA
ATOM     20  H   UNL     1      49.619   9.495  18.279  0.00  0.00    +0.000 HD
ENDBRANCH  18  19
ENDBRANCH  15  18
ENDBRANCH  11  12
ENDBRANCH   9  11
ENDBRANCH   8   9
ENDBRANCH   1   8
BRANCH   4  21
ATOM     21  C   UNL     1      46.042   4.460  13.181  0.00  0.00    +0.000 C 
BRANCH  21  22
ATOM     22  N   UNL     1      46.007   5.893  13.008  0.00  0.00    +0.000 N 
ATOM     23  C   UNL     1      45.644   6.505  11.839  0.00  0.00    +0.000 C 
ATOM     24  O   UNL     1      45.166   5.898  10.891  0.00  0.00    +0.000 OA
ATOM     25  H   UNL     1      46.382   6.437  13.771  0.00  0.00    +0.000 HD
BRANCH  23  26
ATOM     26  C   UNL     1      45.802   7.963  11.839  0.00  0.00    +0.000 A 
ATOM     27  C   UNL     1      44.741   8.797  11.526  0.00  0.00    +0.000 A 
ATOM     28  S   UNL     1      45.130  10.454  11.667  0.00  0.00    +0.000 S 
ATOM     29  C   UNL     1      46.742  10.103  12.091  0.00  0.00    +0.000 A 
ATOM     30  N   UNL     1      47.633  11.090  12.362  0.00  0.00    +0.000 NA
ATOM     31  C   UNL     1      48.824  10.674  12.650  0.00  0.00    +0.000 A 
ATOM     32  N   UNL     1      49.228   9.355  12.677  0.00  0.00    +0.000 N 
ATOM     33  C   UNL     1      50.594   9.001  13.002  0.00  0.00    +0.000 C 
ATOM     34  C   UNL     1      48.347   8.320  12.389  0.00  0.00    +0.000 A 
ATOM     35  O   UNL     1      48.688   7.140  12.388  0.00  0.00    +0.000 OA
ATOM     36  C   UNL     1      46.984   8.745  12.110  0.00  0.00    +0.000 A 
ENDBRANCH  23  26
ENDBRANCH  21  22
ENDBRANCH   4  21
TORSDOF 9
ENDMDL
