MODEL 1
REMARK VINA RESULT:    -8.214      0.000      0.000
REMARK INTER + INTRA:         -11.948
REMARK INTER:                 -11.096
REMARK INTRA:                  -0.853
REMARK UNBOUND:                -0.853
REMARK  Name = 
REMARK  7 active torsions:
REMARK  status: ('A' for Active; 'I' for Inactive)
REMARK    1  A    between atoms: C_1  and  C_2
REMARK    2  A    between atoms: C_2  and  N_3
REMARK    3  A    between atoms: N_3  and  C_4
REMARK    4  A    between atoms: C_4  and  C_5
REMARK    5  A    between atoms: N_11  and  C_12
REMARK    6  A    between atoms: C_12  and  C_13
REMARK    7  A    between atoms: C_16  and  C_17
REMARK                            x       y       z     vdW  Elec       q    Type
REMARK                         _______ _______ _______ _____ _____    ______ ____
ROOT
ATOM      1  C   UNL     1      44.945   8.488  11.792  0.00  0.00    +0.000 A 
ATOM      2  C   UNL     1      45.966   8.487  12.742  0.00  0.00    +0.000 A 
ATOM      3  N   UNL     1      46.495   7.395  13.332  0.00  0.00    +0.000 NA
ATOM      4  C   UNL     1      45.975   6.215  12.916  0.00  0.00    +0.000 A 
ATOM      5  C   UNL     1      46.322   4.914  13.335  0.00  0.00    +0.000 A 
ATOM      6  C   UNL     1      45.560   4.029  12.603  0.00  0.00    +0.000 A 
ATOM      7  N   UNL     1      44.754   4.757  11.754  0.00  0.00    +0.000 N 
ATOM      8  C   UNL     1      44.969   6.108  11.954  0.00  0.00    +0.000 A 
ATOM      9  C   UNL     1      44.409   7.259  11.387  0.00  0.00    +0.000 A 
ENDROOT
BRANCH   1  10
ATOM     10  C   UNL     1      44.432   9.787  11.230  0.00  0.00    +0.000 C 
BRANCH  10  11
ATOM     11  N   UNL     1      43.543  10.512  12.142  0.00  0.00    +0.000 NA
ATOM     12  H   UNL     1      43.121   9.843  12.786  0.00  0.00    +0.000 HD
BRANCH  11  14
ATOM     13  C   UNL     1      41.575  10.212  10.728  0.00  0.00    +0.000 C 
ATOM     14  C   UNL     1      42.477  11.219  11.427  0.00  0.00    +0.000 C 
ENDBRANCH  11  14
ENDBRANCH  10  11
ENDBRANCH   1  10
BRANCH   7  15
ATOM     15  C   UNL     1      43.930   4.158  10.705  0.00  0.00    +0.000 C 
BRANCH  15  16
ATOM     16  C   UNL     1      44.765   3.651   9.555  0.00  0.00    +0.000 A 
ATOM     17  C   UNL     1      44.958   2.275   9.378  0.00  0.00    +0.000 A 
ATOM     18  C   UNL     1      45.841   1.805   8.404  0.00  0.00    +0.000 A 
ATOM     19  C   UNL     1      46.533   2.704   7.584  0.00  0.00    +0.000 A 
ATOM     20  C   UNL     1      46.297   4.075   7.709  0.00  0.00    +0.000 A 
ATOM     21  C   UNL     1      45.414   4.545   8.688  0.00  0.00    +0.000 A 
BRANCH  19  22
ATOM     22  C   UNL     1      47.558   2.150   6.666  0.00  0.00    +0.000 C 
ATOM     23  N   UNL     1      47.942   2.914   5.600  0.00  0.00    +0.000 N 
ATOM     24  O   UNL     1      48.046   1.041   6.842  0.00  0.00    +0.000 OA
ATOM     25  H   UNL     1      47.423   3.719   5.284  0.00  0.00    +0.000 HD
ATOM     26  H   UNL     1      48.583   2.477   4.947  0.00  0.00    +0.000 HD
ENDBRANCH  19  22
ENDBRANCH  15  16
ENDBRANCH   7  15
TORSDOF 6
ENDMDL
MODEL 2
REMARK VINA RESULT:    -7.862      2.699      3.594
REMARK INTER + INTRA:         -11.472
REMARK INTER:                 -10.630
REMARK INTRA:                  -0.842
REMARK UNBOUND:                -0.853
REMARK  Name = 
REMARK  7 active torsions:
REMARK  status: ('A' for Active; 'I' for Inactive)
REMARK    1  A    between atoms: C_1  and  C_2
REMARK    2  A    between atoms: C_2  and  N_3
REMARK    3  A    between atoms: N_3  and  C_4
REMARK    4  A    between atoms: C_4  and  C_5
REMARK    5  A    between atoms: N_11  and  C_12
REMARK    6  A    between atoms: C_12  and  C_13
REMARK    7  A    between atoms: C_16  and  C_17
REMARK                            x       y       z     vdW  Elec       q    Type
REMARK                         _______ _______ _______ _____ _____    ______ ____
ROOT
ATOM      1  C   UNL     1      47.079   6.145  12.658  0.00  0.00    +0.000 A 
ATOM      2  C   UNL     1      46.968   5.458  13.867  0.00  0.00    +0.000 A 
ATOM      3  N   UNL     1      45.974   4.609  14.204  0.00  0.00    +0.000 NA
ATOM      4  C   UNL     1      45.038   4.419  13.244  0.00  0.00    +0.000 A 
ATOM      5  C   UNL     1      43.895   3.593  13.293  0.00  0.00    +0.000 A 
ATOM      6  C   UNL     1      43.269   3.686  12.069  0.00  0.00    +0.000 A 
ATOM      7  N   UNL     1      43.996   4.549  11.278  0.00  0.00    +0.000 N 
ATOM      8  C   UNL     1      45.073   5.040  11.994  0.00  0.00    +0.000 A 
ATOM      9  C   UNL     1      46.092   5.947  11.684  0.00  0.00    +0.000 A 
ENDROOT
BRANCH   1  10
ATOM     10  C   UNL     1      48.233   7.084  12.421  0.00  0.00    +0.000 C 
BRANCH  10  11
ATOM     11  N   UNL     1      49.448   6.718  13.154  0.00  0.00    +0.000 NA
ATOM     12  H   UNL     1      49.184   6.166  13.969  0.00  0.00    +0.000 HD
BRANCH  11  14
ATOM     13  C   UNL     1      50.723   8.655  12.391  0.00  0.00    +0.000 C 
ATOM     14  C   UNL     1      50.198   7.894  13.600  0.00  0.00    +0.000 C 
ENDBRANCH  11  14
ENDBRANCH  10  11
ENDBRANCH   1  10
BRANCH   7  15
ATOM     15  C   UNL     1      43.732   4.764   9.857  0.00  0.00    +0.000 C 
BRANCH  15  16
ATOM     16  C   UNL     1      44.691   3.995   8.983  0.00  0.00    +0.000 A 
ATOM     17  C   UNL     1      44.714   2.595   9.027  0.00  0.00    +0.000 A 
ATOM     18  C   UNL     1      45.692   1.882   8.330  0.00  0.00    +0.000 A 
ATOM     19  C   UNL     1      46.652   2.558   7.569  0.00  0.00    +0.000 A 
ATOM     20  C   UNL     1      46.597   3.950   7.466  0.00  0.00    +0.000 A 
ATOM     21  C   UNL     1      45.618   4.664   8.168  0.00  0.00    +0.000 A 
BRANCH  19  22
ATOM     22  C   UNL     1      47.745   1.756   6.967  0.00  0.00    +0.000 C 
ATOM     23  N   UNL     1      48.670   2.407   6.200  0.00  0.00    +0.000 N 
ATOM     24  O   UNL     1      47.823   0.546   7.138  0.00  0.00    +0.000 OA
ATOM     25  H   UNL     1      48.532   3.342   5.846  0.00  0.00    +0.000 HD
ATOM     26  H   UNL     1      49.356   1.822   5.737  0.00  0.00    +0.000 HD
ENDBRANCH  19  22
ENDBRANCH  15  16
ENDBRANCH   7  15
TORSDOF 6
ENDMDL
MODEL 3
REMARK VINA RESULT:    -7.107      3.237      7.146
REMARK INTER + INTRA:         -10.453
REMARK INTER:                  -9.682
REMARK INTRA:                  -0.770
REMARK UNBOUND:                -0.853
REMARK  Name = 
REMARK  7 active torsions:
REMARK  status: ('A' for Active; 'I' for Inactive)
REMARK    1  A    between atoms: C_1  and  C_2
REMARK    2  A    between atoms: C_2  and  N_3
REMARK    3  A    between atoms: N_3  and  C_4
REMARK    4  A    between atoms: C_4  and  C_5
REMARK    5  A    between atoms: N_11  and  C_12
REMARK    6  A    between atoms: C_12  and  C_13
REMARK    7  A    between atoms: C_16  and  C_17
REMARK                            x       y       z     vdW  Elec       q    Type
REMARK                         _______ _______ _______ _____ _____    ______ ____
ROOT
ATOM      1  C   UNL     1      45.144   3.659   8.629  0.00  0.00    +0.000 A 
ATOM      2  C   UNL     1      44.418   2.602   9.178  0.00  0.00    +0.000 A 
ATOM      3  N   UNL     1      43.852   2.584  10.402  0.00  0.00    +0.000 NA
ATOM      4  C   UNL     1      44.006   3.725  11.116  0.00  0.00    +0.000 A 
ATOM      5  C   UNL     1      43.526   4.013  12.412  0.00  0.00    +0.000 A 
ATOM      6  C   UNL     1      43.888   5.310  12.704  0.00  0.00    +0.000 A 
ATOM      7  N   UNL     1      44.578   5.818  11.625  0.00  0.00    +0.000 N 
ATOM      8  C   UNL     1      44.693   4.846  10.648  0.00  0.00    +0.000 A 
ATOM      9  C   UNL     1      45.306   4.823   9.390  0.00  0.00    +0.000 A 
ENDROOT
BRANCH   1  10
ATOM     10  C   UNL     1      45.744   3.535   7.253  0.00  0.00    +0.000 C 
BRANCH  10  11
ATOM     11  N   UNL     1      47.207   3.622   7.240  0.00  0.00    +0.000 NA
ATOM     12  H   UNL     1      47.478   4.471   6.744  0.00  0.00    +0.000 HD
BRANCH  11  14
ATOM     13  C   UNL     1      47.354   1.185   7.247  0.00  0.00    +0.000 C 
ATOM     14  C   UNL     1      47.822   2.469   6.578  0.00  0.00    +0.000 C 
ENDBRANCH  11  14
ENDBRANCH  10  11
ENDBRANCH   1  10
BRANCH   7  15
ATOM     15  C   UNL     1      44.974   7.220  11.501  0.00  0.00    +0.000 C 
BRANCH  15  16
ATOM     16  C   UNL     1      46.286   7.496  12.192  0.00  0.00    +0.000 A 
ATOM     17  C   UNL     1      47.419   6.734  11.879  0.00  0.00    +0.000 A 
ATOM     18  C   UNL     1      48.598   6.888  12.611  0.00  0.00    +0.000 A 
ATOM     19  C   UNL     1      48.665   7.816  13.657  0.00  0.00    +0.000 A 
ATOM     20  C   UNL     1      47.562   8.626  13.933  0.00  0.00    +0.000 A 
ATOM     21  C   UNL     1      46.379   8.469  13.200  0.00  0.00    +0.000 A 
BRANCH  19  22
ATOM     22  C   UNL     1      49.895   7.834  14.485  0.00  0.00    +0.000 C 
ATOM     23  N   UNL     1      51.101   7.798  13.843  0.00  0.00    +0.000 N 
ATOM     24  O   UNL     1      49.846   7.872  15.708  0.00  0.00    +0.000 OA
ATOM     25  H   UNL     1      51.199   7.543  12.871  0.00  0.00    +0.000 HD
ATOM     26  H   UNL     1      51.920   7.729  14.436  0.00  0.00    +0.000 HD
ENDBRANCH  19  22
ENDBRANCH  15  16
ENDBRANCH   7  15
TORSDOF 6
ENDMDL
MODEL 4
REMARK VINA RESULT:    -6.209      4.139      7.807
REMARK INTER + INTRA:          -9.240
REMARK INTER:                  -8.385
REMARK INTRA:                  -0.856
REMARK UNBOUND:                -0.853
REMARK  Name = 
REMARK  7 active torsions:
REMARK  status: ('A' for Active; 'I' for Inactive)
REMARK    1  A    between atoms: C_1  and  C_2
REMARK    2  A    between atoms: C_2  and  N_3
REMARK    3  A    between atoms: N_3  and  C_4
REMARK    4  A    between atoms: C_4  and  C_5
REMARK    5  A    between atoms: N_11  and  C_12
REMARK    6  A    between atoms: C_12  and  C_13
REMARK    7  A    between atoms: C_16  and  C_17
REMARK                            x       y       z     vdW  Elec       q    Type
REMARK                         _______ _______ _______ _____ _____    ______ ____
ROOT
ATOM      1  C   UNL     1      44.193   4.299  11.400  0.00  0.00    +0.000 A 
ATOM      2  C   UNL     1      43.384   5.369  11.017  0.00  0.00    +0.000 A 
ATOM      3  N   UNL     1      43.604   6.669  11.308  0.00  0.00    +0.000 NA
ATOM      4  C   UNL     1      44.735   6.910  12.014  0.00  0.00    +0.000 A 
ATOM      5  C   UNL     1      45.236   8.152  12.457  0.00  0.00    +0.000 A 
ATOM      6  C   UNL     1      46.434   7.908  13.092  0.00  0.00    +0.000 A 
ATOM      7  N   UNL     1      46.674   6.551  13.053  0.00  0.00    +0.000 N 
ATOM      8  C   UNL     1      45.621   5.912  12.423  0.00  0.00    +0.000 A 
ATOM      9  C   UNL     1      45.349   4.568  12.143  0.00  0.00    +0.000 A 
ENDROOT
BRANCH   1  10
ATOM     10  C   UNL     1      43.815   2.890  11.025  0.00  0.00    +0.000 C 
BRANCH  10  11
ATOM     11  N   UNL     1      43.862   2.632   9.583  0.00  0.00    +0.000 NA
ATOM     12  H   UNL     1      43.236   1.856   9.370  0.00  0.00    +0.000 HD
BRANCH  11  14
ATOM     13  C   UNL     1      45.649   3.273   8.049  0.00  0.00    +0.000 C 
ATOM     14  C   UNL     1      45.212   2.292   9.127  0.00  0.00    +0.000 C 
ENDBRANCH  11  14
ENDBRANCH  10  11
ENDBRANCH   1  10
BRANCH   7  15
ATOM     15  C   UNL     1      47.929   5.936  13.478  0.00  0.00    +0.000 C 
BRANCH  15  16
ATOM     16  C   UNL     1      47.920   5.599  14.949  0.00  0.00    +0.000 A 
ATOM     17  C   UNL     1      48.666   6.367  15.851  0.00  0.00    +0.000 A 
ATOM     18  C   UNL     1      48.776   5.979  17.188  0.00  0.00    +0.000 A 
ATOM     19  C   UNL     1      48.130   4.824  17.644  0.00  0.00    +0.000 A 
ATOM     20  C   UNL     1      47.330   4.088  16.767  0.00  0.00    +0.000 A 
ATOM     21  C   UNL     1      47.223   4.477  15.426  0.00  0.00    +0.000 A 
BRANCH  19  22
ATOM     22  C   UNL     1      48.398   4.388  19.036  0.00  0.00    +0.000 C 
ATOM     23  N   UNL     1      48.327   3.053  19.314  0.00  0.00    +0.000 N 
ATOM     24  O   UNL     1      48.666   5.192  19.920  0.00  0.00    +0.000 OA
ATOM     25  H   UNL     1      47.899   2.383  18.693  0.00  0.00    +0.000 HD
ATOM     26  H   UNL     1      48.435   2.794  20.288  0.00  0.00    +0.000 HD
ENDBRANCH  19  22
ENDBRANCH  15  16
ENDBRANCH   7  15
TORSDOF 6
ENDMDL
MODEL 5
REMARK VINA RESULT:    -6.063      3.626      6.320
REMARK INTER + INTRA:          -9.042
REMARK INTER:                  -8.033
REMARK INTRA:                  -1.009
REMARK UNBOUND:                -0.853
REMARK  Name = 
REMARK  7 active torsions:
REMARK  status: ('A' for Active; 'I' for Inactive)
REMARK    1  A    between atoms: C_1  and  C_2
REMARK    2  A    between atoms: C_2  and  N_3
REMARK    3  A    between atoms: N_3  and  C_4
REMARK    4  A    between atoms: C_4  and  C_5
REMARK    5  A    between atoms: N_11  and  C_12
REMARK    6  A    between atoms: C_12  and  C_13
REMARK    7  A    between atoms: C_16  and  C_17
REMARK                            x       y       z     vdW  Elec       q    Type
REMARK                         _______ _______ _______ _____ _____    ______ ____
ROOT
ATOM      1  C   UNL     1      49.775   6.773  15.788  0.00  0.00    +0.000 A 
ATOM      2  C   UNL     1      50.960   7.349  15.330  0.00  0.00    +0.000 A 
ATOM      3  N   UNL     1      51.116   8.016  14.167  0.00  0.00    +0.000 NA
ATOM      4  C   UNL     1      49.989   8.134  13.423  0.00  0.00    +0.000 A 
ATOM      5  C   UNL     1      49.832   8.776  12.177  0.00  0.00    +0.000 A 
ATOM      6  C   UNL     1      48.502   8.679  11.831  0.00  0.00    +0.000 A 
ATOM      7  N   UNL     1      47.846   7.991  12.829  0.00  0.00    +0.000 N 
ATOM      8  C   UNL     1      48.751   7.615  13.805  0.00  0.00    +0.000 A 
ATOM      9  C   UNL     1      48.625   6.893  14.997  0.00  0.00    +0.000 A 
ENDROOT
BRANCH   1  10
ATOM     10  C   UNL     1      49.747   6.034  17.100  0.00  0.00    +0.000 C 
BRANCH  10  11
ATOM     11  N   UNL     1      49.796   4.577  16.955  0.00  0.00    +0.000 NA
ATOM     12  H   UNL     1      49.778   4.347  15.962  0.00  0.00    +0.000 HD
BRANCH  11  14
ATOM     13  C   UNL     1      47.549   3.689  16.607  0.00  0.00    +0.000 C 
ATOM     14  C   UNL     1      48.666   3.919  17.615  0.00  0.00    +0.000 C 
ENDBRANCH  11  14
ENDBRANCH  10  11
ENDBRANCH   1  10
BRANCH   7  15
ATOM     15  C   UNL     1      46.394   7.841  12.891  0.00  0.00    +0.000 C 
BRANCH  15  16
ATOM     16  C   UNL     1      45.945   6.496  12.374  0.00  0.00    +0.000 A 
ATOM     17  C   UNL     1      45.697   6.317  11.007  0.00  0.00    +0.000 A 
ATOM     18  C   UNL     1      45.149   5.121  10.540  0.00  0.00    +0.000 A 
ATOM     19  C   UNL     1      44.853   4.083  11.431  0.00  0.00    +0.000 A 
ATOM     20  C   UNL     1      45.157   4.228  12.786  0.00  0.00    +0.000 A 
ATOM     21  C   UNL     1      45.705   5.429  13.254  0.00  0.00    +0.000 A 
BRANCH  19  22
ATOM     22  C   UNL     1      44.144   2.895  10.895  0.00  0.00    +0.000 C 
ATOM     23  N   UNL     1      44.748   2.185   9.896  0.00  0.00    +0.000 N 
ATOM     24  O   UNL     1      43.047   2.556  11.321  0.00  0.00    +0.000 OA
ATOM     25  H   UNL     1      45.528   2.540   9.362  0.00  0.00    +0.000 HD
ATOM     26  H   UNL     1      44.205   1.429   9.496  0.00  0.00    +0.000 HD
ENDBRANCH  19  22
ENDBRANCH  15  16
ENDBRANCH   7  15
TORSDOF 6
ENDMDL
MODEL 6
REMARK VINA RESULT:    -5.701      4.681      7.762
REMARK INTER + INTRA:          -8.554
REMARK INTER:                  -7.550
REMARK INTRA:                  -1.003
REMARK UNBOUND:                -0.853
REMARK  Name = 
REMARK  7 active torsions:
REMARK  status: ('A' for Active; 'I' for Inactive)
REMARK    1  A    between atoms: C_1  and  C_2
REMARK    2  A    between atoms: C_2  and  N_3
REMARK    3  A    between atoms: N_3  and  C_4
REMARK    4  A    between atoms: C_4  and  C_5
REMARK    5  A    between atoms: N_11  and  C_12
REMARK    6  A    between atoms: C_12  and  C_13
REMARK    7  A    between atoms: C_16  and  C_17
REMARK                            x       y       z     vdW  Elec       q    Type
REMARK                         _______ _______ _______ _____ _____    ______ ____
ROOT
ATOM      1  C   UNL     1      49.674   5.746  17.792  0.00  0.00    +0.000 A 
ATOM      2  C   UNL     1      49.289   6.688  18.746  0.00  0.00    +0.000 A 
ATOM      3  N   UNL     1      48.828   7.930  18.488  0.00  0.00    +0.000 NA
ATOM      4  C   UNL     1      48.723   8.236  17.173  0.00  0.00    +0.000 A 
ATOM      5  C   UNL     1      48.270   9.439  16.592  0.00  0.00    +0.000 A 
ATOM      6  C   UNL     1      48.296   9.270  15.225  0.00  0.00    +0.000 A 
ATOM      7  N   UNL     1      48.757   7.999  14.957  0.00  0.00    +0.000 N 
ATOM      8  C   UNL     1      49.059   7.355  16.143  0.00  0.00    +0.000 A 
ATOM      9  C   UNL     1      49.573   6.087  16.438  0.00  0.00    +0.000 A 
ENDROOT
BRANCH   1  10
ATOM     10  C   UNL     1      50.195   4.399  18.222  0.00  0.00    +0.000 C 
BRANCH  10  11
ATOM     11  N   UNL     1      49.202   3.582  18.924  0.00  0.00    +0.000 NA
ATOM     12  H   UNL     1      49.681   2.802  19.373  0.00  0.00    +0.000 HD
BRANCH  11  14
ATOM     13  C   UNL     1      48.853   2.388  16.824  0.00  0.00    +0.000 C 
ATOM     14  C   UNL     1      48.181   3.053  18.016  0.00  0.00    +0.000 C 
ENDBRANCH  11  14
ENDBRANCH  10  11
ENDBRANCH   1  10
BRANCH   7  15
ATOM     15  C   UNL     1      48.760   7.401  13.623  0.00  0.00    +0.000 C 
BRANCH  15  16
ATOM     16  C   UNL     1      47.499   6.618  13.354  0.00  0.00    +0.000 A 
ATOM     17  C   UNL     1      46.371   7.261  12.828  0.00  0.00    +0.000 A 
ATOM     18  C   UNL     1      45.160   6.577  12.709  0.00  0.00    +0.000 A 
ATOM     19  C   UNL     1      45.063   5.237  13.101  0.00  0.00    +0.000 A 
ATOM     20  C   UNL     1      46.198   4.569  13.565  0.00  0.00    +0.000 A 
ATOM     21  C   UNL     1      47.412   5.257  13.687  0.00  0.00    +0.000 A 
BRANCH  19  22
ATOM     22  C   UNL     1      43.720   4.608  13.082  0.00  0.00    +0.000 C 
ATOM     23  N   UNL     1      42.629   5.429  13.029  0.00  0.00    +0.000 N 
ATOM     24  O   UNL     1      43.579   3.392  13.120  0.00  0.00    +0.000 OA
ATOM     25  H   UNL     1      42.675   6.419  13.220  0.00  0.00    +0.000 HD
ATOM     26  H   UNL     1      41.726   4.974  13.099  0.00  0.00    +0.000 HD
ENDBRANCH  19  22
ENDBRANCH  15  16
ENDBRANCH   7  15
TORSDOF 6
ENDMDL
MODEL 7
REMARK VINA RESULT:    -5.695      5.008      8.482
REMARK INTER + INTRA:          -8.546
REMARK INTER:                  -8.099
REMARK INTRA:                  -0.447
REMARK UNBOUND:                -0.853
REMARK  Name = 
REMARK  7 active torsions:
REMARK  status: ('A' for Active; 'I' for Inactive)
REMARK    1  A    between atoms: C_1  and  C_2
REMARK    2  A    between atoms: C_2  and  N_3
REMARK    3  A    between atoms: N_3  and  C_4
REMARK    4  A    between atoms: C_4  and  C_5
REMARK    5  A    between atoms: N_11  and  C_12
REMARK    6  A    between atoms: C_12  and  C_13
REMARK    7  A    between atoms: C_16  and  C_17
REMARK                            x       y       z     vdW  Elec       q    Type
REMARK                         _______ _______ _______ _____ _____    ______ ____
ROOT
ATOM      1  C   UNL     1      44.931   4.636  11.519  0.00  0.00    +0.000 A 
ATOM      2  C   UNL     1      45.472   5.801  10.976  0.00  0.00    +0.000 A 
ATOM      3  N   UNL     1      46.418   6.574  11.549  0.00  0.00    +0.000 NA
ATOM      4  C   UNL     1      46.870   6.126  12.746  0.00  0.00    +0.000 A 
ATOM      5  C   UNL     1      47.852   6.705  13.577  0.00  0.00    +0.000 A 
ATOM      6  C   UNL     1      48.010   5.874  14.665  0.00  0.00    +0.000 A 
ATOM      7  N   UNL     1      47.148   4.808  14.521  0.00  0.00    +0.000 N 
ATOM      8  C   UNL     1      46.410   4.961  13.361  0.00  0.00    +0.000 A 
ATOM      9  C   UNL     1      45.400   4.199  12.764  0.00  0.00    +0.000 A 
ENDROOT
BRANCH   1  10
ATOM     10  C   UNL     1      43.859   3.879  10.778  0.00  0.00    +0.000 C 
BRANCH  10  11
ATOM     11  N   UNL     1      44.237   2.505  10.439  0.00  0.00    +0.000 NA
ATOM     12  H   UNL     1      44.628   2.060  11.269  0.00  0.00    +0.000 HD
BRANCH  11  14
ATOM     13  C   UNL     1      44.748   3.289   8.184  0.00  0.00    +0.000 C 
ATOM     14  C   UNL     1      45.230   2.456   9.363  0.00  0.00    +0.000 C 
ENDBRANCH  11  14
ENDBRANCH  10  11
ENDBRANCH   1  10
BRANCH   7  15
ATOM     15  C   UNL     1      47.153   3.636  15.394  0.00  0.00    +0.000 C 
BRANCH  15  16
ATOM     16  C   UNL     1      47.770   3.939  16.737  0.00  0.00    +0.000 A 
ATOM     17  C   UNL     1      47.106   4.777  17.643  0.00  0.00    +0.000 A 
ATOM     18  C   UNL     1      47.732   5.175  18.826  0.00  0.00    +0.000 A 
ATOM     19  C   UNL     1      49.025   4.730  19.127  0.00  0.00    +0.000 A 
ATOM     20  C   UNL     1      49.668   3.842  18.262  0.00  0.00    +0.000 A 
ATOM     21  C   UNL     1      49.041   3.446  17.074  0.00  0.00    +0.000 A 
BRANCH  19  22
ATOM     22  C   UNL     1      49.688   5.298  20.326  0.00  0.00    +0.000 C 
ATOM     23  N   UNL     1      50.592   4.516  20.988  0.00  0.00    +0.000 N 
ATOM     24  O   UNL     1      49.435   6.427  20.726  0.00  0.00    +0.000 OA
ATOM     25  H   UNL     1      50.671   3.521  20.842  0.00  0.00    +0.000 HD
ATOM     26  H   UNL     1      50.967   4.900  21.848  0.00  0.00    +0.000 HD
ENDBRANCH  19  22
ENDBRANCH  15  16
ENDBRANCH   7  15
TORSDOF 6
ENDMDL
MODEL 8
REMARK VINA RESULT:    -5.546      3.465      5.395
REMARK INTER + INTRA:          -8.344
REMARK INTER:                  -7.695
REMARK INTRA:                  -0.649
REMARK UNBOUND:                -0.853
REMARK  Name = 
REMARK  7 active torsions:
REMARK  status: ('A' for Active; 'I' for Inactive)
REMARK    1  A    between atoms: C_1  and  C_2
REMARK    2  A    between atoms: C_2  and  N_3
REMARK    3  A    between atoms: N_3  and  C_4
REMARK    4  A    between atoms: C_4  and  C_5
REMARK    5  A    between atoms: N_11  and  C_12
REMARK    6  A    between atoms: C_12  and  C_13
REMARK    7  A    between atoms: C_16  and  C_17
REMARK                            x       y       z     vdW  Elec       q    Type
REMARK                         _______ _______ _______ _____ _____    ______ ____
ROOT
ATOM      1  C   UNL     1      49.840   8.998  11.477  0.00  0.00    +0.000 A 
ATOM      2  C   UNL     1      49.409  10.324  11.448  0.00  0.00    +0.000 A 
ATOM      3  N   UNL     1      48.161  10.756  11.725  0.00  0.00    +0.000 NA
ATOM      4  C   UNL     1      47.289   9.782  12.084  0.00  0.00    +0.000 A 
ATOM      5  C   UNL     1      45.930   9.918  12.437  0.00  0.00    +0.000 A 
ATOM      6  C   UNL     1      45.466   8.664  12.769  0.00  0.00    +0.000 A 
ATOM      7  N   UNL     1      46.503   7.768  12.622  0.00  0.00    +0.000 N 
ATOM      8  C   UNL     1      47.628   8.431  12.167  0.00  0.00    +0.000 A 
ATOM      9  C   UNL     1      48.919   8.005  11.835  0.00  0.00    +0.000 A 
ENDROOT
BRANCH   1  10
ATOM     10  C   UNL     1      51.262   8.653  11.121  0.00  0.00    +0.000 C 
BRANCH  10  11
ATOM     11  N   UNL     1      51.505   7.213  10.998  0.00  0.00    +0.000 NA
ATOM     12  H   UNL     1      51.592   6.816  11.934  0.00  0.00    +0.000 HD
BRANCH  11  14
ATOM     13  C   UNL     1      52.456   7.073   8.754  0.00  0.00    +0.000 C 
ATOM     14  C   UNL     1      52.726   6.922  10.244  0.00  0.00    +0.000 C 
ENDBRANCH  11  14
ENDBRANCH  10  11
ENDBRANCH   1  10
BRANCH   7  15
ATOM     15  C   UNL     1      46.434   6.370  13.044  0.00  0.00    +0.000 C 
BRANCH  15  16
ATOM     16  C   UNL     1      45.827   5.491  11.979  0.00  0.00    +0.000 A 
ATOM     17  C   UNL     1      45.304   4.236  12.317  0.00  0.00    +0.000 A 
ATOM     18  C   UNL     1      44.870   3.360  11.319  0.00  0.00    +0.000 A 
ATOM     19  C   UNL     1      44.940   3.732   9.972  0.00  0.00    +0.000 A 
ATOM     20  C   UNL     1      45.399   5.006   9.630  0.00  0.00    +0.000 A 
ATOM     21  C   UNL     1      45.837   5.883  10.630  0.00  0.00    +0.000 A 
BRANCH  19  22
ATOM     22  C   UNL     1      44.597   2.708   8.955  0.00  0.00    +0.000 C 
ATOM     23  N   UNL     1      44.402   3.123   7.668  0.00  0.00    +0.000 N 
ATOM     24  O   UNL     1      44.480   1.525   9.249  0.00  0.00    +0.000 OA
ATOM     25  H   UNL     1      44.265   4.091   7.416  0.00  0.00    +0.000 HD
ATOM     26  H   UNL     1      44.089   2.414   7.014  0.00  0.00    +0.000 HD
ENDBRANCH  19  22
ENDBRANCH  15  16
ENDBRANCH   7  15
TORSDOF 6
ENDMDL
