MODEL 1
REMARK VINA RESULT:    -7.844      0.000      0.000
REMARK INTER + INTRA:         -11.872
REMARK INTER:                 -11.054
REMARK INTRA:                  -0.818
REMARK UNBOUND:                -0.818
REMARK  Name = 
REMARK  7 active torsions:
REMARK  status: ('A' for Active; 'I' for Inactive)
REMARK    1  A    between atoms: C_2  and  C_20
REMARK    2  A    between atoms: N_3  and  C_4
REMARK    3  A    between atoms: C_4  and  C_5
REMARK    4  A    between atoms: C_8  and  N_9
REMARK    5  A    between atoms: N_9  and  C_10
REMARK    6  A    between atoms: C_10  and  C_11
REMARK    7  A    between atoms: C_11  and  C_12
REMARK                            x       y       z     vdW  Elec       q    Type
REMARK                         _______ _______ _______ _____ _____    ______ ____
ROOT
ATOM      1  C   UNL     1      46.309   4.362  13.630  0.00  0.00    +0.000 A 
ATOM      2  C   UNL     1      46.234   5.674  13.178  0.00  0.00    +0.000 A 
ATOM      3  C   UNL     1      45.457   5.956  12.057  0.00  0.00    +0.000 A 
ATOM      4  C   UNL     1      44.794   4.930  11.386  0.00  0.00    +0.000 A 
ATOM      5  C   UNL     1      44.859   3.667  11.975  0.00  0.00    +0.000 A 
ATOM      6  N   UNL     1      45.597   3.354  13.068  0.00  0.00    +0.000 NA
ENDROOT
BRANCH   4   7
ATOM      7  N   UNL     1      44.017   5.117  10.235  0.00  0.00    +0.000 N 
ATOM      8  H   UNL     1      44.115   6.081   9.917  0.00  0.00    +0.000 HD
BRANCH   7   9
ATOM      9  C   UNL     1      44.208   4.179   9.116  0.00  0.00    +0.000 C 
BRANCH   9  10
ATOM     10  C   UNL     1      45.576   4.374   8.450  0.00  0.00    +0.000 C 
BRANCH  10  11
ATOM     11  C   UNL     1      46.207   3.098   7.964  0.00  0.00    +0.000 A 
ATOM     12  C   UNL     1      45.807   1.883   8.517  0.00  0.00    +0.000 A 
ATOM     13  N   UNL     1      46.331   0.694   8.138  0.00  0.00    +0.000 NA
ATOM     14  C   UNL     1      47.279   0.764   7.178  0.00  0.00    +0.000 A 
ATOM     15  C   UNL     1      47.686   1.965   6.624  0.00  0.00    +0.000 A 
ATOM     16  N   UNL     1      47.162   3.153   7.003  0.00  0.00    +0.000 NA
ENDBRANCH  10  11
ENDBRANCH   9  10
ENDBRANCH   7   9
ENDBRANCH   4   7
BRANCH   1  17
ATOM     17  C   UNL     1      47.165   4.020  14.819  0.00  0.00    +0.000 C 
BRANCH  17  20
ATOM     18  O   UNL     1      49.217   4.274  16.717  0.00  0.00    +0.000 OA
ATOM     19  C   UNL     1      48.461   5.224  16.535  0.00  0.00    +0.000 C 
ATOM     20  N   UNL     1      47.431   5.183  15.627  0.00  0.00    +0.000 N 
ATOM     21  H   UNL     1      46.995   6.044  15.336  0.00  0.00    +0.000 HD
BRANCH  19  22
ATOM     22  C   UNL     1      48.549   6.462  17.307  0.00  0.00    +0.000 A 
ATOM     23  C   UNL     1      48.935   7.715  16.839  0.00  0.00    +0.000 A 
ATOM     24  N   UNL     1      48.744   8.629  17.841  0.00  0.00    +0.000 N 
ATOM     25  C   UNL     1      48.252   8.005  18.949  0.00  0.00    +0.000 A 
ATOM     26  N   UNL     1      47.895   8.643  20.078  0.00  0.00    +0.000 NA
ATOM     27  C   UNL     1      47.441   7.801  21.034  0.00  0.00    +0.000 A 
ATOM     28  C   UNL     1      47.379   6.418  20.932  0.00  0.00    +0.000 A 
ATOM     29  C   UNL     1      47.763   5.811  19.735  0.00  0.00    +0.000 A 
ATOM     30  C   UNL     1      48.187   6.641  18.682  0.00  0.00    +0.000 A 
ATOM     31  H   UNL     1      48.900   9.624  17.786  0.00  0.00    +0.000 HD
ENDBRANCH  19  22
ENDBRANCH  17  20
ENDBRANCH   1  17
TORSDOF 7
ENDMDL
MODEL 2
REMARK VINA RESULT:    -7.764      1.434      1.860
REMARK INTER + INTRA:         -11.760
REMARK INTER:                 -10.995
REMARK INTRA:                  -0.765
REMARK UNBOUND:                -0.818
REMARK  Name = 
REMARK  7 active torsions:
REMARK  status: ('A' for Active; 'I' for Inactive)
REMARK    1  A    between atoms: C_2  and  C_20
REMARK    2  A    between atoms: N_3  and  C_4
REMARK    3  A    between atoms: C_4  and  C_5
REMARK    4  A    between atoms: C_8  and  N_9
REMARK    5  A    between atoms: N_9  and  C_10
REMARK    6  A    between atoms: C_10  and  C_11
REMARK    7  A    between atoms: C_11  and  C_12
REMARK                            x       y       z     vdW  Elec       q    Type
REMARK                         _______ _______ _______ _____ _____    ______ ____
ROOT
ATOM      1  C   UNL     1      46.959   5.880  13.082  0.00  0.00    +0.000 A 
ATOM      2  C   UNL     1      46.769   6.489  11.848  0.00  0.00    +0.000 A 
ATOM      3  C   UNL     1      45.721   6.056  11.039  0.00  0.00    +0.000 A 
ATOM      4  C   UNL     1      44.900   5.008  11.453  0.00  0.00    +0.000 A 
ATOM      5  C   UNL     1      45.118   4.531  12.746  0.00  0.00    +0.000 A 
ATOM      6  N   UNL     1      46.121   4.931  13.565  0.00  0.00    +0.000 NA
ENDROOT
BRANCH   4   7
ATOM      7  N   UNL     1      43.844   4.489  10.693  0.00  0.00    +0.000 N 
ATOM      8  H   UNL     1      43.085   5.169  10.666  0.00  0.00    +0.000 HD
BRANCH   7   9
ATOM      9  C   UNL     1      44.148   3.995   9.339  0.00  0.00    +0.000 C 
BRANCH   9  10
ATOM     10  C   UNL     1      44.814   2.613   9.384  0.00  0.00    +0.000 C 
BRANCH  10  11
ATOM     11  C   UNL     1      45.842   2.396   8.308  0.00  0.00    +0.000 A 
ATOM     12  C   UNL     1      46.325   1.111   8.072  0.00  0.00    +0.000 A 
ATOM     13  N   UNL     1      47.255   0.836   7.127  0.00  0.00    +0.000 NA
ATOM     14  C   UNL     1      47.688   1.902   6.420  0.00  0.00    +0.000 A 
ATOM     15  C   UNL     1      47.217   3.183   6.648  0.00  0.00    +0.000 A 
ATOM     16  N   UNL     1      46.288   3.458   7.593  0.00  0.00    +0.000 NA
ENDBRANCH  10  11
ENDBRANCH   9  10
ENDBRANCH   7   9
ENDBRANCH   4   7
BRANCH   1  17
ATOM     17  C   UNL     1      48.101   6.303  13.966  0.00  0.00    +0.000 C 
BRANCH  17  20
ATOM     18  O   UNL     1      50.003   6.127  16.023  0.00  0.00    +0.000 OA
ATOM     19  C   UNL     1      48.818   5.958  16.298  0.00  0.00    +0.000 C 
ATOM     20  N   UNL     1      47.824   6.026  15.353  0.00  0.00    +0.000 N 
ATOM     21  H   UNL     1      46.866   6.123  15.649  0.00  0.00    +0.000 HD
BRANCH  19  22
ATOM     22  C   UNL     1      48.362   5.612  17.643  0.00  0.00    +0.000 A 
ATOM     23  C   UNL     1      48.276   4.336  18.195  0.00  0.00    +0.000 A 
ATOM     24  N   UNL     1      47.942   4.459  19.518  0.00  0.00    +0.000 N 
ATOM     25  C   UNL     1      47.802   5.776  19.840  0.00  0.00    +0.000 A 
ATOM     26  N   UNL     1      47.545   6.226  21.080  0.00  0.00    +0.000 NA
ATOM     27  C   UNL     1      47.448   7.574  21.139  0.00  0.00    +0.000 A 
ATOM     28  C   UNL     1      47.542   8.440  20.059  0.00  0.00    +0.000 A 
ATOM     29  C   UNL     1      47.810   7.916  18.793  0.00  0.00    +0.000 A 
ATOM     30  C   UNL     1      47.982   6.524  18.680  0.00  0.00    +0.000 A 
ATOM     31  H   UNL     1      47.843   3.709  20.186  0.00  0.00    +0.000 HD
ENDBRANCH  19  22
ENDBRANCH  17  20
ENDBRANCH   1  17
TORSDOF 7
ENDMDL
MODEL 3
REMARK VINA RESULT:    -7.608      2.045      2.589
REMARK INTER + INTRA:         -11.540
REMARK INTER:                 -10.556
REMARK INTRA:                  -0.985
REMARK UNBOUND:                -0.818
REMARK  Name = 
REMARK  7 active torsions:
REMARK  status: ('A' for Active; 'I' for Inactive)
REMARK    1  A    between atoms: C_2  and  C_20
REMARK    2  A    between atoms: N_3  and  C_4
REMARK    3  A    between atoms: C_4  and  C_5
REMARK    4  A    between atoms: C_8  and  N_9
REMARK    5  A    between atoms: N_9  and  C_10
REMARK    6  A    between atoms: C_10  and  C_11
REMARK    7  A    between atoms: C_11  and  C_12
REMARK                            x       y       z     vdW  Elec       q    Type
REMARK                         _______ _______ _______ _____ _____    ______ ____
ROOT
ATOM      1  C   UNL     1      46.317   6.249  12.652  0.00  0.00    +0.000 A 
ATOM      2  C   UNL     1      46.142   5.110  13.429  0.00  0.00    +0.000 A 
ATOM      3  C   UNL     1      45.432   4.036  12.899  0.00  0.00    +0.000 A 
ATOM      4  C   UNL     1      44.881   4.121  11.621  0.00  0.00    +0.000 A 
ATOM      5  C   UNL     1      45.194   5.268  10.891  0.00  0.00    +0.000 A 
ATOM      6  N   UNL     1      45.887   6.330  11.369  0.00  0.00    +0.000 NA
ENDROOT
BRANCH   4   7
ATOM      7  N   UNL     1      44.128   3.103  11.021  0.00  0.00    +0.000 N 
ATOM      8  H   UNL     1      43.165   3.158  11.354  0.00  0.00    +0.000 HD
BRANCH   7   9
ATOM      9  C   UNL     1      44.165   2.994   9.553  0.00  0.00    +0.000 C 
BRANCH   9  10
ATOM     10  C   UNL     1      44.927   1.739   9.105  0.00  0.00    +0.000 C 
BRANCH  10  11
ATOM     11  C   UNL     1      46.023   2.014   8.111  0.00  0.00    +0.000 A 
ATOM     12  C   UNL     1      46.837   0.968   7.684  0.00  0.00    +0.000 A 
ATOM     13  N   UNL     1      47.847   1.136   6.798  0.00  0.00    +0.000 NA
ATOM     14  C   UNL     1      48.014   2.400   6.351  0.00  0.00    +0.000 A 
ATOM     15  C   UNL     1      47.213   3.446   6.770  0.00  0.00    +0.000 A 
ATOM     16  N   UNL     1      46.204   3.278   7.656  0.00  0.00    +0.000 NA
ENDBRANCH  10  11
ENDBRANCH   9  10
ENDBRANCH   7   9
ENDBRANCH   4   7
BRANCH   1  17
ATOM     17  C   UNL     1      47.052   7.438  13.208  0.00  0.00    +0.000 C 
BRANCH  17  20
ATOM     18  O   UNL     1      49.767   7.040  13.802  0.00  0.00    +0.000 OA
ATOM     19  C   UNL     1      48.947   6.975  14.714  0.00  0.00    +0.000 C 
ATOM     20  N   UNL     1      47.601   7.155  14.510  0.00  0.00    +0.000 N 
ATOM     21  H   UNL     1      47.001   7.334  15.300  0.00  0.00    +0.000 HD
BRANCH  19  22
ATOM     22  C   UNL     1      49.320   6.641  16.088  0.00  0.00    +0.000 A 
ATOM     23  C   UNL     1      50.109   7.399  16.948  0.00  0.00    +0.000 A 
ATOM     24  N   UNL     1      50.096   6.805  18.183  0.00  0.00    +0.000 N 
ATOM     25  C   UNL     1      49.327   5.680  18.147  0.00  0.00    +0.000 A 
ATOM     26  N   UNL     1      49.061   4.914  19.220  0.00  0.00    +0.000 NA
ATOM     27  C   UNL     1      48.278   3.852  18.924  0.00  0.00    +0.000 A 
ATOM     28  C   UNL     1      47.816   3.514  17.660  0.00  0.00    +0.000 A 
ATOM     29  C   UNL     1      48.124   4.347  16.582  0.00  0.00    +0.000 A 
ATOM     30  C   UNL     1      48.885   5.502  16.840  0.00  0.00    +0.000 A 
ATOM     31  H   UNL     1      50.548   7.144  19.019  0.00  0.00    +0.000 HD
ENDBRANCH  19  22
ENDBRANCH  17  20
ENDBRANCH   1  17
TORSDOF 7
ENDMDL
MODEL 4
REMARK VINA RESULT:    -7.209      2.321      3.112
REMARK INTER + INTRA:         -10.978
REMARK INTER:                 -10.217
REMARK INTRA:                  -0.761
REMARK UNBOUND:                -0.818
REMARK  Name = 
REMARK  7 active torsions:
REMARK  status: ('A' for Active; 'I' for Inactive)
REMARK    1  A    between atoms: C_2  and  C_20
REMARK    2  A    between atoms: N_3  and  C_4
REMARK    3  A    between atoms: C_4  and  C_5
REMARK    4  A    between atoms: C_8  and  N_9
REMARK    5  A    between atoms: N_9  and  C_10
REMARK    6  A    between atoms: C_10  and  C_11
REMARK    7  A    between atoms: C_11  and  C_12
REMARK                            x       y       z     vdW  Elec       q    Type
REMARK                         _______ _______ _______ _____ _____    ______ ____
ROOT
ATOM      1  C   UNL     1      47.080   8.059  13.355  0.00  0.00    +0.000 A 
ATOM      2  C   UNL     1      47.566   6.911  12.739  0.00  0.00    +0.000 A 
ATOM      3  C   UNL     1      46.769   6.266  11.797  0.00  0.00    +0.000 A 
ATOM      4  C   UNL     1      45.495   6.749  11.504  0.00  0.00    +0.000 A 
ATOM      5  C   UNL     1      45.142   7.957  12.107  0.00  0.00    +0.000 A 
ATOM      6  N   UNL     1      45.891   8.618  13.023  0.00  0.00    +0.000 NA
ENDROOT
BRANCH   4   7
ATOM      7  N   UNL     1      44.616   6.148  10.594  0.00  0.00    +0.000 N 
ATOM      8  H   UNL     1      44.793   6.520   9.661  0.00  0.00    +0.000 HD
BRANCH   7   9
ATOM      9  C   UNL     1      44.556   4.677  10.564  0.00  0.00    +0.000 C 
BRANCH   9  10
ATOM     10  C   UNL     1      44.161   4.162   9.173  0.00  0.00    +0.000 C 
BRANCH  10  11
ATOM     11  C   UNL     1      45.238   3.365   8.489  0.00  0.00    +0.000 A 
ATOM     12  C   UNL     1      45.393   2.016   8.799  0.00  0.00    +0.000 A 
ATOM     13  N   UNL     1      46.343   1.235   8.231  0.00  0.00    +0.000 NA
ATOM     14  C   UNL     1      47.138   1.858   7.335  0.00  0.00    +0.000 A 
ATOM     15  C   UNL     1      46.995   3.198   7.022  0.00  0.00    +0.000 A 
ATOM     16  N   UNL     1      46.046   3.979   7.590  0.00  0.00    +0.000 NA
ENDBRANCH  10  11
ENDBRANCH   9  10
ENDBRANCH   7   9
ENDBRANCH   4   7
BRANCH   1  17
ATOM     17  C   UNL     1      47.903   8.761  14.401  0.00  0.00    +0.000 C 
BRANCH  17  20
ATOM     18  O   UNL     1      50.427   7.583  14.750  0.00  0.00    +0.000 OA
ATOM     19  C   UNL     1      49.541   7.332  15.561  0.00  0.00    +0.000 C 
ATOM     20  N   UNL     1      48.279   7.864  15.465  0.00  0.00    +0.000 N 
ATOM     21  H   UNL     1      47.666   7.832  16.264  0.00  0.00    +0.000 HD
BRANCH  19  22
ATOM     22  C   UNL     1      49.729   6.398  16.671  0.00  0.00    +0.000 A 
ATOM     23  C   UNL     1      50.638   6.516  17.719  0.00  0.00    +0.000 A 
ATOM     24  N   UNL     1      50.395   5.511  18.617  0.00  0.00    +0.000 N 
ATOM     25  C   UNL     1      49.359   4.740  18.180  0.00  0.00    +0.000 A 
ATOM     26  N   UNL     1      48.836   3.715  18.876  0.00  0.00    +0.000 NA
ATOM     27  C   UNL     1      47.820   3.105  18.225  0.00  0.00    +0.000 A 
ATOM     28  C   UNL     1      47.361   3.428  16.955  0.00  0.00    +0.000 A 
ATOM     29  C   UNL     1      47.943   4.503  16.280  0.00  0.00    +0.000 A 
ATOM     30  C   UNL     1      48.965   5.215  16.933  0.00  0.00    +0.000 A 
ATOM     31  H   UNL     1      50.869   5.361  19.495  0.00  0.00    +0.000 HD
ENDBRANCH  19  22
ENDBRANCH  17  20
ENDBRANCH   1  17
TORSDOF 7
ENDMDL
MODEL 5
REMARK VINA RESULT:    -7.016      3.677      5.454
REMARK INTER + INTRA:         -10.705
REMARK INTER:                  -9.640
REMARK INTRA:                  -1.066
REMARK UNBOUND:                -0.818
REMARK  Name = 
REMARK  7 active torsions:
REMARK  status: ('A' for Active; 'I' for Inactive)
REMARK    1  A    between atoms: C_2  and  C_20
REMARK    2  A    between atoms: N_3  and  C_4
REMARK    3  A    between atoms: C_4  and  C_5
REMARK    4  A    between atoms: C_8  and  N_9
REMARK    5  A    between atoms: N_9  and  C_10
REMARK    6  A    between atoms: C_10  and  C_11
REMARK    7  A    between atoms: C_11  and  C_12
REMARK                            x       y       z     vdW  Elec       q    Type
REMARK                         _______ _______ _______ _____ _____    ______ ____
ROOT
ATOM      1  C   UNL     1      47.572   4.330  16.152  0.00  0.00    +0.000 A 
ATOM      2  C   UNL     1      48.264   5.531  16.044  0.00  0.00    +0.000 A 
ATOM      3  C   UNL     1      48.167   6.259  14.861  0.00  0.00    +0.000 A 
ATOM      4  C   UNL     1      47.413   5.771  13.796  0.00  0.00    +0.000 A 
ATOM      5  C   UNL     1      46.685   4.606  14.040  0.00  0.00    +0.000 A 
ATOM      6  N   UNL     1      46.747   3.874  15.178  0.00  0.00    +0.000 NA
ENDROOT
BRANCH   4   7
ATOM      7  N   UNL     1      47.285   6.421  12.561  0.00  0.00    +0.000 N 
ATOM      8  H   UNL     1      47.037   5.735  11.846  0.00  0.00    +0.000 HD
BRANCH   7   9
ATOM      9  C   UNL     1      46.396   7.592  12.488  0.00  0.00    +0.000 C 
BRANCH   9  10
ATOM     10  C   UNL     1      45.290   7.391  11.443  0.00  0.00    +0.000 C 
BRANCH  10  11
ATOM     11  C   UNL     1      44.645   6.033  11.491  0.00  0.00    +0.000 A 
ATOM     12  C   UNL     1      43.581   5.811  12.362  0.00  0.00    +0.000 A 
ATOM     13  N   UNL     1      42.953   4.616  12.467  0.00  0.00    +0.000 NA
ATOM     14  C   UNL     1      43.433   3.642  11.664  0.00  0.00    +0.000 A 
ATOM     15  C   UNL     1      44.491   3.851  10.797  0.00  0.00    +0.000 A 
ATOM     16  N   UNL     1      45.119   5.045  10.692  0.00  0.00    +0.000 NA
ENDBRANCH  10  11
ENDBRANCH   9  10
ENDBRANCH   7   9
ENDBRANCH   4   7
BRANCH   1  17
ATOM     17  C   UNL     1      47.682   3.504  17.405  0.00  0.00    +0.000 C 
BRANCH  17  20
ATOM     18  O   UNL     1      49.335   1.700  16.029  0.00  0.00    +0.000 OA
ATOM     19  C   UNL     1      49.796   2.308  16.991  0.00  0.00    +0.000 C 
ATOM     20  N   UNL     1      49.056   3.206  17.720  0.00  0.00    +0.000 N 
ATOM     21  H   UNL     1      49.527   3.852  18.334  0.00  0.00    +0.000 HD
BRANCH  19  22
ATOM     22  C   UNL     1      51.154   2.087  17.486  0.00  0.00    +0.000 A 
ATOM     23  C   UNL     1      51.760   0.862  17.751  0.00  0.00    +0.000 A 
ATOM     24  N   UNL     1      53.075   1.087  18.058  0.00  0.00    +0.000 N 
ATOM     25  C   UNL     1      53.341   2.424  18.007  0.00  0.00    +0.000 A 
ATOM     26  N   UNL     1      54.560   2.959  18.191  0.00  0.00    +0.000 NA
ATOM     27  C   UNL     1      54.561   4.308  18.095  0.00  0.00    +0.000 A 
ATOM     28  C   UNL     1      53.445   5.105  17.883  0.00  0.00    +0.000 A 
ATOM     29  C   UNL     1      52.203   4.494  17.698  0.00  0.00    +0.000 A 
ATOM     30  C   UNL     1      52.150   3.088  17.727  0.00  0.00    +0.000 A 
ATOM     31  H   UNL     1      53.775   0.389  18.260  0.00  0.00    +0.000 HD
ENDBRANCH  19  22
ENDBRANCH  17  20
ENDBRANCH   1  17
TORSDOF 7
ENDMDL
MODEL 6
REMARK VINA RESULT:    -7.004      2.374      9.073
REMARK INTER + INTRA:         -10.689
REMARK INTER:                  -9.475
REMARK INTRA:                  -1.214
REMARK UNBOUND:                -0.818
REMARK  Name = 
REMARK  7 active torsions:
REMARK  status: ('A' for Active; 'I' for Inactive)
REMARK    1  A    between atoms: C_2  and  C_20
REMARK    2  A    between atoms: N_3  and  C_4
REMARK    3  A    between atoms: C_4  and  C_5
REMARK    4  A    between atoms: C_8  and  N_9
REMARK    5  A    between atoms: N_9  and  C_10
REMARK    6  A    between atoms: C_10  and  C_11
REMARK    7  A    between atoms: C_11  and  C_12
REMARK                            x       y       z     vdW  Elec       q    Type
REMARK                         _______ _______ _______ _____ _____    ______ ____
ROOT
ATOM      1  C   UNL     1      48.322   7.781  13.931  0.00  0.00    +0.000 A 
ATOM      2  C   UNL     1      48.203   8.920  14.718  0.00  0.00    +0.000 A 
ATOM      3  C   UNL     1      48.650   8.876  16.037  0.00  0.00    +0.000 A 
ATOM      4  C   UNL     1      49.178   7.697  16.561  0.00  0.00    +0.000 A 
ATOM      5  C   UNL     1      49.338   6.642  15.662  0.00  0.00    +0.000 A 
ATOM      6  N   UNL     1      48.923   6.649  14.372  0.00  0.00    +0.000 NA
ENDROOT
BRANCH   4   7
ATOM      7  N   UNL     1      49.622   7.554  17.882  0.00  0.00    +0.000 N 
ATOM      8  H   UNL     1      50.282   8.302  18.096  0.00  0.00    +0.000 HD
BRANCH   7   9
ATOM      9  C   UNL     1      48.607   7.437  18.941  0.00  0.00    +0.000 C 
BRANCH   9  10
ATOM     10  C   UNL     1      48.648   6.055  19.606  0.00  0.00    +0.000 C 
BRANCH  10  11
ATOM     11  C   UNL     1      48.422   4.913  18.653  0.00  0.00    +0.000 A 
ATOM     12  C   UNL     1      47.152   4.709  18.119  0.00  0.00    +0.000 A 
ATOM     13  N   UNL     1      46.868   3.700  17.261  0.00  0.00    +0.000 NA
ATOM     14  C   UNL     1      47.909   2.895  16.956  0.00  0.00    +0.000 A 
ATOM     15  C   UNL     1      49.173   3.087  17.483  0.00  0.00    +0.000 A 
ATOM     16  N   UNL     1      49.457   4.095  18.340  0.00  0.00    +0.000 NA
ENDBRANCH  10  11
ENDBRANCH   9  10
ENDBRANCH   7   9
ENDBRANCH   4   7
BRANCH   1  17
ATOM     17  C   UNL     1      47.820   7.786  12.513  0.00  0.00    +0.000 C 
BRANCH  17  20
ATOM     18  O   UNL     1      45.086   7.178  12.711  0.00  0.00    +0.000 OA
ATOM     19  C   UNL     1      45.855   6.316  12.295  0.00  0.00    +0.000 C 
ATOM     20  N   UNL     1      47.205   6.529  12.168  0.00  0.00    +0.000 N 
ATOM     21  H   UNL     1      47.755   5.899  11.606  0.00  0.00    +0.000 HD
BRANCH  19  22
ATOM     22  C   UNL     1      45.413   4.965  11.952  0.00  0.00    +0.000 A 
ATOM     23  C   UNL     1      44.959   3.985  12.830  0.00  0.00    +0.000 A 
ATOM     24  N   UNL     1      44.510   2.920  12.095  0.00  0.00    +0.000 N 
ATOM     25  C   UNL     1      44.664   3.177  10.765  0.00  0.00    +0.000 A 
ATOM     26  N   UNL     1      44.252   2.354   9.785  0.00  0.00    +0.000 NA
ATOM     27  C   UNL     1      44.525   2.833   8.550  0.00  0.00    +0.000 A 
ATOM     28  C   UNL     1      45.199   4.013   8.270  0.00  0.00    +0.000 A 
ATOM     29  C   UNL     1      45.603   4.828   9.328  0.00  0.00    +0.000 A 
ATOM     30  C   UNL     1      45.293   4.411  10.636  0.00  0.00    +0.000 A 
ATOM     31  H   UNL     1      44.090   2.075  12.454  0.00  0.00    +0.000 HD
ENDBRANCH  19  22
ENDBRANCH  17  20
ENDBRANCH   1  17
TORSDOF 7
ENDMDL
MODEL 7
REMARK VINA RESULT:    -6.852      2.740      9.460
REMARK INTER + INTRA:         -10.474
REMARK INTER:                  -9.509
REMARK INTRA:                  -0.965
REMARK UNBOUND:                -0.818
REMARK  Name = 
REMARK  7 active torsions:
REMARK  status: ('A' for Active; 'I' for Inactive)
REMARK    1  A    between atoms: C_2  and  C_20
REMARK    2  A    between atoms: N_3  and  C_4
REMARK    3  A    between atoms: C_4  and  C_5
REMARK    4  A    between atoms: C_8  and  N_9
REMARK    5  A    between atoms: N_9  and  C_10
REMARK    6  A    between atoms: C_10  and  C_11
REMARK    7  A    between atoms: C_11  and  C_12
REMARK                            x       y       z     vdW  Elec       q    Type
REMARK                         _______ _______ _______ _____ _____    ______ ____
ROOT
ATOM      1  C   UNL     1      46.348   7.383  12.608  0.00  0.00    +0.000 A 
ATOM      2  C   UNL     1      46.434   8.610  13.253  0.00  0.00    +0.000 A 
ATOM      3  C   UNL     1      47.433   8.802  14.204  0.00  0.00    +0.000 A 
ATOM      4  C   UNL     1      48.309   7.766  14.521  0.00  0.00    +0.000 A 
ATOM      5  C   UNL     1      48.197   6.608  13.750  0.00  0.00    +0.000 A 
ATOM      6  N   UNL     1      47.244   6.386  12.813  0.00  0.00    +0.000 NA
ENDROOT
BRANCH   4   7
ATOM      7  N   UNL     1      49.323   7.859  15.484  0.00  0.00    +0.000 N 
ATOM      8  H   UNL     1      49.853   8.717  15.329  0.00  0.00    +0.000 HD
BRANCH   7   9
ATOM      9  C   UNL     1      48.941   7.732  16.900  0.00  0.00    +0.000 C 
BRANCH   9  10
ATOM     10  C   UNL     1      49.719   6.603  17.589  0.00  0.00    +0.000 C 
BRANCH  10  11
ATOM     11  C   UNL     1      49.218   5.224  17.254  0.00  0.00    +0.000 A 
ATOM     12  C   UNL     1      50.094   4.143  17.318  0.00  0.00    +0.000 A 
ATOM     13  N   UNL     1      49.720   2.875  17.025  0.00  0.00    +0.000 NA
ATOM     14  C   UNL     1      48.428   2.726  16.662  0.00  0.00    +0.000 A 
ATOM     15  C   UNL     1      47.550   3.793  16.593  0.00  0.00    +0.000 A 
ATOM     16  N   UNL     1      47.923   5.061  16.885  0.00  0.00    +0.000 NA
ENDBRANCH  10  11
ENDBRANCH   9  10
ENDBRANCH   7   9
ENDBRANCH   4   7
BRANCH   1  17
ATOM     17  C   UNL     1      45.260   7.133  11.599  0.00  0.00    +0.000 C 
BRANCH  17  20
ATOM     18  O   UNL     1      43.193   5.510  10.612  0.00  0.00    +0.000 OA
ATOM     19  C   UNL     1      44.352   5.124  10.500  0.00  0.00    +0.000 C 
ATOM     20  N   UNL     1      45.422   5.854  10.956  0.00  0.00    +0.000 N 
ATOM     21  H   UNL     1      46.350   5.626  10.635  0.00  0.00    +0.000 HD
BRANCH  19  22
ATOM     22  C   UNL     1      44.698   3.825   9.924  0.00  0.00    +0.000 A 
ATOM     23  C   UNL     1      44.213   2.580  10.316  0.00  0.00    +0.000 A 
ATOM     24  N   UNL     1      44.673   1.639   9.433  0.00  0.00    +0.000 N 
ATOM     25  C   UNL     1      45.448   2.235   8.483  0.00  0.00    +0.000 A 
ATOM     26  N   UNL     1      45.990   1.588   7.436  0.00  0.00    +0.000 NA
ATOM     27  C   UNL     1      46.721   2.400   6.639  0.00  0.00    +0.000 A 
ATOM     28  C   UNL     1      46.961   3.749   6.861  0.00  0.00    +0.000 A 
ATOM     29  C   UNL     1      46.372   4.368   7.965  0.00  0.00    +0.000 A 
ATOM     30  C   UNL     1      45.550   3.587   8.797  0.00  0.00    +0.000 A 
ATOM     31  H   UNL     1      44.458   0.653   9.437  0.00  0.00    +0.000 HD
ENDBRANCH  19  22
ENDBRANCH  17  20
ENDBRANCH   1  17
TORSDOF 7
ENDMDL
MODEL 8
REMARK VINA RESULT:    -6.848      5.020      7.014
REMARK INTER + INTRA:         -10.469
REMARK INTER:                  -9.627
REMARK INTRA:                  -0.841
REMARK UNBOUND:                -0.818
REMARK  Name = 
REMARK  7 active torsions:
REMARK  status: ('A' for Active; 'I' for Inactive)
REMARK    1  A    between atoms: C_2  and  C_20
REMARK    2  A    between atoms: N_3  and  C_4
REMARK    3  A    between atoms: C_4  and  C_5
REMARK    4  A    between atoms: C_8  and  N_9
REMARK    5  A    between atoms: N_9  and  C_10
REMARK    6  A    between atoms: C_10  and  C_11
REMARK    7  A    between atoms: C_11  and  C_12
REMARK                            x       y       z     vdW  Elec       q    Type
REMARK                         _______ _______ _______ _____ _____    ______ ____
ROOT
ATOM      1  C   UNL     1      48.194   6.582  12.825  0.00  0.00    +0.000 A 
ATOM      2  C   UNL     1      47.389   6.968  11.760  0.00  0.00    +0.000 A 
ATOM      3  C   UNL     1      46.236   6.236  11.488  0.00  0.00    +0.000 A 
ATOM      4  C   UNL     1      45.917   5.118  12.256  0.00  0.00    +0.000 A 
ATOM      5  C   UNL     1      46.738   4.872  13.356  0.00  0.00    +0.000 A 
ATOM      6  N   UNL     1      47.864   5.564  13.658  0.00  0.00    +0.000 NA
ENDROOT
BRANCH   4   7
ATOM      7  N   UNL     1      44.795   4.307  12.036  0.00  0.00    +0.000 N 
ATOM      8  H   UNL     1      44.098   4.498  12.756  0.00  0.00    +0.000 HD
BRANCH   7   9
ATOM      9  C   UNL     1      44.181   4.329  10.698  0.00  0.00    +0.000 C 
BRANCH   9  10
ATOM     10  C   UNL     1      44.223   2.943  10.040  0.00  0.00    +0.000 C 
BRANCH  10  11
ATOM     11  C   UNL     1      45.242   2.820   8.940  0.00  0.00    +0.000 A 
ATOM     12  C   UNL     1      45.574   3.942   8.186  0.00  0.00    +0.000 A 
ATOM     13  N   UNL     1      46.476   3.910   7.176  0.00  0.00    +0.000 NA
ATOM     14  C   UNL     1      47.036   2.703   6.945  0.00  0.00    +0.000 A 
ATOM     15  C   UNL     1      46.712   1.581   7.686  0.00  0.00    +0.000 A 
ATOM     16  N   UNL     1      45.810   1.613   8.695  0.00  0.00    +0.000 NA
ENDBRANCH  10  11
ENDBRANCH   9  10
ENDBRANCH   7   9
ENDBRANCH   4   7
BRANCH   1  17
ATOM     17  C   UNL     1      49.463   7.332  13.124  0.00  0.00    +0.000 C 
BRANCH  17  20
ATOM     18  O   UNL     1      51.998   8.532  12.995  0.00  0.00    +0.000 OA
ATOM     19  C   UNL     1      51.454   8.187  11.950  0.00  0.00    +0.000 C 
ATOM     20  N   UNL     1      50.215   7.594  11.923  0.00  0.00    +0.000 N 
ATOM     21  H   UNL     1      49.915   7.113  11.090  0.00  0.00    +0.000 HD
BRANCH  19  22
ATOM     22  C   UNL     1      52.047   8.427  10.635  0.00  0.00    +0.000 A 
ATOM     23  C   UNL     1      52.094   9.636   9.947  0.00  0.00    +0.000 A 
ATOM     24  N   UNL     1      52.859   9.465   8.823  0.00  0.00    +0.000 N 
ATOM     25  C   UNL     1      53.305   8.178   8.758  0.00  0.00    +0.000 A 
ATOM     26  N   UNL     1      54.136   7.714   7.809  0.00  0.00    +0.000 NA
ATOM     27  C   UNL     1      54.426   6.402   7.961  0.00  0.00    +0.000 A 
ATOM     28  C   UNL     1      53.908   5.567   8.941  0.00  0.00    +0.000 A 
ATOM     29  C   UNL     1      53.048   6.104   9.902  0.00  0.00    +0.000 A 
ATOM     30  C   UNL     1      52.758   7.479   9.830  0.00  0.00    +0.000 A 
ATOM     31  H   UNL     1      53.104  10.173   8.147  0.00  0.00    +0.000 HD
ENDBRANCH  19  22
ENDBRANCH  17  20
ENDBRANCH   1  17
TORSDOF 7
ENDMDL
MODEL 9
REMARK VINA RESULT:    -6.739      3.086      4.094
REMARK INTER + INTRA:         -10.315
REMARK INTER:                  -9.529
REMARK INTRA:                  -0.786
REMARK UNBOUND:                -0.818
REMARK  Name = 
REMARK  7 active torsions:
REMARK  status: ('A' for Active; 'I' for Inactive)
REMARK    1  A    between atoms: C_2  and  C_20
REMARK    2  A    between atoms: N_3  and  C_4
REMARK    3  A    between atoms: C_4  and  C_5
REMARK    4  A    between atoms: C_8  and  N_9
REMARK    5  A    between atoms: N_9  and  C_10
REMARK    6  A    between atoms: C_10  and  C_11
REMARK    7  A    between atoms: C_11  and  C_12
REMARK                            x       y       z     vdW  Elec       q    Type
REMARK                         _______ _______ _______ _____ _____    ______ ____
ROOT
ATOM      1  C   UNL     1      47.910   7.114  14.031  0.00  0.00    +0.000 A 
ATOM      2  C   UNL     1      47.252   8.096  13.302  0.00  0.00    +0.000 A 
ATOM      3  C   UNL     1      46.461   7.716  12.221  0.00  0.00    +0.000 A 
ATOM      4  C   UNL     1      46.360   6.372  11.863  0.00  0.00    +0.000 A 
ATOM      5  C   UNL     1      46.983   5.460  12.715  0.00  0.00    +0.000 A 
ATOM      6  N   UNL     1      47.755   5.791  13.779  0.00  0.00    +0.000 NA
ENDROOT
BRANCH   4   7
ATOM      7  N   UNL     1      45.613   5.902  10.775  0.00  0.00    +0.000 N 
ATOM      8  H   UNL     1      46.249   5.560  10.055  0.00  0.00    +0.000 HD
BRANCH   7   9
ATOM      9  C   UNL     1      44.551   4.917  11.042  0.00  0.00    +0.000 C 
BRANCH   9  10
ATOM     10  C   UNL     1      43.985   4.338   9.739  0.00  0.00    +0.000 C 
BRANCH  10  11
ATOM     11  C   UNL     1      45.006   3.627   8.894  0.00  0.00    +0.000 A 
ATOM     12  C   UNL     1      45.185   2.254   9.045  0.00  0.00    +0.000 A 
ATOM     13  N   UNL     1      46.087   1.545   8.327  0.00  0.00    +0.000 NA
ATOM     14  C   UNL     1      46.811   2.265   7.444  0.00  0.00    +0.000 A 
ATOM     15  C   UNL     1      46.645   3.630   7.286  0.00  0.00    +0.000 A 
ATOM     16  N   UNL     1      45.743   4.338   8.005  0.00  0.00    +0.000 NA
ENDBRANCH  10  11
ENDBRANCH   9  10
ENDBRANCH   7   9
ENDBRANCH   4   7
BRANCH   1  17
ATOM     17  C   UNL     1      48.798   7.495  15.184  0.00  0.00    +0.000 C 
BRANCH  17  20
ATOM     18  O   UNL     1      51.009   7.377  16.911  0.00  0.00    +0.000 OA
ATOM     19  C   UNL     1      50.338   6.364  16.740  0.00  0.00    +0.000 C 
ATOM     20  N   UNL     1      49.242   6.333  15.913  0.00  0.00    +0.000 N 
ATOM     21  H   UNL     1      48.588   5.570  15.986  0.00  0.00    +0.000 HD
BRANCH  19  22
ATOM     22  C   UNL     1      50.677   5.081  17.355  0.00  0.00    +0.000 A 
ATOM     23  C   UNL     1      49.790   4.096  17.780  0.00  0.00    +0.000 A 
ATOM     24  N   UNL     1      50.513   2.998  18.163  0.00  0.00    +0.000 N 
ATOM     25  C   UNL     1      51.845   3.243  18.005  0.00  0.00    +0.000 A 
ATOM     26  N   UNL     1      52.811   2.335  18.230  0.00  0.00    +0.000 NA
ATOM     27  C   UNL     1      54.052   2.825  18.007  0.00  0.00    +0.000 A 
ATOM     28  C   UNL     1      54.354   4.127  17.636  0.00  0.00    +0.000 A 
ATOM     29  C   UNL     1      53.310   5.027  17.417  0.00  0.00    +0.000 A 
ATOM     30  C   UNL     1      51.993   4.558  17.575  0.00  0.00    +0.000 A 
ATOM     31  H   UNL     1      50.144   2.115  18.482  0.00  0.00    +0.000 HD
ENDBRANCH  19  22
ENDBRANCH  17  20
ENDBRANCH   1  17
TORSDOF 7
ENDMDL
