MODEL 1
REMARK VINA RESULT:    -7.861      0.000      0.000
REMARK INTER + INTRA:          -9.661
REMARK INTER:                  -9.239
REMARK INTRA:                  -0.422
REMARK UNBOUND:                -0.422
REMARK  Name = 
REMARK  3 active torsions:
REMARK  status: ('A' for Active; 'I' for Inactive)
REMARK    1  A    between atoms: C_2  and  C_4
REMARK    2  A    between atoms: N_8  and  C_9
REMARK    3  A    between atoms: C_9  and  C_10
REMARK                            x       y       z     vdW  Elec       q    Type
REMARK                         _______ _______ _______ _____ _____    ______ ____
ROOT
ATOM      1  C   UNL     1      46.444   2.257   7.756  0.00  0.00    +0.000 A 
ATOM      2  C   UNL     1      46.373   3.598   7.395  0.00  0.00    +0.000 A 
ATOM      3  C   UNL     1      45.470   4.427   8.061  0.00  0.00    +0.000 A 
ATOM      4  C   UNL     1      44.688   3.914   9.096  0.00  0.00    +0.000 A 
ATOM      5  N   UNL     1      43.817   4.806   9.732  0.00  0.00    +0.000 N 
ATOM      6  N   UNL     1      44.745   2.618   9.453  0.00  0.00    +0.000 NA
ATOM      7  C   UNL     1      45.602   1.813   8.766  0.00  0.00    +0.000 A 
ATOM      8  H   UNL     1      43.077   5.047   9.079  0.00  0.00    +0.000 HD
ENDROOT
BRANCH   1  10
ATOM      9  N   UNL     1      48.473   1.798   6.498  0.00  0.00    +0.000 N 
ATOM     10  C   UNL     1      47.346   1.296   7.089  0.00  0.00    +0.000 C 
ATOM     11  O   UNL     1      47.114   0.094   7.093  0.00  0.00    +0.000 OA
ATOM     12  H   UNL     1      49.128   1.118   6.132  0.00  0.00    +0.000 HD
ATOM     13  H   UNL     1      48.824   2.725   6.692  0.00  0.00    +0.000 HD
ENDBRANCH   1  10
BRANCH   5  14
ATOM     14  C   UNL     1      43.304   4.400  11.036  0.00  0.00    +0.000 C 
BRANCH  14  15
ATOM     15  C   UNL     1      44.134   5.069  12.156  0.00  0.00    +0.000 C 
ATOM     16  C   UNL     1      44.738   6.416  11.723  0.00  0.00    +0.000 C 
ATOM     17  C   UNL     1      45.582   7.043  12.831  0.00  0.00    +0.000 C 
ATOM     18  C   UNL     1      46.669   6.088  13.316  0.00  0.00    +0.000 C 
ATOM     19  C   UNL     1      46.072   4.765  13.779  0.00  0.00    +0.000 C 
ATOM     20  C   UNL     1      45.226   4.118  12.686  0.00  0.00    +0.000 C 
ENDBRANCH  14  15
ENDBRANCH   5  14
TORSDOF 3
ENDMDL
MODEL 2
REMARK VINA RESULT:    -7.402      3.090      6.158
REMARK INTER + INTRA:          -9.122
REMARK INTER:                  -8.793
REMARK INTRA:                  -0.330
REMARK UNBOUND:                -0.422
REMARK  Name = 
REMARK  3 active torsions:
REMARK  status: ('A' for Active; 'I' for Inactive)
REMARK    1  A    between atoms: C_2  and  C_4
REMARK    2  A    between atoms: N_8  and  C_9
REMARK    3  A    between atoms: C_9  and  C_10
REMARK                            x       y       z     vdW  Elec       q    Type
REMARK                         _______ _______ _______ _____ _____    ______ ____
ROOT
ATOM      1  C   UNL     1      46.502   4.879  13.715  0.00  0.00    +0.000 A 
ATOM      2  C   UNL     1      46.447   6.100  13.053  0.00  0.00    +0.000 A 
ATOM      3  C   UNL     1      45.944   6.139  11.753  0.00  0.00    +0.000 A 
ATOM      4  C   UNL     1      45.471   4.970  11.156  0.00  0.00    +0.000 A 
ATOM      5  N   UNL     1      44.963   5.085   9.857  0.00  0.00    +0.000 N 
ATOM      6  N   UNL     1      45.521   3.782  11.783  0.00  0.00    +0.000 NA
ATOM      7  C   UNL     1      46.052   3.754  13.037  0.00  0.00    +0.000 A 
ATOM      8  H   UNL     1      45.738   5.281   9.229  0.00  0.00    +0.000 HD
ENDROOT
BRANCH   1  10
ATOM      9  N   UNL     1      47.878   5.719  15.535  0.00  0.00    +0.000 N 
ATOM     10  C   UNL     1      47.045   4.733  15.081  0.00  0.00    +0.000 C 
ATOM     11  O   UNL     1      46.739   3.785  15.792  0.00  0.00    +0.000 OA
ATOM     12  H   UNL     1      48.161   5.653  16.505  0.00  0.00    +0.000 HD
ATOM     13  H   UNL     1      47.946   6.623  15.090  0.00  0.00    +0.000 HD
ENDBRANCH   1  10
BRANCH   5  14
ATOM     14  C   UNL     1      44.123   3.991   9.384  0.00  0.00    +0.000 C 
BRANCH  14  15
ATOM     15  C   UNL     1      44.890   3.157   8.332  0.00  0.00    +0.000 C 
ATOM     16  C   UNL     1      45.484   1.865   8.920  0.00  0.00    +0.000 C 
ATOM     17  C   UNL     1      46.268   1.072   7.874  0.00  0.00    +0.000 C 
ATOM     18  C   UNL     1      47.352   1.925   7.221  0.00  0.00    +0.000 C 
ATOM     19  C   UNL     1      46.762   3.190   6.608  0.00  0.00    +0.000 C 
ATOM     20  C   UNL     1      45.977   3.999   7.636  0.00  0.00    +0.000 C 
ENDBRANCH  14  15
ENDBRANCH   5  14
TORSDOF 3
ENDMDL
MODEL 3
REMARK VINA RESULT:    -7.123      1.133      1.523
REMARK INTER + INTRA:          -8.795
REMARK INTER:                  -8.526
REMARK INTRA:                  -0.269
REMARK UNBOUND:                -0.422
REMARK  Name = 
REMARK  3 active torsions:
REMARK  status: ('A' for Active; 'I' for Inactive)
REMARK    1  A    between atoms: C_2  and  C_4
REMARK    2  A    between atoms: N_8  and  C_9
REMARK    3  A    between atoms: C_9  and  C_10
REMARK                            x       y       z     vdW  Elec       q    Type
REMARK                         _______ _______ _______ _____ _____    ______ ____
ROOT
ATOM      1  C   UNL     1      46.580   2.565   7.314  0.00  0.00    +0.000 A 
ATOM      2  C   UNL     1      45.981   1.531   8.025  0.00  0.00    +0.000 A 
ATOM      3  C   UNL     1      45.162   1.846   9.110  0.00  0.00    +0.000 A 
ATOM      4  C   UNL     1      44.925   3.181   9.436  0.00  0.00    +0.000 A 
ATOM      5  N   UNL     1      44.079   3.425  10.524  0.00  0.00    +0.000 N 
ATOM      6  N   UNL     1      45.499   4.191   8.758  0.00  0.00    +0.000 NA
ATOM      7  C   UNL     1      46.329   3.865   7.728  0.00  0.00    +0.000 A 
ATOM      8  H   UNL     1      44.561   3.138  11.372  0.00  0.00    +0.000 HD
ENDROOT
BRANCH   1  10
ATOM      9  N   UNL     1      47.408   3.201   5.119  0.00  0.00    +0.000 N 
ATOM     10  C   UNL     1      47.485   2.330   6.171  0.00  0.00    +0.000 C 
ATOM     11  O   UNL     1      48.296   1.412   6.176  0.00  0.00    +0.000 OA
ATOM     12  H   UNL     1      48.101   3.084   4.390  0.00  0.00    +0.000 HD
ATOM     13  H   UNL     1      46.950   4.098   5.186  0.00  0.00    +0.000 HD
ENDBRANCH   1  10
BRANCH   5  14
ATOM     14  C   UNL     1      43.516   4.767  10.627  0.00  0.00    +0.000 C 
BRANCH  14  15
ATOM     15  C   UNL     1      44.212   5.542  11.770  0.00  0.00    +0.000 C 
ATOM     16  C   UNL     1      44.828   6.870  11.296  0.00  0.00    +0.000 C 
ATOM     17  C   UNL     1      45.540   7.604  12.431  0.00  0.00    +0.000 C 
ATOM     18  C   UNL     1      46.593   6.721  13.095  0.00  0.00    +0.000 C 
ATOM     19  C   UNL     1      45.981   5.418  13.597  0.00  0.00    +0.000 C 
ATOM     20  C   UNL     1      45.266   4.666  12.477  0.00  0.00    +0.000 C 
ENDBRANCH  14  15
ENDBRANCH   5  14
TORSDOF 3
ENDMDL
MODEL 4
REMARK VINA RESULT:    -5.985      4.327      6.113
REMARK INTER + INTRA:          -7.457
REMARK INTER:                  -7.162
REMARK INTRA:                  -0.296
REMARK UNBOUND:                -0.422
REMARK  Name = 
REMARK  3 active torsions:
REMARK  status: ('A' for Active; 'I' for Inactive)
REMARK    1  A    between atoms: C_2  and  C_4
REMARK    2  A    between atoms: N_8  and  C_9
REMARK    3  A    between atoms: C_9  and  C_10
REMARK                            x       y       z     vdW  Elec       q    Type
REMARK                         _______ _______ _______ _____ _____    ______ ____
ROOT
ATOM      1  C   UNL     1      45.584   5.047  11.749  0.00  0.00    +0.000 A 
ATOM      2  C   UNL     1      46.580   5.952  12.098  0.00  0.00    +0.000 A 
ATOM      3  C   UNL     1      47.118   5.899  13.384  0.00  0.00    +0.000 A 
ATOM      4  C   UNL     1      46.682   4.922  14.279  0.00  0.00    +0.000 A 
ATOM      5  N   UNL     1      47.278   4.915  15.545  0.00  0.00    +0.000 N 
ATOM      6  N   UNL     1      45.718   4.042  13.956  0.00  0.00    +0.000 NA
ATOM      7  C   UNL     1      45.174   4.134  12.711  0.00  0.00    +0.000 A 
ATOM      8  H   UNL     1      46.966   5.741  16.048  0.00  0.00    +0.000 HD
ENDROOT
BRANCH   1  10
ATOM      9  N   UNL     1      45.667   5.500   9.362  0.00  0.00    +0.000 N 
ATOM     10  C   UNL     1      44.933   5.045  10.423  0.00  0.00    +0.000 C 
ATOM     11  O   UNL     1      43.794   4.622  10.271  0.00  0.00    +0.000 OA
ATOM     12  H   UNL     1      45.242   5.400   8.449  0.00  0.00    +0.000 HD
ATOM     13  H   UNL     1      46.670   5.609   9.400  0.00  0.00    +0.000 HD
ENDBRANCH   1  10
BRANCH   5  14
ATOM     14  C   UNL     1      47.132   3.694  16.330  0.00  0.00    +0.000 C 
BRANCH  14  15
ATOM     15  C   UNL     1      48.410   3.452  17.165  0.00  0.00    +0.000 C 
ATOM     16  C   UNL     1      49.288   4.710  17.282  0.00  0.00    +0.000 C 
ATOM     17  C   UNL     1      50.563   4.441  18.082  0.00  0.00    +0.000 C 
ATOM     18  C   UNL     1      51.355   3.275  17.498  0.00  0.00    +0.000 C 
ATOM     19  C   UNL     1      50.499   2.017  17.412  0.00  0.00    +0.000 C 
ATOM     20  C   UNL     1      49.221   2.262  16.615  0.00  0.00    +0.000 C 
ENDBRANCH  14  15
ENDBRANCH   5  14
TORSDOF 3
ENDMDL
MODEL 5
REMARK VINA RESULT:    -5.859      3.913      5.662
REMARK INTER + INTRA:          -7.309
REMARK INTER:                  -7.110
REMARK INTRA:                  -0.199
REMARK UNBOUND:                -0.422
REMARK  Name = 
REMARK  3 active torsions:
REMARK  status: ('A' for Active; 'I' for Inactive)
REMARK    1  A    between atoms: C_2  and  C_4
REMARK    2  A    between atoms: N_8  and  C_9
REMARK    3  A    between atoms: C_9  and  C_10
REMARK                            x       y       z     vdW  Elec       q    Type
REMARK                         _______ _______ _______ _____ _____    ______ ____
ROOT
ATOM      1  C   UNL     1      45.112   4.159  11.208  0.00  0.00    +0.000 A 
ATOM      2  C   UNL     1      45.638   5.432  11.397  0.00  0.00    +0.000 A 
ATOM      3  C   UNL     1      46.214   5.747  12.628  0.00  0.00    +0.000 A 
ATOM      4  C   UNL     1      46.291   4.776  13.627  0.00  0.00    +0.000 A 
ATOM      5  N   UNL     1      46.898   5.155  14.830  0.00  0.00    +0.000 N 
ATOM      6  N   UNL     1      45.784   3.542  13.459  0.00  0.00    +0.000 NA
ATOM      7  C   UNL     1      45.188   3.264  12.266  0.00  0.00    +0.000 A 
ATOM      8  H   UNL     1      46.287   5.817  15.299  0.00  0.00    +0.000 HD
ENDROOT
BRANCH   1  10
ATOM      9  N   UNL     1      43.793   4.705   9.240  0.00  0.00    +0.000 N 
ATOM     10  C   UNL     1      44.456   3.743   9.952  0.00  0.00    +0.000 C 
ATOM     11  O   UNL     1      44.528   2.590   9.545  0.00  0.00    +0.000 OA
ATOM     12  H   UNL     1      43.434   4.425   8.336  0.00  0.00    +0.000 HD
ATOM     13  H   UNL     1      43.927   5.693   9.403  0.00  0.00    +0.000 HD
ENDBRANCH   1  10
BRANCH   5  14
ATOM     14  C   UNL     1      47.335   4.076  15.709  0.00  0.00    +0.000 C 
BRANCH  14  15
ATOM     15  C   UNL     1      48.128   4.661  16.902  0.00  0.00    +0.000 C 
ATOM     16  C   UNL     1      49.258   3.730  17.374  0.00  0.00    +0.000 C 
ATOM     17  C   UNL     1      50.006   4.308  18.575  0.00  0.00    +0.000 C 
ATOM     18  C   UNL     1      49.055   4.638  19.721  0.00  0.00    +0.000 C 
ATOM     19  C   UNL     1      47.953   5.588  19.266  0.00  0.00    +0.000 C 
ATOM     20  C   UNL     1      47.190   5.028  18.068  0.00  0.00    +0.000 C 
ENDBRANCH  14  15
ENDBRANCH   5  14
TORSDOF 3
ENDMDL
MODEL 6
REMARK VINA RESULT:    -5.468      3.672      5.457
REMARK INTER + INTRA:          -6.849
REMARK INTER:                  -6.511
REMARK INTRA:                  -0.338
REMARK UNBOUND:                -0.422
REMARK  Name = 
REMARK  3 active torsions:
REMARK  status: ('A' for Active; 'I' for Inactive)
REMARK    1  A    between atoms: C_2  and  C_4
REMARK    2  A    between atoms: N_8  and  C_9
REMARK    3  A    between atoms: C_9  and  C_10
REMARK                            x       y       z     vdW  Elec       q    Type
REMARK                         _______ _______ _______ _____ _____    ______ ____
ROOT
ATOM      1  C   UNL     1      44.213   4.442  11.709  0.00  0.00    +0.000 A 
ATOM      2  C   UNL     1      43.551   5.508  11.110  0.00  0.00    +0.000 A 
ATOM      3  C   UNL     1      43.892   6.808  11.485  0.00  0.00    +0.000 A 
ATOM      4  C   UNL     1      44.910   7.018  12.415  0.00  0.00    +0.000 A 
ATOM      5  N   UNL     1      45.212   8.348  12.730  0.00  0.00    +0.000 N 
ATOM      6  N   UNL     1      45.557   5.996  13.003  0.00  0.00    +0.000 NA
ATOM      7  C   UNL     1      45.184   4.733  12.657  0.00  0.00    +0.000 A 
ATOM      8  H   UNL     1      44.435   8.734  13.257  0.00  0.00    +0.000 HD
ENDROOT
BRANCH   1  10
ATOM      9  N   UNL     1      43.691   2.188  12.457  0.00  0.00    +0.000 N 
ATOM     10  C   UNL     1      43.901   3.031  11.400  0.00  0.00    +0.000 C 
ATOM     11  O   UNL     1      43.801   2.637  10.246  0.00  0.00    +0.000 OA
ATOM     12  H   UNL     1      43.383   1.251  12.228  0.00  0.00    +0.000 HD
ATOM     13  H   UNL     1      43.511   2.522  13.393  0.00  0.00    +0.000 HD
ENDBRANCH   1  10
BRANCH   5  14
ATOM     14  C   UNL     1      46.500   8.591  13.372  0.00  0.00    +0.000 C 
BRANCH  14  15
ATOM     15  C   UNL     1      47.593   8.785  12.296  0.00  0.00    +0.000 C 
ATOM     16  C   UNL     1      48.808   7.865  12.514  0.00  0.00    +0.000 C 
ATOM     17  C   UNL     1      49.892   8.097  11.462  0.00  0.00    +0.000 C 
ATOM     18  C   UNL     1      50.318   9.560  11.410  0.00  0.00    +0.000 C 
ATOM     19  C   UNL     1      49.123  10.473  11.160  0.00  0.00    +0.000 C 
ATOM     20  C   UNL     1      48.028  10.261  12.202  0.00  0.00    +0.000 C 
ENDBRANCH  14  15
ENDBRANCH   5  14
TORSDOF 3
ENDMDL
MODEL 7
REMARK VINA RESULT:    -5.411      2.733      4.273
REMARK INTER + INTRA:          -6.782
REMARK INTER:                  -6.399
REMARK INTRA:                  -0.383
REMARK UNBOUND:                -0.422
REMARK  Name = 
REMARK  3 active torsions:
REMARK  status: ('A' for Active; 'I' for Inactive)
REMARK    1  A    between atoms: C_2  and  C_4
REMARK    2  A    between atoms: N_8  and  C_9
REMARK    3  A    between atoms: C_9  and  C_10
REMARK                            x       y       z     vdW  Elec       q    Type
REMARK                         _______ _______ _______ _____ _____    ______ ____
ROOT
ATOM      1  C   UNL     1      44.944   3.796  10.245  0.00  0.00    +0.000 A 
ATOM      2  C   UNL     1      44.870   3.370  11.567  0.00  0.00    +0.000 A 
ATOM      3  C   UNL     1      45.260   4.247  12.579  0.00  0.00    +0.000 A 
ATOM      4  C   UNL     1      45.674   5.539  12.258  0.00  0.00    +0.000 A 
ATOM      5  N   UNL     1      46.033   6.372  13.324  0.00  0.00    +0.000 N 
ATOM      6  N   UNL     1      45.753   5.964  10.984  0.00  0.00    +0.000 NA
ATOM      7  C   UNL     1      45.409   5.082  10.005  0.00  0.00    +0.000 A 
ATOM      8  H   UNL     1      46.900   6.022  13.722  0.00  0.00    +0.000 HD
ENDROOT
BRANCH   1  10
ATOM      9  N   UNL     1      44.318   3.543   7.910  0.00  0.00    +0.000 N 
ATOM     10  C   UNL     1      44.583   2.930   9.104  0.00  0.00    +0.000 C 
ATOM     11  O   UNL     1      44.552   1.711   9.212  0.00  0.00    +0.000 OA
ATOM     12  H   UNL     1      44.169   2.931   7.117  0.00  0.00    +0.000 HD
ATOM     13  H   UNL     1      44.580   4.499   7.718  0.00  0.00    +0.000 HD
ENDBRANCH   1  10
BRANCH   5  14
ATOM     14  C   UNL     1      46.081   7.803  13.049  0.00  0.00    +0.000 C 
BRANCH  14  15
ATOM     15  C   UNL     1      47.541   8.305  13.132  0.00  0.00    +0.000 C 
ATOM     16  C   UNL     1      48.107   8.712  11.760  0.00  0.00    +0.000 C 
ATOM     17  C   UNL     1      49.561   9.172  11.858  0.00  0.00    +0.000 C 
ATOM     18  C   UNL     1      50.439   8.113  12.519  0.00  0.00    +0.000 C 
ATOM     19  C   UNL     1      49.902   7.731  13.893  0.00  0.00    +0.000 C 
ATOM     20  C   UNL     1      48.450   7.266  13.818  0.00  0.00    +0.000 C 
ENDBRANCH  14  15
ENDBRANCH   5  14
TORSDOF 3
ENDMDL
MODEL 8
REMARK VINA RESULT:    -5.177      3.718      5.558
REMARK INTER + INTRA:          -6.507
REMARK INTER:                  -6.201
REMARK INTRA:                  -0.306
REMARK UNBOUND:                -0.422
REMARK  Name = 
REMARK  3 active torsions:
REMARK  status: ('A' for Active; 'I' for Inactive)
REMARK    1  A    between atoms: C_2  and  C_4
REMARK    2  A    between atoms: N_8  and  C_9
REMARK    3  A    between atoms: C_9  and  C_10
REMARK                            x       y       z     vdW  Elec       q    Type
REMARK                         _______ _______ _______ _____ _____    ______ ____
ROOT
ATOM      1  C   UNL     1      44.852   4.202  11.587  0.00  0.00    +0.000 A 
ATOM      2  C   UNL     1      45.037   5.187  10.624  0.00  0.00    +0.000 A 
ATOM      3  C   UNL     1      45.782   6.319  10.954  0.00  0.00    +0.000 A 
ATOM      4  C   UNL     1      46.359   6.427  12.219  0.00  0.00    +0.000 A 
ATOM      5  N   UNL     1      47.108   7.581  12.476  0.00  0.00    +0.000 N 
ATOM      6  N   UNL     1      46.186   5.482  13.161  0.00  0.00    +0.000 NA
ATOM      7  C   UNL     1      45.422   4.403  12.836  0.00  0.00    +0.000 A 
ATOM      8  H   UNL     1      46.469   8.369  12.526  0.00  0.00    +0.000 HD
ENDROOT
BRANCH   1  10
ATOM      9  N   UNL     1      43.621   2.284  12.435  0.00  0.00    +0.000 N 
ATOM     10  C   UNL     1      44.055   2.982  11.341  0.00  0.00    +0.000 C 
ATOM     11  O   UNL     1      43.767   2.626  10.206  0.00  0.00    +0.000 OA
ATOM     12  H   UNL     1      42.995   1.509  12.251  0.00  0.00    +0.000 HD
ATOM     13  H   UNL     1      43.615   2.677  13.365  0.00  0.00    +0.000 HD
ENDBRANCH   1  10
BRANCH   5  14
ATOM     14  C   UNL     1      48.022   7.527  13.612  0.00  0.00    +0.000 C 
BRANCH  14  15
ATOM     15  C   UNL     1      49.484   7.524  13.108  0.00  0.00    +0.000 C 
ATOM     16  C   UNL     1      50.382   8.495  13.893  0.00  0.00    +0.000 C 
ATOM     17  C   UNL     1      51.814   8.503  13.358  0.00  0.00    +0.000 C 
ATOM     18  C   UNL     1      51.852   8.809  11.864  0.00  0.00    +0.000 C 
ATOM     19  C   UNL     1      50.990   7.828  11.079  0.00  0.00    +0.000 C 
ATOM     20  C   UNL     1      49.554   7.806  11.595  0.00  0.00    +0.000 C 
ENDBRANCH  14  15
ENDBRANCH   5  14
TORSDOF 3
ENDMDL
MODEL 9
REMARK VINA RESULT:    -4.902      4.466      6.475
REMARK INTER + INTRA:          -6.183
REMARK INTER:                  -5.953
REMARK INTRA:                  -0.231
REMARK UNBOUND:                -0.422
REMARK  Name = 
REMARK  3 active torsions:
REMARK  status: ('A' for Active; 'I' for Inactive)
REMARK    1  A    between atoms: C_2  and  C_4
REMARK    2  A    between atoms: N_8  and  C_9
REMARK    3  A    between atoms: C_9  and  C_10
REMARK                            x       y       z     vdW  Elec       q    Type
REMARK                         _______ _______ _______ _____ _____    ______ ____
ROOT
ATOM      1  C   UNL     1      44.963   4.662  12.496  0.00  0.00    +0.000 A 
ATOM      2  C   UNL     1      45.862   4.476  13.540  0.00  0.00    +0.000 A 
ATOM      3  C   UNL     1      47.032   5.235  13.563  0.00  0.00    +0.000 A 
ATOM      4  C   UNL     1      47.261   6.189  12.572  0.00  0.00    +0.000 A 
ATOM      5  N   UNL     1      48.447   6.927  12.667  0.00  0.00    +0.000 N 
ATOM      6  N   UNL     1      46.401   6.377  11.555  0.00  0.00    +0.000 NA
ATOM      7  C   UNL     1      45.284   5.599  11.525  0.00  0.00    +0.000 A 
ATOM      8  H   UNL     1      49.225   6.305  12.471  0.00  0.00    +0.000 HD
ENDROOT
BRANCH   1  10
ATOM      9  N   UNL     1      42.653   4.495  11.756  0.00  0.00    +0.000 N 
ATOM     10  C   UNL     1      43.713   3.885  12.370  0.00  0.00    +0.000 C 
ATOM     11  O   UNL     1      43.635   2.730  12.768  0.00  0.00    +0.000 OA
ATOM     12  H   UNL     1      41.839   3.917  11.590  0.00  0.00    +0.000 HD
ATOM     13  H   UNL     1      42.754   5.329  11.195  0.00  0.00    +0.000 HD
ENDBRANCH   1  10
BRANCH   5  14
ATOM     14  C   UNL     1      48.510   8.164  11.896  0.00  0.00    +0.000 C 
BRANCH  14  15
ATOM     15  C   UNL     1      49.976   8.645  11.797  0.00  0.00    +0.000 C 
ATOM     16  C   UNL     1      50.095  10.065  11.215  0.00  0.00    +0.000 C 
ATOM     17  C   UNL     1      51.552  10.509  11.093  0.00  0.00    +0.000 C 
ATOM     18  C   UNL     1      52.374   9.515  10.278  0.00  0.00    +0.000 C 
ATOM     19  C   UNL     1      52.287   8.113  10.870  0.00  0.00    +0.000 C 
ATOM     20  C   UNL     1      50.839   7.648  10.999  0.00  0.00    +0.000 C 
ENDBRANCH  14  15
ENDBRANCH   5  14
TORSDOF 3
ENDMDL
