MODEL 1
REMARK VINA RESULT:    -7.933      0.000      0.000
REMARK INTER + INTRA:         -10.100
REMARK INTER:                  -9.789
REMARK INTRA:                  -0.311
REMARK UNBOUND:                -0.311
REMARK  Name = 
REMARK  5 active torsions:
REMARK  status: ('A' for Active; 'I' for Inactive)
REMARK    1  A    between atoms: C_1  and  O_2
REMARK    2  A    between atoms: O_2  and  C_3
REMARK    3  A    between atoms: C_7  and  C_8
REMARK    4  A    between atoms: C_8  and  N_9
REMARK    5  A    between atoms: C_14  and  C_15
REMARK                            x       y       z     vdW  Elec       q    Type
REMARK                         _______ _______ _______ _____ _____    ______ ____
ROOT
ATOM      1  N   UNL     1      43.965   4.469  10.371  0.00  0.00    +0.000 N 
ATOM      2  C   UNL     1      43.433   3.383  11.014  0.00  0.00    +0.000 A 
ATOM      3  N   UNL     1      43.917   2.249  10.547  0.00  0.00    +0.000 NA
ATOM      4  C   UNL     1      44.804   2.621   9.568  0.00  0.00    +0.000 A 
ATOM      5  C   UNL     1      45.606   1.848   8.717  0.00  0.00    +0.000 A 
ATOM      6  C   UNL     1      46.413   2.535   7.802  0.00  0.00    +0.000 A 
ATOM      7  C   UNL     1      46.385   3.934   7.801  0.00  0.00    +0.000 A 
ATOM      8  N   UNL     1      45.620   4.727   8.601  0.00  0.00    +0.000 NA
ATOM      9  C   UNL     1      44.861   4.005   9.448  0.00  0.00    +0.000 A 
ENDROOT
BRANCH   6  10
ATOM     10  C   UNL     1      47.294   1.861   6.816  0.00  0.00    +0.000 C 
ATOM     11  N   UNL     1      48.344   2.560   6.287  0.00  0.00    +0.000 N 
ATOM     12  O   UNL     1      47.099   0.700   6.481  0.00  0.00    +0.000 OA
ATOM     13  H   UNL     1      48.592   3.509   6.514  0.00  0.00    +0.000 HD
ATOM     14  H   UNL     1      48.936   2.062   5.632  0.00  0.00    +0.000 HD
ENDBRANCH   6  10
BRANCH   1  15
ATOM     15  C   UNL     1      43.578   5.854  10.570  0.00  0.00    +0.000 C 
BRANCH  15  20
ATOM     16  C   UNL     1      46.364   6.558  13.089  0.00  0.00    +0.000 A 
ATOM     17  C   UNL     1      46.422   7.950  13.047  0.00  0.00    +0.000 A 
ATOM     18  C   UNL     1      45.539   8.664  12.235  0.00  0.00    +0.000 A 
ATOM     19  C   UNL     1      44.606   7.990  11.449  0.00  0.00    +0.000 A 
ATOM     20  C   UNL     1      44.554   6.589  11.451  0.00  0.00    +0.000 A 
ATOM     21  C   UNL     1      45.428   5.885  12.296  0.00  0.00    +0.000 A 
BRANCH  16  23
ATOM     22  C   UNL     1      46.676   4.427  14.093  0.00  0.00    +0.000 C 
ATOM     23  O   UNL     1      47.159   5.744  13.851  0.00  0.00    +0.000 OA
ENDBRANCH  16  23
ENDBRANCH  15  20
ENDBRANCH   1  15
TORSDOF 4
ENDMDL
MODEL 2
REMARK VINA RESULT:    -7.783      2.243      6.140
REMARK INTER + INTRA:          -9.914
REMARK INTER:                  -9.448
REMARK INTRA:                  -0.466
REMARK UNBOUND:                -0.311
REMARK  Name = 
REMARK  5 active torsions:
REMARK  status: ('A' for Active; 'I' for Inactive)
REMARK    1  A    between atoms: C_1  and  O_2
REMARK    2  A    between atoms: O_2  and  C_3
REMARK    3  A    between atoms: C_7  and  C_8
REMARK    4  A    between atoms: C_8  and  N_9
REMARK    5  A    between atoms: C_14  and  C_15
REMARK                            x       y       z     vdW  Elec       q    Type
REMARK                         _______ _______ _______ _____ _____    ______ ____
ROOT
ATOM      1  N   UNL     1      44.301   4.477  11.270  0.00  0.00    +0.000 N 
ATOM      2  C   UNL     1      43.658   3.662  12.163  0.00  0.00    +0.000 A 
ATOM      3  N   UNL     1      44.238   3.676  13.347  0.00  0.00    +0.000 NA
ATOM      4  C   UNL     1      45.293   4.542  13.213  0.00  0.00    +0.000 A 
ATOM      5  C   UNL     1      46.272   4.942  14.133  0.00  0.00    +0.000 A 
ATOM      6  C   UNL     1      47.239   5.849  13.682  0.00  0.00    +0.000 A 
ATOM      7  C   UNL     1      47.163   6.310  12.363  0.00  0.00    +0.000 A 
ATOM      8  N   UNL     1      46.238   5.947  11.433  0.00  0.00    +0.000 NA
ATOM      9  C   UNL     1      45.347   5.065  11.926  0.00  0.00    +0.000 A 
ENDROOT
BRANCH   6  10
ATOM     10  C   UNL     1      48.355   6.346  14.524  0.00  0.00    +0.000 C 
ATOM     11  N   UNL     1      48.240   6.266  15.885  0.00  0.00    +0.000 N 
ATOM     12  O   UNL     1      49.368   6.815  14.022  0.00  0.00    +0.000 OA
ATOM     13  H   UNL     1      47.455   5.882  16.386  0.00  0.00    +0.000 HD
ATOM     14  H   UNL     1      49.029   6.596  16.427  0.00  0.00    +0.000 HD
ENDBRANCH   6  10
BRANCH   1  15
ATOM     15  C   UNL     1      43.986   4.616   9.860  0.00  0.00    +0.000 C 
BRANCH  15  20
ATOM     16  C   UNL     1      45.963   1.784   8.224  0.00  0.00    +0.000 A 
ATOM     17  C   UNL     1      46.755   2.492   7.321  0.00  0.00    +0.000 A 
ATOM     18  C   UNL     1      46.678   3.885   7.265  0.00  0.00    +0.000 A 
ATOM     19  C   UNL     1      45.798   4.575   8.098  0.00  0.00    +0.000 A 
ATOM     20  C   UNL     1      44.970   3.879   8.989  0.00  0.00    +0.000 A 
ATOM     21  C   UNL     1      45.079   2.481   9.056  0.00  0.00    +0.000 A 
BRANCH  16  23
ATOM     22  C   UNL     1      46.777  -0.330   7.506  0.00  0.00    +0.000 C 
ATOM     23  O   UNL     1      45.954   0.425   8.390  0.00  0.00    +0.000 OA
ENDBRANCH  16  23
ENDBRANCH  15  20
ENDBRANCH   1  15
TORSDOF 4
ENDMDL
MODEL 3
REMARK VINA RESULT:    -7.696      1.167      2.133
REMARK INTER + INTRA:          -9.807
REMARK INTER:                  -9.534
REMARK INTRA:                  -0.273
REMARK UNBOUND:                -0.311
REMARK  Name = 
REMARK  5 active torsions:
REMARK  status: ('A' for Active; 'I' for Inactive)
REMARK    1  A    between atoms: C_1  and  O_2
REMARK    2  A    between atoms: O_2  and  C_3
REMARK    3  A    between atoms: C_7  and  C_8
REMARK    4  A    between atoms: C_8  and  N_9
REMARK    5  A    between atoms: C_14  and  C_15
REMARK                            x       y       z     vdW  Elec       q    Type
REMARK                         _______ _______ _______ _____ _____    ______ ____
ROOT
ATOM      1  N   UNL     1      43.982   4.435  10.403  0.00  0.00    +0.000 N 
ATOM      2  C   UNL     1      43.424   3.348  11.021  0.00  0.00    +0.000 A 
ATOM      3  N   UNL     1      43.890   2.214  10.538  0.00  0.00    +0.000 NA
ATOM      4  C   UNL     1      44.793   2.586   9.573  0.00  0.00    +0.000 A 
ATOM      5  C   UNL     1      45.586   1.814   8.715  0.00  0.00    +0.000 A 
ATOM      6  C   UNL     1      46.414   2.501   7.819  0.00  0.00    +0.000 A 
ATOM      7  C   UNL     1      46.413   3.900   7.844  0.00  0.00    +0.000 A 
ATOM      8  N   UNL     1      45.657   4.693   8.652  0.00  0.00    +0.000 NA
ATOM      9  C   UNL     1      44.876   3.970   9.479  0.00  0.00    +0.000 A 
ENDROOT
BRANCH   6  10
ATOM     10  C   UNL     1      47.291   1.829   6.829  0.00  0.00    +0.000 C 
ATOM     11  N   UNL     1      48.302   2.546   6.251  0.00  0.00    +0.000 N 
ATOM     12  O   UNL     1      47.126   0.653   6.531  0.00  0.00    +0.000 OA
ATOM     13  H   UNL     1      48.524   3.509   6.445  0.00  0.00    +0.000 HD
ATOM     14  H   UNL     1      48.893   2.049   5.595  0.00  0.00    +0.000 HD
ENDBRANCH   6  10
BRANCH   1  15
ATOM     15  C   UNL     1      43.620   5.823  10.624  0.00  0.00    +0.000 C 
BRANCH  15  20
ATOM     16  C   UNL     1      45.613   8.617  12.306  0.00  0.00    +0.000 A 
ATOM     17  C   UNL     1      46.480   7.883  13.115  0.00  0.00    +0.000 A 
ATOM     18  C   UNL     1      46.446   6.487  13.091  0.00  0.00    +0.000 A 
ATOM     19  C   UNL     1      45.537   5.819  12.272  0.00  0.00    +0.000 A 
ATOM     20  C   UNL     1      44.634   6.539  11.477  0.00  0.00    +0.000 A 
ATOM     21  C   UNL     1      44.700   7.942  11.489  0.00  0.00    +0.000 A 
BRANCH  16  23
ATOM     22  C   UNL     1      44.470  10.531  11.485  0.00  0.00    +0.000 C 
ATOM     23  O   UNL     1      45.555   9.982  12.225  0.00  0.00    +0.000 OA
ENDBRANCH  16  23
ENDBRANCH  15  20
ENDBRANCH   1  15
TORSDOF 4
ENDMDL
MODEL 4
REMARK VINA RESULT:    -7.246      2.226      6.442
REMARK INTER + INTRA:          -9.251
REMARK INTER:                  -8.783
REMARK INTRA:                  -0.469
REMARK UNBOUND:                -0.311
REMARK  Name = 
REMARK  5 active torsions:
REMARK  status: ('A' for Active; 'I' for Inactive)
REMARK    1  A    between atoms: C_1  and  O_2
REMARK    2  A    between atoms: O_2  and  C_3
REMARK    3  A    between atoms: C_7  and  C_8
REMARK    4  A    between atoms: C_8  and  N_9
REMARK    5  A    between atoms: C_14  and  C_15
REMARK                            x       y       z     vdW  Elec       q    Type
REMARK                         _______ _______ _______ _____ _____    ______ ____
ROOT
ATOM      1  N   UNL     1      44.942   5.458  11.161  0.00  0.00    +0.000 N 
ATOM      2  C   UNL     1      45.061   6.823  11.170  0.00  0.00    +0.000 A 
ATOM      3  N   UNL     1      45.757   7.249  12.205  0.00  0.00    +0.000 NA
ATOM      4  C   UNL     1      46.108   6.111  12.887  0.00  0.00    +0.000 A 
ATOM      5  C   UNL     1      46.836   5.942  14.072  0.00  0.00    +0.000 A 
ATOM      6  C   UNL     1      47.022   4.631  14.526  0.00  0.00    +0.000 A 
ATOM      7  C   UNL     1      46.491   3.578  13.772  0.00  0.00    +0.000 A 
ATOM      8  N   UNL     1      45.773   3.692  12.620  0.00  0.00    +0.000 NA
ATOM      9  C   UNL     1      45.621   4.978  12.247  0.00  0.00    +0.000 A 
ENDROOT
BRANCH   6  10
ATOM     10  C   UNL     1      47.745   4.288  15.776  0.00  0.00    +0.000 C 
ATOM     11  N   UNL     1      47.461   3.103  16.396  0.00  0.00    +0.000 N 
ATOM     12  O   UNL     1      48.585   5.042  16.249  0.00  0.00    +0.000 OA
ATOM     13  H   UNL     1      46.800   2.415  16.074  0.00  0.00    +0.000 HD
ATOM     14  H   UNL     1      47.987   2.893  17.236  0.00  0.00    +0.000 HD
ENDBRANCH   6  10
BRANCH   1  15
ATOM     15  C   UNL     1      44.160   4.675  10.222  0.00  0.00    +0.000 C 
BRANCH  15  20
ATOM     16  C   UNL     1      45.885   1.872   8.278  0.00  0.00    +0.000 A 
ATOM     17  C   UNL     1      46.608   2.601   7.335  0.00  0.00    +0.000 A 
ATOM     18  C   UNL     1      46.569   3.996   7.349  0.00  0.00    +0.000 A 
ATOM     19  C   UNL     1      45.795   4.669   8.293  0.00  0.00    +0.000 A 
ATOM     20  C   UNL     1      45.034   3.954   9.228  0.00  0.00    +0.000 A 
ATOM     21  C   UNL     1      45.106   2.551   9.222  0.00  0.00    +0.000 A 
BRANCH  16  23
ATOM     22  C   UNL     1      46.798  -0.216   7.604  0.00  0.00    +0.000 C 
ATOM     23  O   UNL     1      45.850   0.507   8.382  0.00  0.00    +0.000 OA
ENDBRANCH  16  23
ENDBRANCH  15  20
ENDBRANCH   1  15
TORSDOF 4
ENDMDL
MODEL 5
REMARK VINA RESULT:    -6.932      2.776      6.811
REMARK INTER + INTRA:          -8.864
REMARK INTER:                  -8.382
REMARK INTRA:                  -0.483
REMARK UNBOUND:                -0.311
REMARK  Name = 
REMARK  5 active torsions:
REMARK  status: ('A' for Active; 'I' for Inactive)
REMARK    1  A    between atoms: C_1  and  O_2
REMARK    2  A    between atoms: O_2  and  C_3
REMARK    3  A    between atoms: C_7  and  C_8
REMARK    4  A    between atoms: C_8  and  N_9
REMARK    5  A    between atoms: C_14  and  C_15
REMARK                            x       y       z     vdW  Elec       q    Type
REMARK                         _______ _______ _______ _____ _____    ______ ____
ROOT
ATOM      1  N   UNL     1      45.814   5.977  11.783  0.00  0.00    +0.000 N 
ATOM      2  C   UNL     1      46.685   6.994  11.491  0.00  0.00    +0.000 A 
ATOM      3  N   UNL     1      47.616   7.125  12.415  0.00  0.00    +0.000 NA
ATOM      4  C   UNL     1      47.338   6.147  13.336  0.00  0.00    +0.000 A 
ATOM      5  C   UNL     1      47.977   5.814  14.539  0.00  0.00    +0.000 A 
ATOM      6  C   UNL     1      47.439   4.751  15.274  0.00  0.00    +0.000 A 
ATOM      7  C   UNL     1      46.321   4.081  14.765  0.00  0.00    +0.000 A 
ATOM      8  N   UNL     1      45.664   4.370  13.609  0.00  0.00    +0.000 NA
ATOM      9  C   UNL     1      46.223   5.408  12.957  0.00  0.00    +0.000 A 
ENDROOT
BRANCH   6  10
ATOM     10  C   UNL     1      47.982   4.296  16.578  0.00  0.00    +0.000 C 
ATOM     11  N   UNL     1      47.110   4.023  17.595  0.00  0.00    +0.000 N 
ATOM     12  O   UNL     1      49.187   4.159  16.750  0.00  0.00    +0.000 OA
ATOM     13  H   UNL     1      46.107   4.091  17.542  0.00  0.00    +0.000 HD
ATOM     14  H   UNL     1      47.515   3.696  18.464  0.00  0.00    +0.000 HD
ENDBRANCH   6  10
BRANCH   1  15
ATOM     15  C   UNL     1      44.621   5.631  11.032  0.00  0.00    +0.000 C 
BRANCH  15  20
ATOM     16  C   UNL     1      45.798   3.679   7.964  0.00  0.00    +0.000 A 
ATOM     17  C   UNL     1      45.405   2.384   8.299  0.00  0.00    +0.000 A 
ATOM     18  C   UNL     1      44.729   2.145   9.497  0.00  0.00    +0.000 A 
ATOM     19  C   UNL     1      44.457   3.196  10.373  0.00  0.00    +0.000 A 
ATOM     20  C   UNL     1      44.873   4.499  10.069  0.00  0.00    +0.000 A 
ATOM     21  C   UNL     1      45.526   4.729   8.847  0.00  0.00    +0.000 A 
BRANCH  16  23
ATOM     22  C   UNL     1      46.805   3.000   5.922  0.00  0.00    +0.000 C 
ATOM     23  O   UNL     1      46.451   4.047   6.818  0.00  0.00    +0.000 OA
ENDBRANCH  16  23
ENDBRANCH  15  20
ENDBRANCH   1  15
TORSDOF 4
ENDMDL
MODEL 6
REMARK VINA RESULT:    -6.754      2.829      6.472
REMARK INTER + INTRA:          -8.645
REMARK INTER:                  -8.246
REMARK INTRA:                  -0.399
REMARK UNBOUND:                -0.311
REMARK  Name = 
REMARK  5 active torsions:
REMARK  status: ('A' for Active; 'I' for Inactive)
REMARK    1  A    between atoms: C_1  and  O_2
REMARK    2  A    between atoms: O_2  and  C_3
REMARK    3  A    between atoms: C_7  and  C_8
REMARK    4  A    between atoms: C_8  and  N_9
REMARK    5  A    between atoms: C_14  and  C_15
REMARK                            x       y       z     vdW  Elec       q    Type
REMARK                         _______ _______ _______ _____ _____    ______ ____
ROOT
ATOM      1  N   UNL     1      45.230   5.264  12.251  0.00  0.00    +0.000 N 
ATOM      2  C   UNL     1      45.271   4.319  13.242  0.00  0.00    +0.000 A 
ATOM      3  N   UNL     1      46.282   4.514  14.065  0.00  0.00    +0.000 NA
ATOM      4  C   UNL     1      46.912   5.636  13.590  0.00  0.00    +0.000 A 
ATOM      5  C   UNL     1      48.054   6.307  14.048  0.00  0.00    +0.000 A 
ATOM      6  C   UNL     1      48.460   7.438  13.331  0.00  0.00    +0.000 A 
ATOM      7  C   UNL     1      47.705   7.837  12.222  0.00  0.00    +0.000 A 
ATOM      8  N   UNL     1      46.595   7.215  11.736  0.00  0.00    +0.000 NA
ATOM      9  C   UNL     1      46.266   6.130  12.464  0.00  0.00    +0.000 A 
ENDROOT
BRANCH   6  10
ATOM     10  C   UNL     1      49.662   8.240  13.671  0.00  0.00    +0.000 C 
ATOM     11  N   UNL     1      50.893   7.650  13.585  0.00  0.00    +0.000 N 
ATOM     12  O   UNL     1      49.567   9.410  14.018  0.00  0.00    +0.000 OA
ATOM     13  H   UNL     1      51.070   6.702  13.294  0.00  0.00    +0.000 HD
ATOM     14  H   UNL     1      51.692   8.232  13.805  0.00  0.00    +0.000 HD
ENDBRANCH   6  10
BRANCH   1  15
ATOM     15  C   UNL     1      44.310   5.285  11.128  0.00  0.00    +0.000 C 
BRANCH  15  20
ATOM     16  C   UNL     1      45.784   3.667   7.996  0.00  0.00    +0.000 A 
ATOM     17  C   UNL     1      45.406   2.337   8.173  0.00  0.00    +0.000 A 
ATOM     18  C   UNL     1      44.645   1.968   9.284  0.00  0.00    +0.000 A 
ATOM     19  C   UNL     1      44.272   2.922  10.230  0.00  0.00    +0.000 A 
ATOM     20  C   UNL     1      44.672   4.258  10.086  0.00  0.00    +0.000 A 
ATOM     21  C   UNL     1      45.411   4.621   8.949  0.00  0.00    +0.000 A 
BRANCH  16  23
ATOM     22  C   UNL     1      46.945   3.217   5.971  0.00  0.00    +0.000 C 
ATOM     23  O   UNL     1      46.514   4.160   6.947  0.00  0.00    +0.000 OA
ENDBRANCH  16  23
ENDBRANCH  15  20
ENDBRANCH   1  15
TORSDOF 4
ENDMDL
MODEL 7
REMARK VINA RESULT:    -6.502      4.309      7.863
REMARK INTER + INTRA:          -8.334
REMARK INTER:                  -7.920
REMARK INTRA:                  -0.414
REMARK UNBOUND:                -0.311
REMARK  Name = 
REMARK  5 active torsions:
REMARK  status: ('A' for Active; 'I' for Inactive)
REMARK    1  A    between atoms: C_1  and  O_2
REMARK    2  A    between atoms: O_2  and  C_3
REMARK    3  A    between atoms: C_7  and  C_8
REMARK    4  A    between atoms: C_8  and  N_9
REMARK    5  A    between atoms: C_14  and  C_15
REMARK                            x       y       z     vdW  Elec       q    Type
REMARK                         _______ _______ _______ _____ _____    ______ ____
ROOT
ATOM      1  N   UNL     1      47.076   4.322  14.015  0.00  0.00    +0.000 N 
ATOM      2  C   UNL     1      47.586   5.497  13.529  0.00  0.00    +0.000 A 
ATOM      3  N   UNL     1      48.153   6.217  14.476  0.00  0.00    +0.000 NA
ATOM      4  C   UNL     1      48.009   5.471  15.619  0.00  0.00    +0.000 A 
ATOM      5  C   UNL     1      48.401   5.734  16.938  0.00  0.00    +0.000 A 
ATOM      6  C   UNL     1      48.099   4.763  17.900  0.00  0.00    +0.000 A 
ATOM      7  C   UNL     1      47.445   3.595  17.491  0.00  0.00    +0.000 A 
ATOM      8  N   UNL     1      47.039   3.298  16.226  0.00  0.00    +0.000 NA
ATOM      9  C   UNL     1      47.350   4.277  15.354  0.00  0.00    +0.000 A 
ENDROOT
BRANCH   6  10
ATOM     10  C   UNL     1      48.421   4.905  19.341  0.00  0.00    +0.000 C 
ATOM     11  N   UNL     1      48.452   3.783  20.123  0.00  0.00    +0.000 N 
ATOM     12  O   UNL     1      48.663   6.000  19.832  0.00  0.00    +0.000 OA
ATOM     13  H   UNL     1      48.285   2.842  19.805  0.00  0.00    +0.000 HD
ATOM     14  H   UNL     1      48.696   3.915  21.097  0.00  0.00    +0.000 HD
ENDBRANCH   6  10
BRANCH   1  15
ATOM     15  C   UNL     1      46.304   3.349  13.264  0.00  0.00    +0.000 C 
BRANCH  15  20
ATOM     16  C   UNL     1      43.965   4.474  10.458  0.00  0.00    +0.000 A 
ATOM     17  C   UNL     1      42.965   5.123  11.181  0.00  0.00    +0.000 A 
ATOM     18  C   UNL     1      43.063   5.229  12.570  0.00  0.00    +0.000 A 
ATOM     19  C   UNL     1      44.151   4.674  13.243  0.00  0.00    +0.000 A 
ATOM     20  C   UNL     1      45.149   3.989  12.537  0.00  0.00    +0.000 A 
ATOM     21  C   UNL     1      45.053   3.916  11.138  0.00  0.00    +0.000 A 
BRANCH  16  23
ATOM     22  C   UNL     1      45.282   4.169   8.504  0.00  0.00    +0.000 C 
ATOM     23  O   UNL     1      43.997   4.316   9.098  0.00  0.00    +0.000 OA
ENDBRANCH  16  23
ENDBRANCH  15  20
ENDBRANCH   1  15
TORSDOF 4
ENDMDL
MODEL 8
REMARK VINA RESULT:    -5.892      3.850      5.232
REMARK INTER + INTRA:          -7.581
REMARK INTER:                  -7.136
REMARK INTRA:                  -0.446
REMARK UNBOUND:                -0.311
REMARK  Name = 
REMARK  5 active torsions:
REMARK  status: ('A' for Active; 'I' for Inactive)
REMARK    1  A    between atoms: C_1  and  O_2
REMARK    2  A    between atoms: O_2  and  C_3
REMARK    3  A    between atoms: C_7  and  C_8
REMARK    4  A    between atoms: C_8  and  N_9
REMARK    5  A    between atoms: C_14  and  C_15
REMARK                            x       y       z     vdW  Elec       q    Type
REMARK                         _______ _______ _______ _____ _____    ______ ____
ROOT
ATOM      1  N   UNL     1      47.291   6.808  12.862  0.00  0.00    +0.000 N 
ATOM      2  C   UNL     1      47.752   6.194  13.997  0.00  0.00    +0.000 A 
ATOM      3  N   UNL     1      47.259   4.978  14.133  0.00  0.00    +0.000 NA
ATOM      4  C   UNL     1      46.455   4.799  13.037  0.00  0.00    +0.000 A 
ATOM      5  C   UNL     1      45.661   3.710  12.652  0.00  0.00    +0.000 A 
ATOM      6  C   UNL     1      44.935   3.837  11.461  0.00  0.00    +0.000 A 
ATOM      7  C   UNL     1      45.055   5.022  10.726  0.00  0.00    +0.000 A 
ATOM      8  N   UNL     1      45.806   6.108  11.061  0.00  0.00    +0.000 NA
ATOM      9  C   UNL     1      46.467   5.924  12.221  0.00  0.00    +0.000 A 
ENDROOT
BRANCH   6  10
ATOM     10  C   UNL     1      44.030   2.786  10.934  0.00  0.00    +0.000 C 
ATOM     11  N   UNL     1      44.386   2.122   9.794  0.00  0.00    +0.000 N 
ATOM     12  O   UNL     1      42.983   2.507  11.505  0.00  0.00    +0.000 OA
ATOM     13  H   UNL     1      45.231   2.272   9.267  0.00  0.00    +0.000 HD
ATOM     14  H   UNL     1      43.754   1.398   9.474  0.00  0.00    +0.000 HD
ENDBRANCH   6  10
BRANCH   1  15
ATOM     15  C   UNL     1      47.555   8.178  12.465  0.00  0.00    +0.000 C 
BRANCH  15  20
ATOM     16  C   UNL     1      51.140   7.950  11.162  0.00  0.00    +0.000 A 
ATOM     17  C   UNL     1      51.762   8.957  11.898  0.00  0.00    +0.000 A 
ATOM     18  C   UNL     1      51.034   9.685  12.841  0.00  0.00    +0.000 A 
ATOM     19  C   UNL     1      49.679   9.422  13.040  0.00  0.00    +0.000 A 
ATOM     20  C   UNL     1      49.029   8.437  12.286  0.00  0.00    +0.000 A 
ATOM     21  C   UNL     1      49.780   7.691  11.362  0.00  0.00    +0.000 A 
BRANCH  16  23
ATOM     22  C   UNL     1      53.166   7.150  10.210  0.00  0.00    +0.000 C 
ATOM     23  O   UNL     1      51.742   7.156  10.222  0.00  0.00    +0.000 OA
ENDBRANCH  16  23
ENDBRANCH  15  20
ENDBRANCH   1  15
TORSDOF 4
ENDMDL
MODEL 9
REMARK VINA RESULT:    -5.865      3.620      5.695
REMARK INTER + INTRA:          -7.548
REMARK INTER:                  -7.073
REMARK INTRA:                  -0.475
REMARK UNBOUND:                -0.311
REMARK  Name = 
REMARK  5 active torsions:
REMARK  status: ('A' for Active; 'I' for Inactive)
REMARK    1  A    between atoms: C_1  and  O_2
REMARK    2  A    between atoms: O_2  and  C_3
REMARK    3  A    between atoms: C_7  and  C_8
REMARK    4  A    between atoms: C_8  and  N_9
REMARK    5  A    between atoms: C_14  and  C_15
REMARK                            x       y       z     vdW  Elec       q    Type
REMARK                         _______ _______ _______ _____ _____    ______ ____
ROOT
ATOM      1  N   UNL     1      47.440   7.050  13.644  0.00  0.00    +0.000 N 
ATOM      2  C   UNL     1      46.785   8.193  13.267  0.00  0.00    +0.000 A 
ATOM      3  N   UNL     1      45.660   7.929  12.632  0.00  0.00    +0.000 NA
ATOM      4  C   UNL     1      45.583   6.559  12.607  0.00  0.00    +0.000 A 
ATOM      5  C   UNL     1      44.618   5.707  12.053  0.00  0.00    +0.000 A 
ATOM      6  C   UNL     1      44.831   4.330  12.187  0.00  0.00    +0.000 A 
ATOM      7  C   UNL     1      45.970   3.890  12.870  0.00  0.00    +0.000 A 
ATOM      8  N   UNL     1      46.937   4.677  13.418  0.00  0.00    +0.000 NA
ATOM      9  C   UNL     1      46.678   5.988  13.244  0.00  0.00    +0.000 A 
ENDROOT
BRANCH   6  10
ATOM     10  C   UNL     1      43.918   3.299  11.632  0.00  0.00    +0.000 C 
ATOM     11  N   UNL     1      43.647   2.188  12.381  0.00  0.00    +0.000 N 
ATOM     12  O   UNL     1      43.407   3.434  10.528  0.00  0.00    +0.000 OA
ATOM     13  H   UNL     1      44.006   2.000  13.303  0.00  0.00    +0.000 HD
ATOM     14  H   UNL     1      43.005   1.516  11.980  0.00  0.00    +0.000 HD
ENDBRANCH   6  10
BRANCH   1  15
ATOM     15  C   UNL     1      48.748   6.982  14.270  0.00  0.00    +0.000 C 
BRANCH  15  20
ATOM     16  C   UNL     1      48.426   5.473  17.766  0.00  0.00    +0.000 A 
ATOM     17  C   UNL     1      48.526   6.612  18.564  0.00  0.00    +0.000 A 
ATOM     18  C   UNL     1      48.660   7.870  17.974  0.00  0.00    +0.000 A 
ATOM     19  C   UNL     1      48.712   7.995  16.586  0.00  0.00    +0.000 A 
ATOM     20  C   UNL     1      48.647   6.858  15.768  0.00  0.00    +0.000 A 
ATOM     21  C   UNL     1      48.482   5.602  16.374  0.00  0.00    +0.000 A 
BRANCH  16  23
ATOM     22  C   UNL     1      47.461   3.328  17.429  0.00  0.00    +0.000 C 
ATOM     23  O   UNL     1      48.276   4.189  18.217  0.00  0.00    +0.000 OA
ENDBRANCH  16  23
ENDBRANCH  15  20
ENDBRANCH   1  15
TORSDOF 4
ENDMDL
