MODEL 1
REMARK VINA RESULT:    -9.333      0.000      0.000
REMARK INTER + INTRA:         -11.616
REMARK INTER:                 -10.970
REMARK INTRA:                  -0.645
REMARK UNBOUND:                -0.645
REMARK  Name = 
REMARK  5 active torsions:
REMARK  status: ('A' for Active; 'I' for Inactive)
REMARK    1  A    between atoms: C_1  and  C_2
REMARK    2  A    between atoms: C_9  and  C_10
REMARK    3  A    between atoms: C_10  and  N_11
REMARK    4  A    between atoms: C_15  and  C_16
REMARK    5  A    between atoms: C_25  and  C_26
REMARK                            x       y       z     vdW  Elec       q    Type
REMARK                         _______ _______ _______ _____ _____    ______ ____
ROOT
ATOM      1  C   UNL     1      44.027   4.835  11.426  0.00  0.00    +0.000 C 
ATOM      2  C   UNL     1      43.274   6.141  11.276  0.00  0.00    +0.000 C 
ATOM      3  C   UNL     1      42.612   5.021  12.000  0.00  0.00    +0.000 C 
ENDROOT
BRANCH   1  12
ATOM      4  C   UNL     1      49.532   7.293  11.765  0.00  0.00    +0.000 C 
ATOM      5  C   UNL     1      49.259   8.315  12.874  0.00  0.00    +0.000 C 
ATOM      6  C   UNL     1      48.546   7.694  14.108  0.00  0.00    +0.000 C 
ATOM      7  N   UNL     1      47.119   7.476  13.869  0.00  0.00    +0.000 N 
ATOM      8  C   UNL     1      46.706   6.196  13.557  0.00  0.00    +0.000 A 
ATOM      9  N   UNL     1      47.424   5.133  13.948  0.00  0.00    +0.000 NA
ATOM     10  C   UNL     1      46.967   3.916  13.599  0.00  0.00    +0.000 A 
ATOM     11  C   UNL     1      45.846   3.713  12.832  0.00  0.00    +0.000 A 
ATOM     12  C   UNL     1      45.175   4.850  12.440  0.00  0.00    +0.000 A 
ATOM     13  N   UNL     1      45.583   6.065  12.854  0.00  0.00    +0.000 NA
ATOM     14  C   UNL     1      46.391   8.601  13.259  0.00  0.00    +0.000 C 
ATOM     15  C   UNL     1      47.143   9.187  12.034  0.00  0.00    +0.000 C 
ATOM     16  C   UNL     1      46.455  10.468  11.557  0.00  0.00    +0.000 C 
ATOM     17  N   UNL     1      48.560   9.508  12.333  0.00  0.00    +0.000 NA
ATOM     18  H   UNL     1      48.566  10.222  13.063  0.00  0.00    +0.000 HD
ENDBRANCH   1  12
BRANCH   1  19
ATOM     19  N   UNL     1      44.055   3.721  10.472  0.00  0.00    +0.000 N 
ATOM     20  C   UNL     1      45.008   3.478   9.492  0.00  0.00    +0.000 A 
ATOM     21  C   UNL     1      45.625   4.465   8.734  0.00  0.00    +0.000 A 
ATOM     22  C   UNL     1      46.430   4.083   7.657  0.00  0.00    +0.000 A 
ATOM     23  C   UNL     1      46.592   2.730   7.364  0.00  0.00    +0.000 A 
ATOM     24  C   UNL     1      45.988   1.814   8.205  0.00  0.00    +0.000 A 
ATOM     25  N   UNL     1      45.195   2.162   9.244  0.00  0.00    +0.000 NA
ATOM     26  H   UNL     1      43.809   2.814  10.865  0.00  0.00    +0.000 HD
BRANCH  23  27
ATOM     27  C   UNL     1      47.375   2.297   6.189  0.00  0.00    +0.000 C 
ATOM     28  N   UNL     1      47.220   3.005   5.029  0.00  0.00    +0.000 N 
ATOM     29  O   UNL     1      48.169   1.368   6.263  0.00  0.00    +0.000 OA
ATOM     30  H   UNL     1      46.793   3.921   4.985  0.00  0.00    +0.000 HD
ATOM     31  H   UNL     1      47.849   2.758   4.271  0.00  0.00    +0.000 HD
ENDBRANCH  23  27
ENDBRANCH   1  19
TORSDOF 3
ENDMDL
MODEL 2
REMARK VINA RESULT:    -6.621      3.537      6.101
REMARK INTER + INTRA:          -8.427
REMARK INTER:                  -8.723
REMARK INTRA:                   0.296
REMARK UNBOUND:                -0.645
REMARK  Name = 
REMARK  5 active torsions:
REMARK  status: ('A' for Active; 'I' for Inactive)
REMARK    1  A    between atoms: C_1  and  C_2
REMARK    2  A    between atoms: C_9  and  C_10
REMARK    3  A    between atoms: C_10  and  N_11
REMARK    4  A    between atoms: C_15  and  C_16
REMARK    5  A    between atoms: C_25  and  C_26
REMARK                            x       y       z     vdW  Elec       q    Type
REMARK                         _______ _______ _______ _____ _____    ______ ____
ROOT
ATOM      1  C   UNL     1      48.137   7.373  13.765  0.00  0.00    +0.000 C 
ATOM      2  C   UNL     1      48.472   8.060  12.457  0.00  0.00    +0.000 C 
ATOM      3  C   UNL     1      47.535   8.739  13.393  0.00  0.00    +0.000 C 
ENDROOT
BRANCH   1  12
ATOM      4  C   UNL     1      48.519   6.497  19.727  0.00  0.00    +0.000 C 
ATOM      5  C   UNL     1      49.294   5.175  19.716  0.00  0.00    +0.000 C 
ATOM      6  C   UNL     1      50.548   5.215  18.798  0.00  0.00    +0.000 C 
ATOM      7  N   UNL     1      50.199   5.097  17.382  0.00  0.00    +0.000 N 
ATOM      8  C   UNL     1      50.169   6.253  16.626  0.00  0.00    +0.000 A 
ATOM      9  N   UNL     1      50.900   7.319  16.982  0.00  0.00    +0.000 NA
ATOM     10  C   UNL     1      50.814   8.415  16.205  0.00  0.00    +0.000 A 
ATOM     11  C   UNL     1      49.992   8.511  15.110  0.00  0.00    +0.000 A 
ATOM     12  C   UNL     1      49.248   7.389  14.820  0.00  0.00    +0.000 A 
ATOM     13  N   UNL     1      49.390   6.263  15.547  0.00  0.00    +0.000 NA
ATOM     14  C   UNL     1      49.241   4.031  17.043  0.00  0.00    +0.000 C 
ATOM     15  C   UNL     1      48.009   4.030  17.989  0.00  0.00    +0.000 C 
ATOM     16  C   UNL     1      47.146   2.795  17.728  0.00  0.00    +0.000 C 
ATOM     17  N   UNL     1      48.390   4.035  19.422  0.00  0.00    +0.000 NA
ATOM     18  H   UNL     1      48.912   3.176  19.604  0.00  0.00    +0.000 HD
ENDBRANCH   1  12
BRANCH   1  19
ATOM     19  N   UNL     1      47.076   6.386  13.994  0.00  0.00    +0.000 N 
ATOM     20  C   UNL     1      46.446   5.595  13.043  0.00  0.00    +0.000 A 
ATOM     21  C   UNL     1      46.115   6.018  11.762  0.00  0.00    +0.000 A 
ATOM     22  C   UNL     1      45.322   5.189  10.963  0.00  0.00    +0.000 A 
ATOM     23  C   UNL     1      44.879   3.967  11.465  0.00  0.00    +0.000 A 
ATOM     24  C   UNL     1      45.304   3.599  12.728  0.00  0.00    +0.000 A 
ATOM     25  N   UNL     1      46.060   4.391  13.523  0.00  0.00    +0.000 NA
ATOM     26  H   UNL     1      47.206   5.799  14.817  0.00  0.00    +0.000 HD
BRANCH  23  27
ATOM     27  C   UNL     1      43.980   3.103  10.674  0.00  0.00    +0.000 C 
ATOM     28  N   UNL     1      44.199   3.028   9.326  0.00  0.00    +0.000 N 
ATOM     29  O   UNL     1      43.102   2.440  11.209  0.00  0.00    +0.000 OA
ATOM     30  H   UNL     1      45.054   3.335   8.879  0.00  0.00    +0.000 HD
ATOM     31  H   UNL     1      43.642   2.345   8.822  0.00  0.00    +0.000 HD
ENDBRANCH  23  27
ENDBRANCH   1  19
TORSDOF 3
ENDMDL
