MODEL 1
REMARK VINA RESULT:    -7.792      0.000      0.000
REMARK INTER + INTRA:         -12.745
REMARK INTER:                 -11.437
REMARK INTRA:                  -1.308
REMARK UNBOUND:                -1.308
REMARK  Name = 
REMARK  9 active torsions:
REMARK  status: ('A' for Active; 'I' for Inactive)
REMARK    1  A    between atoms: C_1  and  C_2
REMARK    2  A    between atoms: C_2  and  C_3
REMARK    3  A    between atoms: C_3  and  N_4
REMARK    4  A    between atoms: C_10  and  C_11
REMARK    5  A    between atoms: N_13  and  C_14
REMARK    6  A    between atoms: C_14  and  C_15
REMARK    7  A    between atoms: C_18  and  C_19
REMARK    8  A    between atoms: C_19  and  N_20
REMARK    9  A    between atoms: C_21  and  C_23
REMARK                            x       y       z     vdW  Elec       q    Type
REMARK                         _______ _______ _______ _____ _____    ______ ____
ROOT
ATOM      1  C   UNL     1      46.595   4.393  14.355  0.00  0.00    +0.000 C 
ENDROOT
BRANCH   1   2
ATOM      2  C   UNL     1      45.978   4.429  12.975  0.00  0.00    +0.000 A 
ATOM      3  C   UNL     1      45.433   3.255  12.440  0.00  0.00    +0.000 A 
ATOM      4  C   UNL     1      44.829   3.244  11.170  0.00  0.00    +0.000 A 
ATOM      5  C   UNL     1      44.761   4.412  10.395  0.00  0.00    +0.000 A 
ATOM      6  C   UNL     1      45.332   5.576  10.918  0.00  0.00    +0.000 A 
ATOM      7  C   UNL     1      45.924   5.592  12.190  0.00  0.00    +0.000 A 
BRANCH   5   8
ATOM      8  C   UNL     1      44.103   4.479   9.040  0.00  0.00    +0.000 C 
BRANCH   8   9
ATOM      9  N   UNL     1      44.631   3.505   8.115  0.00  0.00    +0.000 N 
ATOM     10  C   UNL     1      45.811   3.674   7.430  0.00  0.00    +0.000 C 
ATOM     11  O   UNL     1      46.554   4.648   7.557  0.00  0.00    +0.000 OA
ATOM     12  H   UNL     1      44.117   2.644   7.982  0.00  0.00    +0.000 HD
BRANCH  10  13
ATOM     13  C   UNL     1      46.150   2.448   6.572  0.00  0.00    +0.000 C 
ATOM     14  C   UNL     1      47.069   1.509   7.335  0.00  0.00    +0.000 C 
ATOM     15  C   UNL     1      48.438   1.999   6.913  0.00  0.00    +0.000 C 
ATOM     16  N   UNL     1      48.289   2.189   5.465  0.00  0.00    +0.000 NA
ATOM     17  C   UNL     1      46.942   2.770   5.295  0.00  0.00    +0.000 C 
ATOM     18  H   UNL     1      48.305   1.266   5.026  0.00  0.00    +0.000 HD
ENDBRANCH  10  13
ENDBRANCH   8   9
ENDBRANCH   5   8
ENDBRANCH   1   2
BRANCH   1  21
ATOM     19  C   UNL     1      48.300   5.601  15.657  0.00  0.00    +0.000 C 
ATOM     20  O   UNL     1      48.582   4.592  16.324  0.00  0.00    +0.000 OA
ATOM     21  N   UNL     1      47.325   5.587  14.698  0.00  0.00    +0.000 N 
ATOM     22  H   UNL     1      47.282   6.360  14.041  0.00  0.00    +0.000 HD
BRANCH  19  29
ATOM     23  N   UNL     1      50.571   8.491  12.807  0.00  0.00    +0.000 N 
ATOM     24  C   UNL     1      50.979   9.622  13.485  0.00  0.00    +0.000 A 
ATOM     25  N   UNL     1      50.791   9.863  14.741  0.00  0.00    +0.000 NA
ATOM     26  C   UNL     1      50.142   8.887  15.411  0.00  0.00    +0.000 A 
ATOM     27  S   UNL     1      49.890   9.007  17.081  0.00  0.00    +0.000 S 
ATOM     28  C   UNL     1      49.065   7.507  17.115  0.00  0.00    +0.000 A 
ATOM     29  C   UNL     1      48.966   6.895  15.871  0.00  0.00    +0.000 A 
ATOM     30  C   UNL     1      49.615   7.726  14.873  0.00  0.00    +0.000 A 
ATOM     31  C   UNL     1      49.792   7.533  13.442  0.00  0.00    +0.000 A 
ATOM     32  O   UNL     1      49.224   6.628  12.812  0.00  0.00    +0.000 OA
BRANCH  23  33
ATOM     33  C   UNL     1      50.787   8.357  11.371  0.00  0.00    +0.000 C 
BRANCH  33  35
ATOM     34  C   UNL     1      52.322   7.131   9.788  0.00  0.00    +0.000 C 
ATOM     35  C   UNL     1      52.243   8.019  11.021  0.00  0.00    +0.000 C 
ENDBRANCH  33  35
ENDBRANCH  23  33
ENDBRANCH  19  29
ENDBRANCH   1  21
TORSDOF 8
ENDMDL
MODEL 2
REMARK VINA RESULT:    -7.399      3.225      9.180
REMARK INTER + INTRA:         -12.168
REMARK INTER:                 -10.861
REMARK INTRA:                  -1.307
REMARK UNBOUND:                -1.308
REMARK  Name = 
REMARK  9 active torsions:
REMARK  status: ('A' for Active; 'I' for Inactive)
REMARK    1  A    between atoms: C_1  and  C_2
REMARK    2  A    between atoms: C_2  and  C_3
REMARK    3  A    between atoms: C_3  and  N_4
REMARK    4  A    between atoms: C_10  and  C_11
REMARK    5  A    between atoms: N_13  and  C_14
REMARK    6  A    between atoms: C_14  and  C_15
REMARK    7  A    between atoms: C_18  and  C_19
REMARK    8  A    between atoms: C_19  and  N_20
REMARK    9  A    between atoms: C_21  and  C_23
REMARK                            x       y       z     vdW  Elec       q    Type
REMARK                         _______ _______ _______ _____ _____    ______ ____
ROOT
ATOM      1  C   UNL     1      47.142   7.910  12.106  0.00  0.00    +0.000 C 
ENDROOT
BRANCH   1   2
ATOM      2  C   UNL     1      47.832   8.037  13.445  0.00  0.00    +0.000 A 
ATOM      3  C   UNL     1      48.416   6.903  14.023  0.00  0.00    +0.000 A 
ATOM      4  C   UNL     1      49.087   6.976  15.256  0.00  0.00    +0.000 A 
ATOM      5  C   UNL     1      49.187   8.190  15.951  0.00  0.00    +0.000 A 
ATOM      6  C   UNL     1      48.578   9.316  15.387  0.00  0.00    +0.000 A 
ATOM      7  C   UNL     1      47.919   9.248  14.151  0.00  0.00    +0.000 A 
BRANCH   5   8
ATOM      8  C   UNL     1      49.916   8.347  17.261  0.00  0.00    +0.000 C 
BRANCH   8   9
ATOM      9  N   UNL     1      50.167   7.085  17.915  0.00  0.00    +0.000 N 
ATOM     10  C   UNL     1      49.269   6.483  18.766  0.00  0.00    +0.000 C 
ATOM     11  O   UNL     1      48.154   6.934  19.031  0.00  0.00    +0.000 OA
ATOM     12  H   UNL     1      51.036   6.608  17.718  0.00  0.00    +0.000 HD
BRANCH  10  13
ATOM     13  C   UNL     1      49.779   5.121  19.257  0.00  0.00    +0.000 C 
ATOM     14  C   UNL     1      49.849   4.138  18.101  0.00  0.00    +0.000 C 
ATOM     15  C   UNL     1      48.484   3.484  18.162  0.00  0.00    +0.000 C 
ATOM     16  N   UNL     1      48.304   3.230  19.597  0.00  0.00    +0.000 NA
ATOM     17  C   UNL     1      48.851   4.427  20.266  0.00  0.00    +0.000 C 
ATOM     18  H   UNL     1      48.882   2.424  19.845  0.00  0.00    +0.000 HD
ENDBRANCH  10  13
ENDBRANCH   8   9
ENDBRANCH   5   8
ENDBRANCH   1   2
BRANCH   1  21
ATOM     19  C   UNL     1      45.151   6.569  11.560  0.00  0.00    +0.000 C 
ATOM     20  O   UNL     1      44.441   7.579  11.429  0.00  0.00    +0.000 OA
ATOM     21  N   UNL     1      46.469   6.651  11.915  0.00  0.00    +0.000 N 
ATOM     22  H   UNL     1      47.053   5.828  11.798  0.00  0.00    +0.000 HD
BRANCH  19  29
ATOM     23  N   UNL     1      45.443   3.501   8.076  0.00  0.00    +0.000 N 
ATOM     24  C   UNL     1      44.809   2.323   8.411  0.00  0.00    +0.000 A 
ATOM     25  N   UNL     1      44.190   2.082   9.520  0.00  0.00    +0.000 NA
ATOM     26  C   UNL     1      44.183   3.110  10.396  0.00  0.00    +0.000 A 
ATOM     27  S   UNL     1      43.345   2.990  11.862  0.00  0.00    +0.000 S 
ATOM     28  C   UNL     1      43.823   4.568  12.323  0.00  0.00    +0.000 A 
ATOM     29  C   UNL     1      44.622   5.208  11.381  0.00  0.00    +0.000 A 
ATOM     30  C   UNL     1      44.820   4.330  10.242  0.00  0.00    +0.000 A 
ATOM     31  C   UNL     1      45.561   4.526   9.006  0.00  0.00    +0.000 A 
ATOM     32  O   UNL     1      46.311   5.497   8.821  0.00  0.00    +0.000 OA
BRANCH  23  33
ATOM     33  C   UNL     1      46.163   3.635   6.815  0.00  0.00    +0.000 C 
BRANCH  33  35
ATOM     34  C   UNL     1      48.137   2.084   6.573  0.00  0.00    +0.000 C 
ATOM     35  C   UNL     1      46.660   2.289   6.271  0.00  0.00    +0.000 C 
ENDBRANCH  33  35
ENDBRANCH  23  33
ENDBRANCH  19  29
ENDBRANCH   1  21
TORSDOF 8
ENDMDL
MODEL 3
REMARK VINA RESULT:    -7.272      3.496      7.650
REMARK INTER + INTRA:         -11.982
REMARK INTER:                 -10.770
REMARK INTRA:                  -1.212
REMARK UNBOUND:                -1.308
REMARK  Name = 
REMARK  9 active torsions:
REMARK  status: ('A' for Active; 'I' for Inactive)
REMARK    1  A    between atoms: C_1  and  C_2
REMARK    2  A    between atoms: C_2  and  C_3
REMARK    3  A    between atoms: C_3  and  N_4
REMARK    4  A    between atoms: C_10  and  C_11
REMARK    5  A    between atoms: N_13  and  C_14
REMARK    6  A    between atoms: C_14  and  C_15
REMARK    7  A    between atoms: C_18  and  C_19
REMARK    8  A    between atoms: C_19  and  N_20
REMARK    9  A    between atoms: C_21  and  C_23
REMARK                            x       y       z     vdW  Elec       q    Type
REMARK                         _______ _______ _______ _____ _____    ______ ____
ROOT
ATOM      1  C   UNL     1      46.735   8.701  12.298  0.00  0.00    +0.000 C 
ENDROOT
BRANCH   1   2
ATOM      2  C   UNL     1      48.199   8.733  11.924  0.00  0.00    +0.000 A 
ATOM      3  C   UNL     1      48.903   7.527  11.818  0.00  0.00    +0.000 A 
ATOM      4  C   UNL     1      50.260   7.504  11.452  0.00  0.00    +0.000 A 
ATOM      5  C   UNL     1      50.955   8.695  11.189  0.00  0.00    +0.000 A 
ATOM      6  C   UNL     1      50.259   9.900  11.324  0.00  0.00    +0.000 A 
ATOM      7  C   UNL     1      48.901   9.924  11.677  0.00  0.00    +0.000 A 
BRANCH   5   8
ATOM      8  C   UNL     1      52.400   8.743  10.764  0.00  0.00    +0.000 C 
BRANCH   8   9
ATOM      9  N   UNL     1      52.674   7.905   9.620  0.00  0.00    +0.000 N 
ATOM     10  C   UNL     1      53.535   6.833   9.658  0.00  0.00    +0.000 C 
ATOM     11  O   UNL     1      54.131   6.456  10.668  0.00  0.00    +0.000 OA
ATOM     12  H   UNL     1      52.190   8.103   8.755  0.00  0.00    +0.000 HD
BRANCH  10  13
ATOM     13  C   UNL     1      53.575   6.090   8.315  0.00  0.00    +0.000 C 
ATOM     14  C   UNL     1      54.849   6.433   7.562  0.00  0.00    +0.000 C 
ATOM     15  C   UNL     1      54.410   7.617   6.726  0.00  0.00    +0.000 C 
ATOM     16  N   UNL     1      53.104   7.190   6.209  0.00  0.00    +0.000 NA
ATOM     17  C   UNL     1      52.459   6.491   7.339  0.00  0.00    +0.000 C 
ATOM     18  H   UNL     1      53.271   6.515   5.460  0.00  0.00    +0.000 HD
ENDBRANCH  10  13
ENDBRANCH   8   9
ENDBRANCH   5   8
ENDBRANCH   1   2
BRANCH   1  21
ATOM     19  C   UNL     1      44.988   7.107  11.616  0.00  0.00    +0.000 C 
ATOM     20  O   UNL     1      44.330   7.991  11.043  0.00  0.00    +0.000 OA
ATOM     21  N   UNL     1      46.156   7.382  12.272  0.00  0.00    +0.000 N 
ATOM     22  H   UNL     1      46.758   6.607  12.531  0.00  0.00    +0.000 HD
BRANCH  19  29
ATOM     23  N   UNL     1      45.290   3.593   8.584  0.00  0.00    +0.000 N 
ATOM     24  C   UNL     1      44.759   2.439   9.122  0.00  0.00    +0.000 A 
ATOM     25  N   UNL     1      44.223   2.323  10.293  0.00  0.00    +0.000 NA
ATOM     26  C   UNL     1      44.195   3.465  11.014  0.00  0.00    +0.000 A 
ATOM     27  S   UNL     1      43.453   3.506  12.535  0.00  0.00    +0.000 S 
ATOM     28  C   UNL     1      43.847   5.160  12.737  0.00  0.00    +0.000 A 
ATOM     29  C   UNL     1      44.544   5.705  11.665  0.00  0.00    +0.000 A 
ATOM     30  C   UNL     1      44.737   4.685  10.649  0.00  0.00    +0.000 A 
ATOM     31  C   UNL     1      45.390   4.745   9.351  0.00  0.00    +0.000 A 
ATOM     32  O   UNL     1      46.060   5.723   8.982  0.00  0.00    +0.000 OA
BRANCH  23  33
ATOM     33  C   UNL     1      45.925   3.587   7.271  0.00  0.00    +0.000 C 
BRANCH  33  35
ATOM     34  C   UNL     1      47.579   2.402   5.779  0.00  0.00    +0.000 C 
ATOM     35  C   UNL     1      47.162   2.680   7.216  0.00  0.00    +0.000 C 
ENDBRANCH  33  35
ENDBRANCH  23  33
ENDBRANCH  19  29
ENDBRANCH   1  21
TORSDOF 8
ENDMDL
MODEL 4
REMARK VINA RESULT:    -7.202      1.978      3.817
REMARK INTER + INTRA:         -11.879
REMARK INTER:                 -11.050
REMARK INTRA:                  -0.830
REMARK UNBOUND:                -1.308
REMARK  Name = 
REMARK  9 active torsions:
REMARK  status: ('A' for Active; 'I' for Inactive)
REMARK    1  A    between atoms: C_1  and  C_2
REMARK    2  A    between atoms: C_2  and  C_3
REMARK    3  A    between atoms: C_3  and  N_4
REMARK    4  A    between atoms: C_10  and  C_11
REMARK    5  A    between atoms: N_13  and  C_14
REMARK    6  A    between atoms: C_14  and  C_15
REMARK    7  A    between atoms: C_18  and  C_19
REMARK    8  A    between atoms: C_19  and  N_20
REMARK    9  A    between atoms: C_21  and  C_23
REMARK                            x       y       z     vdW  Elec       q    Type
REMARK                         _______ _______ _______ _____ _____    ______ ____
ROOT
ATOM      1  C   UNL     1      46.772   4.739  14.164  0.00  0.00    +0.000 C 
ENDROOT
BRANCH   1   2
ATOM      2  C   UNL     1      46.082   4.650  12.822  0.00  0.00    +0.000 A 
ATOM      3  C   UNL     1      45.577   3.415  12.395  0.00  0.00    +0.000 A 
ATOM      4  C   UNL     1      44.909   3.286  11.165  0.00  0.00    +0.000 A 
ATOM      5  C   UNL     1      44.732   4.394  10.322  0.00  0.00    +0.000 A 
ATOM      6  C   UNL     1      45.262   5.620  10.736  0.00  0.00    +0.000 A 
ATOM      7  C   UNL     1      45.919   5.753  11.969  0.00  0.00    +0.000 A 
BRANCH   5   8
ATOM      8  C   UNL     1      44.001   4.335   9.005  0.00  0.00    +0.000 C 
BRANCH   8   9
ATOM      9  N   UNL     1      44.578   3.381   8.088  0.00  0.00    +0.000 N 
ATOM     10  C   UNL     1      45.770   3.587   7.434  0.00  0.00    +0.000 C 
ATOM     11  O   UNL     1      46.482   4.580   7.585  0.00  0.00    +0.000 OA
ATOM     12  H   UNL     1      44.091   2.507   7.939  0.00  0.00    +0.000 HD
BRANCH  10  13
ATOM     13  C   UNL     1      46.164   2.375   6.579  0.00  0.00    +0.000 C 
ATOM     14  C   UNL     1      47.149   1.497   7.331  0.00  0.00    +0.000 C 
ATOM     15  C   UNL     1      48.480   2.062   6.881  0.00  0.00    +0.000 C 
ATOM     16  N   UNL     1      48.294   2.230   5.435  0.00  0.00    +0.000 NA
ATOM     17  C   UNL     1      46.912   2.732   5.286  0.00  0.00    +0.000 C 
ATOM     18  H   UNL     1      48.355   1.306   5.003  0.00  0.00    +0.000 HD
ENDBRANCH  10  13
ENDBRANCH   8   9
ENDBRANCH   5   8
ENDBRANCH   1   2
BRANCH   1  21
ATOM     19  C   UNL     1      48.295   6.664  13.976  0.00  0.00    +0.000 C 
ATOM     20  O   UNL     1      49.038   6.067  13.180  0.00  0.00    +0.000 OA
ATOM     21  N   UNL     1      47.187   6.073  14.518  0.00  0.00    +0.000 N 
ATOM     22  H   UNL     1      46.503   6.662  14.983  0.00  0.00    +0.000 HD
BRANCH  19  29
ATOM     23  N   UNL     1      48.958   8.540  18.181  0.00  0.00    +0.000 N 
ATOM     24  C   UNL     1      49.234   9.887  18.074  0.00  0.00    +0.000 A 
ATOM     25  N   UNL     1      49.284  10.568  16.976  0.00  0.00    +0.000 NA
ATOM     26  C   UNL     1      49.027   9.854  15.859  0.00  0.00    +0.000 A 
ATOM     27  S   UNL     1      48.970  10.610  14.346  0.00  0.00    +0.000 S 
ATOM     28  C   UNL     1      48.639   9.125  13.560  0.00  0.00    +0.000 A 
ATOM     29  C   UNL     1      48.568   8.038  14.424  0.00  0.00    +0.000 A 
ATOM     30  C   UNL     1      48.796   8.491  15.785  0.00  0.00    +0.000 A 
ATOM     31  C   UNL     1      48.818   7.758  17.042  0.00  0.00    +0.000 A 
ATOM     32  O   UNL     1      48.796   6.519  17.095  0.00  0.00    +0.000 OA
BRANCH  23  33
ATOM     33  C   UNL     1      48.989   7.866  19.474  0.00  0.00    +0.000 C 
BRANCH  33  35
ATOM     34  C   UNL     1      47.487   6.369  20.840  0.00  0.00    +0.000 C 
ATOM     35  C   UNL     1      47.590   7.681  20.078  0.00  0.00    +0.000 C 
ENDBRANCH  33  35
ENDBRANCH  23  33
ENDBRANCH  19  29
ENDBRANCH   1  21
TORSDOF 8
ENDMDL
MODEL 5
REMARK VINA RESULT:    -7.046      2.663      4.262
REMARK INTER + INTRA:         -11.650
REMARK INTER:                 -10.396
REMARK INTRA:                  -1.254
REMARK UNBOUND:                -1.308
REMARK  Name = 
REMARK  9 active torsions:
REMARK  status: ('A' for Active; 'I' for Inactive)
REMARK    1  A    between atoms: C_1  and  C_2
REMARK    2  A    between atoms: C_2  and  C_3
REMARK    3  A    between atoms: C_3  and  N_4
REMARK    4  A    between atoms: C_10  and  C_11
REMARK    5  A    between atoms: N_13  and  C_14
REMARK    6  A    between atoms: C_14  and  C_15
REMARK    7  A    between atoms: C_18  and  C_19
REMARK    8  A    between atoms: C_19  and  N_20
REMARK    9  A    between atoms: C_21  and  C_23
REMARK                            x       y       z     vdW  Elec       q    Type
REMARK                         _______ _______ _______ _____ _____    ______ ____
ROOT
ATOM      1  C   UNL     1      46.866   8.869  13.375  0.00  0.00    +0.000 C 
ENDROOT
BRANCH   1   2
ATOM      2  C   UNL     1      46.333   7.622  12.709  0.00  0.00    +0.000 A 
ATOM      3  C   UNL     1      45.429   7.749  11.646  0.00  0.00    +0.000 A 
ATOM      4  C   UNL     1      44.921   6.619  10.981  0.00  0.00    +0.000 A 
ATOM      5  C   UNL     1      45.302   5.325  11.367  0.00  0.00    +0.000 A 
ATOM      6  C   UNL     1      46.182   5.198  12.447  0.00  0.00    +0.000 A 
ATOM      7  C   UNL     1      46.699   6.325  13.104  0.00  0.00    +0.000 A 
BRANCH   5   8
ATOM      8  C   UNL     1      44.822   4.072  10.681  0.00  0.00    +0.000 C 
BRANCH   8   9
ATOM      9  N   UNL     1      45.294   3.965   9.321  0.00  0.00    +0.000 N 
ATOM     10  C   UNL     1      45.451   2.765   8.667  0.00  0.00    +0.000 C 
ATOM     11  O   UNL     1      45.175   1.668   9.155  0.00  0.00    +0.000 OA
ATOM     12  H   UNL     1      45.497   4.817   8.816  0.00  0.00    +0.000 HD
BRANCH  10  13
ATOM     13  C   UNL     1      45.902   2.965   7.214  0.00  0.00    +0.000 C 
ATOM     14  C   UNL     1      46.427   1.660   6.641  0.00  0.00    +0.000 C 
ATOM     15  C   UNL     1      47.905   1.751   6.957  0.00  0.00    +0.000 C 
ATOM     16  N   UNL     1      48.237   3.133   6.591  0.00  0.00    +0.000 NA
ATOM     17  C   UNL     1      47.083   3.934   7.048  0.00  0.00    +0.000 C 
ATOM     18  H   UNL     1      48.286   3.182   5.572  0.00  0.00    +0.000 HD
ENDBRANCH  10  13
ENDBRANCH   8   9
ENDBRANCH   5   8
ENDBRANCH   1   2
BRANCH   1  21
ATOM     19  C   UNL     1      48.299   9.175  15.354  0.00  0.00    +0.000 C 
ATOM     20  O   UNL     1      49.188   9.735  14.690  0.00  0.00    +0.000 OA
ATOM     21  N   UNL     1      47.152   8.704  14.778  0.00  0.00    +0.000 N 
ATOM     22  H   UNL     1      46.374   8.456  15.382  0.00  0.00    +0.000 HD
BRANCH  19  29
ATOM     23  N   UNL     1      49.251   5.385  17.875  0.00  0.00    +0.000 N 
ATOM     24  C   UNL     1      49.310   5.696  19.218  0.00  0.00    +0.000 A 
ATOM     25  N   UNL     1      49.110   6.863  19.737  0.00  0.00    +0.000 NA
ATOM     26  C   UNL     1      48.810   7.831  18.845  0.00  0.00    +0.000 A 
ATOM     27  S   UNL     1      48.436   9.398  19.365  0.00  0.00    +0.000 S 
ATOM     28  C   UNL     1      48.221   9.936  17.754  0.00  0.00    +0.000 A 
ATOM     29  C   UNL     1      48.428   8.946  16.801  0.00  0.00    +0.000 A 
ATOM     30  C   UNL     1      48.771   7.702  17.467  0.00  0.00    +0.000 A 
ATOM     31  C   UNL     1      49.072   6.384  16.929  0.00  0.00    +0.000 A 
ATOM     32  O   UNL     1      49.238   6.178  15.716  0.00  0.00    +0.000 OA
BRANCH  23  33
ATOM     33  C   UNL     1      49.556   4.040  17.401  0.00  0.00    +0.000 C 
BRANCH  33  35
ATOM     34  C   UNL     1      47.123   3.390  17.261  0.00  0.00    +0.000 C 
ATOM     35  C   UNL     1      48.491   3.013  17.809  0.00  0.00    +0.000 C 
ENDBRANCH  33  35
ENDBRANCH  23  33
ENDBRANCH  19  29
ENDBRANCH   1  21
TORSDOF 8
ENDMDL
MODEL 6
REMARK VINA RESULT:    -6.944      4.796      9.436
REMARK INTER + INTRA:         -11.500
REMARK INTER:                 -10.646
REMARK INTRA:                  -0.854
REMARK UNBOUND:                -1.308
REMARK  Name = 
REMARK  9 active torsions:
REMARK  status: ('A' for Active; 'I' for Inactive)
REMARK    1  A    between atoms: C_1  and  C_2
REMARK    2  A    between atoms: C_2  and  C_3
REMARK    3  A    between atoms: C_3  and  N_4
REMARK    4  A    between atoms: C_10  and  C_11
REMARK    5  A    between atoms: N_13  and  C_14
REMARK    6  A    between atoms: C_14  and  C_15
REMARK    7  A    between atoms: C_18  and  C_19
REMARK    8  A    between atoms: C_19  and  N_20
REMARK    9  A    between atoms: C_21  and  C_23
REMARK                            x       y       z     vdW  Elec       q    Type
REMARK                         _______ _______ _______ _____ _____    ______ ____
ROOT
ATOM      1  C   UNL     1      47.251   3.951  17.359  0.00  0.00    +0.000 C 
ENDROOT
BRANCH   1   2
ATOM      2  C   UNL     1      48.622   4.072  17.986  0.00  0.00    +0.000 A 
ATOM      3  C   UNL     1      48.780   4.863  19.132  0.00  0.00    +0.000 A 
ATOM      4  C   UNL     1      50.030   4.989  19.763  0.00  0.00    +0.000 A 
ATOM      5  C   UNL     1      51.161   4.329  19.258  0.00  0.00    +0.000 A 
ATOM      6  C   UNL     1      51.008   3.564  18.098  0.00  0.00    +0.000 A 
ATOM      7  C   UNL     1      49.758   3.427  17.474  0.00  0.00    +0.000 A 
BRANCH   5   8
ATOM      8  C   UNL     1      52.524   4.396  19.900  0.00  0.00    +0.000 C 
BRANCH   8   9
ATOM      9  N   UNL     1      53.391   3.321  19.481  0.00  0.00    +0.000 N 
ATOM     10  C   UNL     1      54.396   3.477  18.555  0.00  0.00    +0.000 C 
ATOM     11  O   UNL     1      54.683   4.547  18.016  0.00  0.00    +0.000 OA
ATOM     12  H   UNL     1      53.268   2.413  19.908  0.00  0.00    +0.000 HD
BRANCH  10  13
ATOM     13  C   UNL     1      55.194   2.181  18.359  0.00  0.00    +0.000 C 
ATOM     14  C   UNL     1      54.734   1.464  17.102  0.00  0.00    +0.000 C 
ATOM     15  C   UNL     1      53.657   0.546  17.640  0.00  0.00    +0.000 C 
ATOM     16  N   UNL     1      54.269  -0.001  18.857  0.00  0.00    +0.000 NA
ATOM     17  C   UNL     1      54.985   1.138  19.467  0.00  0.00    +0.000 C 
ATOM     18  H   UNL     1      54.954  -0.704  18.573  0.00  0.00    +0.000 HD
ENDBRANCH  10  13
ENDBRANCH   8   9
ENDBRANCH   5   8
ENDBRANCH   1   2
BRANCH   1  21
ATOM     19  C   UNL     1      47.218   4.300  14.922  0.00  0.00    +0.000 C 
ATOM     20  O   UNL     1      47.568   3.130  14.696  0.00  0.00    +0.000 OA
ATOM     21  N   UNL     1      47.068   4.779  16.194  0.00  0.00    +0.000 N 
ATOM     22  H   UNL     1      46.578   5.659  16.324  0.00  0.00    +0.000 HD
BRANCH  19  29
ATOM     23  N   UNL     1      44.905   4.020  10.896  0.00  0.00    +0.000 N 
ATOM     24  C   UNL     1      44.921   5.233  10.241  0.00  0.00    +0.000 A 
ATOM     25  N   UNL     1      45.507   6.310  10.650  0.00  0.00    +0.000 NA
ATOM     26  C   UNL     1      46.158   6.184  11.827  0.00  0.00    +0.000 A 
ATOM     27  S   UNL     1      47.049   7.475  12.463  0.00  0.00    +0.000 S 
ATOM     28  C   UNL     1      47.489   6.559  13.841  0.00  0.00    +0.000 A 
ATOM     29  C   UNL     1      46.972   5.268  13.843  0.00  0.00    +0.000 A 
ATOM     30  C   UNL     1      46.189   5.062  12.637  0.00  0.00    +0.000 A 
ATOM     31  C   UNL     1      45.457   3.898  12.164  0.00  0.00    +0.000 A 
ATOM     32  O   UNL     1      45.264   2.896  12.871  0.00  0.00    +0.000 OA
BRANCH  23  33
ATOM     33  C   UNL     1      44.156   2.887  10.364  0.00  0.00    +0.000 C 
BRANCH  33  35
ATOM     34  C   UNL     1      45.681   1.762   8.699  0.00  0.00    +0.000 C 
ATOM     35  C   UNL     1      44.446   2.632   8.878  0.00  0.00    +0.000 C 
ENDBRANCH  33  35
ENDBRANCH  23  33
ENDBRANCH  19  29
ENDBRANCH   1  21
TORSDOF 8
ENDMDL
MODEL 7
REMARK VINA RESULT:    -6.726      3.634      9.361
REMARK INTER + INTRA:         -11.179
REMARK INTER:                 -10.012
REMARK INTRA:                  -1.167
REMARK UNBOUND:                -1.308
REMARK  Name = 
REMARK  9 active torsions:
REMARK  status: ('A' for Active; 'I' for Inactive)
REMARK    1  A    between atoms: C_1  and  C_2
REMARK    2  A    between atoms: C_2  and  C_3
REMARK    3  A    between atoms: C_3  and  N_4
REMARK    4  A    between atoms: C_10  and  C_11
REMARK    5  A    between atoms: N_13  and  C_14
REMARK    6  A    between atoms: C_14  and  C_15
REMARK    7  A    between atoms: C_18  and  C_19
REMARK    8  A    between atoms: C_19  and  N_20
REMARK    9  A    between atoms: C_21  and  C_23
REMARK                            x       y       z     vdW  Elec       q    Type
REMARK                         _______ _______ _______ _____ _____    ______ ____
ROOT
ATOM      1  C   UNL     1      47.767   7.736  11.923  0.00  0.00    +0.000 C 
ENDROOT
BRANCH   1   2
ATOM      2  C   UNL     1      48.758   7.659  13.063  0.00  0.00    +0.000 A 
ATOM      3  C   UNL     1      48.388   7.006  14.246  0.00  0.00    +0.000 A 
ATOM      4  C   UNL     1      49.282   6.890  15.324  0.00  0.00    +0.000 A 
ATOM      5  C   UNL     1      50.574   7.433  15.250  0.00  0.00    +0.000 A 
ATOM      6  C   UNL     1      50.932   8.110  14.080  0.00  0.00    +0.000 A 
ATOM      7  C   UNL     1      50.045   8.216  12.997  0.00  0.00    +0.000 A 
BRANCH   5   8
ATOM      8  C   UNL     1      51.593   7.320  16.355  0.00  0.00    +0.000 C 
BRANCH   8   9
ATOM      9  N   UNL     1      51.397   6.150  17.178  0.00  0.00    +0.000 N 
ATOM     10  C   UNL     1      52.367   5.198  17.382  0.00  0.00    +0.000 C 
ATOM     11  O   UNL     1      53.506   5.257  16.918  0.00  0.00    +0.000 OA
ATOM     12  H   UNL     1      50.508   6.040  17.647  0.00  0.00    +0.000 HD
BRANCH  10  13
ATOM     13  C   UNL     1      51.897   4.107  18.354  0.00  0.00    +0.000 C 
ATOM     14  C   UNL     1      51.881   4.641  19.776  0.00  0.00    +0.000 C 
ATOM     15  C   UNL     1      53.266   4.271  20.265  0.00  0.00    +0.000 C 
ATOM     16  N   UNL     1      53.429   2.893  19.784  0.00  0.00    +0.000 NA
ATOM     17  C   UNL     1      52.829   2.889  18.435  0.00  0.00    +0.000 C 
ATOM     18  H   UNL     1      52.875   2.285  20.391  0.00  0.00    +0.000 HD
ENDBRANCH  10  13
ENDBRANCH   8   9
ENDBRANCH   5   8
ENDBRANCH   1   2
BRANCH   1  21
ATOM     19  C   UNL     1      45.580   6.638  11.656  0.00  0.00    +0.000 C 
ATOM     20  O   UNL     1      44.972   7.722  11.685  0.00  0.00    +0.000 OA
ATOM     21  N   UNL     1      46.938   6.565  11.792  0.00  0.00    +0.000 N 
ATOM     22  H   UNL     1      47.402   5.695  11.546  0.00  0.00    +0.000 HD
BRANCH  19  29
ATOM     23  N   UNL     1      45.363   3.544   8.190  0.00  0.00    +0.000 N 
ATOM     24  C   UNL     1      44.603   2.452   8.559  0.00  0.00    +0.000 A 
ATOM     25  N   UNL     1      44.003   2.293   9.693  0.00  0.00    +0.000 NA
ATOM     26  C   UNL     1      44.154   3.319  10.559  0.00  0.00    +0.000 A 
ATOM     27  S   UNL     1      43.365   3.307  12.056  0.00  0.00    +0.000 S 
ATOM     28  C   UNL     1      44.049   4.817  12.485  0.00  0.00    +0.000 A 
ATOM     29  C   UNL     1      44.882   5.352  11.509  0.00  0.00    +0.000 A 
ATOM     30  C   UNL     1      44.929   4.451  10.371  0.00  0.00    +0.000 A 
ATOM     31  C   UNL     1      45.639   4.550   9.105  0.00  0.00    +0.000 A 
ATOM     32  O   UNL     1      46.494   5.422   8.884  0.00  0.00    +0.000 OA
BRANCH  23  33
ATOM     33  C   UNL     1      46.044   3.584   6.901  0.00  0.00    +0.000 C 
BRANCH  33  35
ATOM     34  C   UNL     1      47.730   2.467   5.394  0.00  0.00    +0.000 C 
ATOM     35  C   UNL     1      46.826   2.297   6.605  0.00  0.00    +0.000 C 
ENDBRANCH  33  35
ENDBRANCH  23  33
ENDBRANCH  19  29
ENDBRANCH   1  21
TORSDOF 8
ENDMDL
MODEL 8
REMARK VINA RESULT:    -6.574      3.048      5.467
REMARK INTER + INTRA:         -10.957
REMARK INTER:                  -9.286
REMARK INTRA:                  -1.671
REMARK UNBOUND:                -1.308
REMARK  Name = 
REMARK  9 active torsions:
REMARK  status: ('A' for Active; 'I' for Inactive)
REMARK    1  A    between atoms: C_1  and  C_2
REMARK    2  A    between atoms: C_2  and  C_3
REMARK    3  A    between atoms: C_3  and  N_4
REMARK    4  A    between atoms: C_10  and  C_11
REMARK    5  A    between atoms: N_13  and  C_14
REMARK    6  A    between atoms: C_14  and  C_15
REMARK    7  A    between atoms: C_18  and  C_19
REMARK    8  A    between atoms: C_19  and  N_20
REMARK    9  A    between atoms: C_21  and  C_23
REMARK                            x       y       z     vdW  Elec       q    Type
REMARK                         _______ _______ _______ _____ _____    ______ ____
ROOT
ATOM      1  C   UNL     1      50.421   8.129  13.097  0.00  0.00    +0.000 C 
ENDROOT
BRANCH   1   2
ATOM      2  C   UNL     1      48.975   7.955  12.689  0.00  0.00    +0.000 A 
ATOM      3  C   UNL     1      48.176   9.091  12.509  0.00  0.00    +0.000 A 
ATOM      4  C   UNL     1      46.833   8.981  12.109  0.00  0.00    +0.000 A 
ATOM      5  C   UNL     1      46.249   7.726  11.883  0.00  0.00    +0.000 A 
ATOM      6  C   UNL     1      47.040   6.591  12.091  0.00  0.00    +0.000 A 
ATOM      7  C   UNL     1      48.384   6.699  12.479  0.00  0.00    +0.000 A 
BRANCH   5   8
ATOM      8  C   UNL     1      44.826   7.535  11.425  0.00  0.00    +0.000 C 
BRANCH   8   9
ATOM      9  N   UNL     1      44.500   6.151  11.175  0.00  0.00    +0.000 N 
ATOM     10  C   UNL     1      43.249   5.619  11.384  0.00  0.00    +0.000 C 
ATOM     11  O   UNL     1      42.275   6.267  11.768  0.00  0.00    +0.000 OA
ATOM     12  H   UNL     1      45.223   5.548  10.806  0.00  0.00    +0.000 HD
BRANCH  10  13
ATOM     13  C   UNL     1      43.184   4.143  10.969  0.00  0.00    +0.000 C 
ATOM     14  C   UNL     1      43.444   3.247  12.168  0.00  0.00    +0.000 C 
ATOM     15  C   UNL     1      44.943   3.049  12.093  0.00  0.00    +0.000 C 
ATOM     16  N   UNL     1      45.170   2.791  10.666  0.00  0.00    +0.000 NA
ATOM     17  C   UNL     1      44.265   3.722   9.963  0.00  0.00    +0.000 C 
ATOM     18  H   UNL     1      44.870   1.833  10.471  0.00  0.00    +0.000 HD
ENDBRANCH  10  13
ENDBRANCH   8   9
ENDBRANCH   5   8
ENDBRANCH   1   2
BRANCH   1  21
ATOM     19  C   UNL     1      50.663   8.414  15.530  0.00  0.00    +0.000 C 
ATOM     20  O   UNL     1      50.400   9.627  15.468  0.00  0.00    +0.000 OA
ATOM     21  N   UNL     1      50.718   7.626  14.414  0.00  0.00    +0.000 N 
ATOM     22  H   UNL     1      50.721   6.618  14.535  0.00  0.00    +0.000 HD
BRANCH  19  29
ATOM     23  N   UNL     1      48.464   5.127  17.979  0.00  0.00    +0.000 N 
ATOM     24  C   UNL     1      49.192   4.787  19.101  0.00  0.00    +0.000 A 
ATOM     25  N   UNL     1      50.319   5.308  19.461  0.00  0.00    +0.000 NA
ATOM     26  C   UNL     1      50.781   6.275  18.639  0.00  0.00    +0.000 A 
ATOM     27  S   UNL     1      52.201   7.118  19.011  0.00  0.00    +0.000 S 
ATOM     28  C   UNL     1      52.081   8.052  17.581  0.00  0.00    +0.000 A 
ATOM     29  C   UNL     1      50.972   7.742  16.802  0.00  0.00    +0.000 A 
ATOM     30  C   UNL     1      50.209   6.689  17.448  0.00  0.00    +0.000 A 
ATOM     31  C   UNL     1      48.978   6.024  17.052  0.00  0.00    +0.000 A 
ATOM     32  O   UNL     1      48.463   6.179  15.934  0.00  0.00    +0.000 OA
BRANCH  23  33
ATOM     33  C   UNL     1      47.231   4.425  17.641  0.00  0.00    +0.000 C 
BRANCH  33  35
ATOM     34  C   UNL     1      48.304   2.522  16.380  0.00  0.00    +0.000 C 
ATOM     35  C   UNL     1      47.421   2.904  17.558  0.00  0.00    +0.000 C 
ENDBRANCH  33  35
ENDBRANCH  23  33
ENDBRANCH  19  29
ENDBRANCH   1  21
TORSDOF 8
ENDMDL
MODEL 9
REMARK VINA RESULT:    -6.516      5.004      8.758
REMARK INTER + INTRA:         -10.872
REMARK INTER:                  -9.379
REMARK INTRA:                  -1.493
REMARK UNBOUND:                -1.308
REMARK  Name = 
REMARK  9 active torsions:
REMARK  status: ('A' for Active; 'I' for Inactive)
REMARK    1  A    between atoms: C_1  and  C_2
REMARK    2  A    between atoms: C_2  and  C_3
REMARK    3  A    between atoms: C_3  and  N_4
REMARK    4  A    between atoms: C_10  and  C_11
REMARK    5  A    between atoms: N_13  and  C_14
REMARK    6  A    between atoms: C_14  and  C_15
REMARK    7  A    between atoms: C_18  and  C_19
REMARK    8  A    between atoms: C_19  and  N_20
REMARK    9  A    between atoms: C_21  and  C_23
REMARK                            x       y       z     vdW  Elec       q    Type
REMARK                         _______ _______ _______ _____ _____    ______ ____
ROOT
ATOM      1  C   UNL     1      47.343   3.399  17.029  0.00  0.00    +0.000 C 
ENDROOT
BRANCH   1   2
ATOM      2  C   UNL     1      48.803   3.675  17.307  0.00  0.00    +0.000 A 
ATOM      3  C   UNL     1      49.713   2.610  17.294  0.00  0.00    +0.000 A 
ATOM      4  C   UNL     1      51.084   2.819  17.525  0.00  0.00    +0.000 A 
ATOM      5  C   UNL     1      51.583   4.105  17.782  0.00  0.00    +0.000 A 
ATOM      6  C   UNL     1      50.669   5.163  17.822  0.00  0.00    +0.000 A 
ATOM      7  C   UNL     1      49.302   4.958  17.580  0.00  0.00    +0.000 A 
BRANCH   5   8
ATOM      8  C   UNL     1      53.042   4.406  18.008  0.00  0.00    +0.000 C 
BRANCH   8   9
ATOM      9  N   UNL     1      53.875   3.230  17.922  0.00  0.00    +0.000 N 
ATOM     10  C   UNL     1      54.249   2.487  19.017  0.00  0.00    +0.000 C 
ATOM     11  O   UNL     1      53.889   2.722  20.171  0.00  0.00    +0.000 OA
ATOM     12  H   UNL     1      54.178   2.925  17.007  0.00  0.00    +0.000 HD
BRANCH  10  13
ATOM     13  C   UNL     1      55.076   1.259  18.613  0.00  0.00    +0.000 C 
ATOM     14  C   UNL     1      54.437   0.562  17.424  0.00  0.00    +0.000 C 
ATOM     15  C   UNL     1      53.537  -0.451  18.099  0.00  0.00    +0.000 C 
ATOM     16  N   UNL     1      54.395  -1.001  19.156  0.00  0.00    +0.000 NA
ATOM     17  C   UNL     1      55.139   0.160  19.685  0.00  0.00    +0.000 C 
ATOM     18  H   UNL     1      55.058  -1.642  18.716  0.00  0.00    +0.000 HD
ENDBRANCH  10  13
ENDBRANCH   8   9
ENDBRANCH   5   8
ENDBRANCH   1   2
BRANCH   1  21
ATOM     19  C   UNL     1      46.851   4.006  14.695  0.00  0.00    +0.000 C 
ATOM     20  O   UNL     1      47.477   3.028  14.253  0.00  0.00    +0.000 OA
ATOM     21  N   UNL     1      46.765   4.266  16.034  0.00  0.00    +0.000 N 
ATOM     22  H   UNL     1      46.073   4.939  16.352  0.00  0.00    +0.000 HD
BRANCH  19  29
ATOM     23  N   UNL     1      48.167   8.123  12.977  0.00  0.00    +0.000 N 
ATOM     24  C   UNL     1      47.195   8.635  12.142  0.00  0.00    +0.000 A 
ATOM     25  N   UNL     1      46.057   8.083  11.874  0.00  0.00    +0.000 NA
ATOM     26  C   UNL     1      45.842   6.905  12.497  0.00  0.00    +0.000 A 
ATOM     27  S   UNL     1      44.367   6.092  12.321  0.00  0.00    +0.000 S 
ATOM     28  C   UNL     1      44.895   4.812  13.329  0.00  0.00    +0.000 A 
ATOM     29  C   UNL     1      46.188   4.977  13.812  0.00  0.00    +0.000 A 
ATOM     30  C   UNL     1      46.732   6.227  13.312  0.00  0.00    +0.000 A 
ATOM     31  C   UNL     1      48.026   6.857  13.528  0.00  0.00    +0.000 A 
ATOM     32  O   UNL     1      48.967   6.277  14.091  0.00  0.00    +0.000 OA
BRANCH  23  33
ATOM     33  C   UNL     1      49.442   8.809  13.156  0.00  0.00    +0.000 C 
BRANCH  33  35
ATOM     34  C   UNL     1      51.069   8.109  11.361  0.00  0.00    +0.000 C 
ATOM     35  C   UNL     1      50.102   9.188  11.823  0.00  0.00    +0.000 C 
ENDBRANCH  33  35
ENDBRANCH  23  33
ENDBRANCH  19  29
ENDBRANCH   1  21
TORSDOF 8
ENDMDL
