MODEL 1
REMARK VINA RESULT:    -8.379      0.000      0.000
REMARK INTER + INTRA:         -12.337
REMARK INTER:                 -11.318
REMARK INTRA:                  -1.020
REMARK UNBOUND:                -1.020
REMARK  Name = 
REMARK  6 active torsions:
REMARK  status: ('A' for Active; 'I' for Inactive)
REMARK    1  A    between atoms: C_2  and  C_25
REMARK    2  A    between atoms: N_3  and  C_4
REMARK    3  A    between atoms: C_4  and  C_5
REMARK    4  A    between atoms: C_8  and  C_9
REMARK    5  A    between atoms: C_9  and  N_10
REMARK    6  A    between atoms: C_11  and  C_13
REMARK                            x       y       z     vdW  Elec       q    Type
REMARK                         _______ _______ _______ _____ _____    ______ ____
ROOT
ATOM      1  C   UNL     1      44.872   6.082  11.304  0.00  0.00    +0.000 A 
ATOM      2  C   UNL     1      46.032   5.536  11.868  0.00  0.00    +0.000 A 
ATOM      3  C   UNL     1      46.862   6.312  12.685  0.00  0.00    +0.000 A 
ATOM      4  C   UNL     1      46.538   7.645  12.971  0.00  0.00    +0.000 A 
ATOM      5  C   UNL     1      45.374   8.188  12.412  0.00  0.00    +0.000 A 
ATOM      6  C   UNL     1      44.544   7.413  11.596  0.00  0.00    +0.000 A 
ENDROOT
BRANCH   1   7
ATOM      7  C   UNL     1      44.026   5.278  10.354  0.00  0.00    +0.000 C 
BRANCH   7  10
ATOM      8  O   UNL     1      44.436   2.544  10.194  0.00  0.00    +0.000 OA
ATOM      9  C   UNL     1      44.932   3.257   9.328  0.00  0.00    +0.000 C 
ATOM     10  N   UNL     1      44.773   4.631   9.307  0.00  0.00    +0.000 N 
ATOM     11  H   UNL     1      45.249   5.157   8.580  0.00  0.00    +0.000 HD
BRANCH   9  12
ATOM     12  C   UNL     1      45.761   2.666   8.230  0.00  0.00    +0.000 A 
ATOM     13  C   UNL     1      46.062   3.449   7.118  0.00  0.00    +0.000 A 
ATOM     14  C   UNL     1      46.828   2.890   6.100  0.00  0.00    +0.000 A 
ATOM     15  C   UNL     1      47.263   1.575   6.228  0.00  0.00    +0.000 A 
ATOM     16  C   UNL     1      46.916   0.870   7.374  0.00  0.00    +0.000 A 
ATOM     17  N   UNL     1      46.175   1.379   8.384  0.00  0.00    +0.000 NA
ENDBRANCH   9  12
ENDBRANCH   7  10
ENDBRANCH   1   7
BRANCH   4  18
ATOM     18  C   UNL     1      47.436   8.494  13.835  0.00  0.00    +0.000 C 
BRANCH  18  19
ATOM     19  N   UNL     1      47.826   7.806  15.040  0.00  0.00    +0.000 N 
ATOM     20  C   UNL     1      49.103   7.325  15.193  0.00  0.00    +0.000 C 
ATOM     21  O   UNL     1      49.965   7.497  14.333  0.00  0.00    +0.000 OA
ATOM     22  H   UNL     1      47.085   7.465  15.645  0.00  0.00    +0.000 HD
BRANCH  20  23
ATOM     23  C   UNL     1      49.415   6.651  16.461  0.00  0.00    +0.000 A 
ATOM     24  C   UNL     1      50.373   7.196  17.306  0.00  0.00    +0.000 A 
ATOM     25  S   UNL     1      50.577   6.330  18.761  0.00  0.00    +0.000 S 
ATOM     26  C   UNL     1      49.429   5.165  18.289  0.00  0.00    +0.000 A 
ATOM     27  N   UNL     1      49.138   4.107  19.094  0.00  0.00    +0.000 NA
ATOM     28  C   UNL     1      48.280   3.281  18.597  0.00  0.00    +0.000 A 
ATOM     29  N   UNL     1      47.684   3.418  17.369  0.00  0.00    +0.000 N 
ATOM     30  C   UNL     1      47.923   4.487  16.538  0.00  0.00    +0.000 A 
ATOM     31  O   UNL     1      47.341   4.603  15.464  0.00  0.00    +0.000 OA
ATOM     32  C   UNL     1      48.889   5.442  17.045  0.00  0.00    +0.000 A 
ATOM     33  H   UNL     1      47.015   2.738  17.041  0.00  0.00    +0.000 HD
ENDBRANCH  20  23
ENDBRANCH  18  19
ENDBRANCH   4  18
TORSDOF 6
ENDMDL
MODEL 2
REMARK VINA RESULT:    -7.798      1.387      1.819
REMARK INTER + INTRA:         -11.553
REMARK INTER:                 -10.621
REMARK INTRA:                  -0.932
REMARK UNBOUND:                -1.020
REMARK  Name = 
REMARK  6 active torsions:
REMARK  status: ('A' for Active; 'I' for Inactive)
REMARK    1  A    between atoms: C_2  and  C_25
REMARK    2  A    between atoms: N_3  and  C_4
REMARK    3  A    between atoms: C_4  and  C_5
REMARK    4  A    between atoms: C_8  and  C_9
REMARK    5  A    between atoms: C_9  and  N_10
REMARK    6  A    between atoms: C_11  and  C_13
REMARK                            x       y       z     vdW  Elec       q    Type
REMARK                         _______ _______ _______ _____ _____    ______ ____
ROOT
ATOM      1  C   UNL     1      45.344   6.588  11.501  0.00  0.00    +0.000 A 
ATOM      2  C   UNL     1      44.921   7.858  11.914  0.00  0.00    +0.000 A 
ATOM      3  C   UNL     1      45.696   8.618  12.798  0.00  0.00    +0.000 A 
ATOM      4  C   UNL     1      46.921   8.130  13.273  0.00  0.00    +0.000 A 
ATOM      5  C   UNL     1      47.347   6.863  12.855  0.00  0.00    +0.000 A 
ATOM      6  C   UNL     1      46.573   6.104  11.970  0.00  0.00    +0.000 A 
ENDROOT
BRANCH   1   7
ATOM      7  C   UNL     1      44.471   5.734  10.623  0.00  0.00    +0.000 C 
BRANCH   7  10
ATOM      8  O   UNL     1      43.907   3.136   9.848  0.00  0.00    +0.000 OA
ATOM      9  C   UNL     1      44.835   3.718   9.296  0.00  0.00    +0.000 C 
ATOM     10  N   UNL     1      45.188   5.022   9.598  0.00  0.00    +0.000 N 
ATOM     11  H   UNL     1      45.994   5.422   9.126  0.00  0.00    +0.000 HD
BRANCH   9  12
ATOM     12  C   UNL     1      45.659   3.031   8.251  0.00  0.00    +0.000 A 
ATOM     13  C   UNL     1      46.025   1.702   8.449  0.00  0.00    +0.000 A 
ATOM     14  C   UNL     1      46.794   1.073   7.475  0.00  0.00    +0.000 A 
ATOM     15  C   UNL     1      47.169   1.791   6.345  0.00  0.00    +0.000 A 
ATOM     16  C   UNL     1      46.756   3.113   6.231  0.00  0.00    +0.000 A 
ATOM     17  N   UNL     1      46.008   3.758   7.155  0.00  0.00    +0.000 NA
ENDBRANCH   9  12
ENDBRANCH   7  10
ENDBRANCH   1   7
BRANCH   4  18
ATOM     18  C   UNL     1      47.753   8.932  14.241  0.00  0.00    +0.000 C 
BRANCH  18  19
ATOM     19  N   UNL     1      47.839   8.293  15.531  0.00  0.00    +0.000 N 
ATOM     20  C   UNL     1      48.793   8.676  16.442  0.00  0.00    +0.000 C 
ATOM     21  O   UNL     1      49.575   9.595  16.211  0.00  0.00    +0.000 OA
ATOM     22  H   UNL     1      47.362   7.404  15.645  0.00  0.00    +0.000 HD
BRANCH  20  23
ATOM     23  C   UNL     1      48.795   7.980  17.736  0.00  0.00    +0.000 A 
ATOM     24  C   UNL     1      48.823   8.721  18.910  0.00  0.00    +0.000 A 
ATOM     25  S   UNL     1      48.763   7.770  20.324  0.00  0.00    +0.000 S 
ATOM     26  C   UNL     1      48.751   6.330  19.418  0.00  0.00    +0.000 A 
ATOM     27  N   UNL     1      48.726   5.118  20.035  0.00  0.00    +0.000 NA
ATOM     28  C   UNL     1      48.759   4.109  19.229  0.00  0.00    +0.000 A 
ATOM     29  N   UNL     1      48.812   4.204  17.862  0.00  0.00    +0.000 N 
ATOM     30  C   UNL     1      48.805   5.406  17.195  0.00  0.00    +0.000 A 
ATOM     31  O   UNL     1      48.809   5.455  15.969  0.00  0.00    +0.000 OA
ATOM     32  C   UNL     1      48.779   6.573  18.055  0.00  0.00    +0.000 A 
ATOM     33  H   UNL     1      48.829   3.374  17.288  0.00  0.00    +0.000 HD
ENDBRANCH  20  23
ENDBRANCH  18  19
ENDBRANCH   4  18
TORSDOF 6
ENDMDL
MODEL 3
REMARK VINA RESULT:    -7.529      2.284      3.469
REMARK INTER + INTRA:         -11.189
REMARK INTER:                 -10.216
REMARK INTRA:                  -0.973
REMARK UNBOUND:                -1.020
REMARK  Name = 
REMARK  6 active torsions:
REMARK  status: ('A' for Active; 'I' for Inactive)
REMARK    1  A    between atoms: C_2  and  C_25
REMARK    2  A    between atoms: N_3  and  C_4
REMARK    3  A    between atoms: C_4  and  C_5
REMARK    4  A    between atoms: C_8  and  C_9
REMARK    5  A    between atoms: C_9  and  N_10
REMARK    6  A    between atoms: C_11  and  C_13
REMARK                            x       y       z     vdW  Elec       q    Type
REMARK                         _______ _______ _______ _____ _____    ______ ____
ROOT
ATOM      1  C   UNL     1      45.626   5.411  11.825  0.00  0.00    +0.000 A 
ATOM      2  C   UNL     1      45.186   4.353  12.630  0.00  0.00    +0.000 A 
ATOM      3  C   UNL     1      45.833   4.055  13.836  0.00  0.00    +0.000 A 
ATOM      4  C   UNL     1      46.921   4.824  14.271  0.00  0.00    +0.000 A 
ATOM      5  C   UNL     1      47.356   5.887  13.468  0.00  0.00    +0.000 A 
ATOM      6  C   UNL     1      46.709   6.184  12.264  0.00  0.00    +0.000 A 
ENDROOT
BRANCH   1   7
ATOM      7  C   UNL     1      44.990   5.676  10.488  0.00  0.00    +0.000 C 
BRANCH   7  10
ATOM      8  O   UNL     1      44.294   3.157   9.572  0.00  0.00    +0.000 OA
ATOM      9  C   UNL     1      45.221   3.741   9.018  0.00  0.00    +0.000 C 
ATOM     10  N   UNL     1      45.635   5.008   9.388  0.00  0.00    +0.000 N 
ATOM     11  H   UNL     1      46.436   5.409   8.909  0.00  0.00    +0.000 HD
BRANCH   9  12
ATOM     12  C   UNL     1      45.973   3.096   7.895  0.00  0.00    +0.000 A 
ATOM     13  C   UNL     1      46.407   1.781   8.044  0.00  0.00    +0.000 A 
ATOM     14  C   UNL     1      47.109   1.191   6.998  0.00  0.00    +0.000 A 
ATOM     15  C   UNL     1      47.353   1.933   5.847  0.00  0.00    +0.000 A 
ATOM     16  C   UNL     1      46.878   3.238   5.786  0.00  0.00    +0.000 A 
ATOM     17  N   UNL     1      46.192   3.845   6.781  0.00  0.00    +0.000 NA
ENDBRANCH   9  12
ENDBRANCH   7  10
ENDBRANCH   1   7
BRANCH   4  18
ATOM     18  C   UNL     1      47.636   4.499  15.558  0.00  0.00    +0.000 C 
BRANCH  18  19
ATOM     19  N   UNL     1      47.547   5.581  16.507  0.00  0.00    +0.000 N 
ATOM     20  C   UNL     1      48.600   5.873  17.339  0.00  0.00    +0.000 C 
ATOM     21  O   UNL     1      49.661   5.257  17.279  0.00  0.00    +0.000 OA
ATOM     22  H   UNL     1      46.622   5.941  16.721  0.00  0.00    +0.000 HD
BRANCH  20  23
ATOM     23  C   UNL     1      48.425   7.003  18.263  0.00  0.00    +0.000 A 
ATOM     24  C   UNL     1      48.412   6.769  19.632  0.00  0.00    +0.000 A 
ATOM     25  S   UNL     1      48.260   8.185  20.569  0.00  0.00    +0.000 S 
ATOM     26  C   UNL     1      48.153   9.158  19.176  0.00  0.00    +0.000 A 
ATOM     27  N   UNL     1      47.985  10.504  19.277  0.00  0.00    +0.000 NA
ATOM     28  C   UNL     1      47.880  11.114  18.144  0.00  0.00    +0.000 A 
ATOM     29  N   UNL     1      47.931  10.499  16.919  0.00  0.00    +0.000 N 
ATOM     30  C   UNL     1      48.132   9.146  16.769  0.00  0.00    +0.000 A 
ATOM     31  O   UNL     1      48.215   8.634  15.658  0.00  0.00    +0.000 OA
ATOM     32  C   UNL     1      48.245   8.412  18.014  0.00  0.00    +0.000 A 
ATOM     33  H   UNL     1      47.849  11.035  16.068  0.00  0.00    +0.000 HD
ENDBRANCH  20  23
ENDBRANCH  18  19
ENDBRANCH   4  18
TORSDOF 6
ENDMDL
MODEL 4
REMARK VINA RESULT:    -7.346      1.709      2.220
REMARK INTER + INTRA:         -10.942
REMARK INTER:                 -10.055
REMARK INTRA:                  -0.887
REMARK UNBOUND:                -1.020
REMARK  Name = 
REMARK  6 active torsions:
REMARK  status: ('A' for Active; 'I' for Inactive)
REMARK    1  A    between atoms: C_2  and  C_25
REMARK    2  A    between atoms: N_3  and  C_4
REMARK    3  A    between atoms: C_4  and  C_5
REMARK    4  A    between atoms: C_8  and  C_9
REMARK    5  A    between atoms: C_9  and  N_10
REMARK    6  A    between atoms: C_11  and  C_13
REMARK                            x       y       z     vdW  Elec       q    Type
REMARK                         _______ _______ _______ _____ _____    ______ ____
ROOT
ATOM      1  C   UNL     1      45.824   7.058  12.083  0.00  0.00    +0.000 A 
ATOM      2  C   UNL     1      45.810   8.409  12.454  0.00  0.00    +0.000 A 
ATOM      3  C   UNL     1      46.672   8.885  13.450  0.00  0.00    +0.000 A 
ATOM      4  C   UNL     1      47.580   8.022  14.080  0.00  0.00    +0.000 A 
ATOM      5  C   UNL     1      47.598   6.673  13.703  0.00  0.00    +0.000 A 
ATOM      6  C   UNL     1      46.737   6.198  12.707  0.00  0.00    +0.000 A 
ENDROOT
BRANCH   1   7
ATOM      7  C   UNL     1      44.838   6.527  11.078  0.00  0.00    +0.000 C 
BRANCH   7  10
ATOM      8  O   UNL     1      43.763   4.102  10.283  0.00  0.00    +0.000 OA
ATOM      9  C   UNL     1      44.811   4.471   9.764  0.00  0.00    +0.000 C 
ATOM     10  N   UNL     1      45.421   5.673  10.078  0.00  0.00    +0.000 N 
ATOM     11  H   UNL     1      46.310   5.890   9.634  0.00  0.00    +0.000 HD
BRANCH   9  12
ATOM     12  C   UNL     1      45.505   3.618   8.747  0.00  0.00    +0.000 A 
ATOM     13  C   UNL     1      45.570   2.242   8.954  0.00  0.00    +0.000 A 
ATOM     14  C   UNL     1      46.221   1.459   8.007  0.00  0.00    +0.000 A 
ATOM     15  C   UNL     1      46.782   2.074   6.892  0.00  0.00    +0.000 A 
ATOM     16  C   UNL     1      46.666   3.454   6.768  0.00  0.00    +0.000 A 
ATOM     17  N   UNL     1      46.041   4.248   7.666  0.00  0.00    +0.000 NA
ENDBRANCH   9  12
ENDBRANCH   7  10
ENDBRANCH   1   7
BRANCH   4  18
ATOM     18  C   UNL     1      48.498   8.522  15.166  0.00  0.00    +0.000 C 
BRANCH  18  19
ATOM     19  N   UNL     1      49.450   7.515  15.567  0.00  0.00    +0.000 N 
ATOM     20  C   UNL     1      49.410   6.973  16.828  0.00  0.00    +0.000 C 
ATOM     21  O   UNL     1      48.546   7.292  17.641  0.00  0.00    +0.000 OA
ATOM     22  H   UNL     1      50.287   7.411  15.001  0.00  0.00    +0.000 HD
BRANCH  20  23
ATOM     23  C   UNL     1      50.410   5.943  17.142  0.00  0.00    +0.000 A 
ATOM     24  C   UNL     1      51.713   6.323  17.438  0.00  0.00    +0.000 A 
ATOM     25  S   UNL     1      52.735   5.018  17.838  0.00  0.00    +0.000 S 
ATOM     26  C   UNL     1      51.486   3.892  17.578  0.00  0.00    +0.000 A 
ATOM     27  N   UNL     1      51.707   2.558  17.730  0.00  0.00    +0.000 NA
ATOM     28  C   UNL     1      50.685   1.816  17.464  0.00  0.00    +0.000 A 
ATOM     29  N   UNL     1      49.461   2.287  17.063  0.00  0.00    +0.000 N 
ATOM     30  C   UNL     1      49.183   3.627  16.927  0.00  0.00    +0.000 A 
ATOM     31  O   UNL     1      48.065   4.017  16.607  0.00  0.00    +0.000 OA
ATOM     32  C   UNL     1      50.303   4.506  17.205  0.00  0.00    +0.000 A 
ATOM     33  H   UNL     1      48.699   1.652  16.876  0.00  0.00    +0.000 HD
ENDBRANCH  20  23
ENDBRANCH  18  19
ENDBRANCH   4  18
TORSDOF 6
ENDMDL
MODEL 5
REMARK VINA RESULT:    -7.231      4.902      9.795
REMARK INTER + INTRA:         -10.787
REMARK INTER:                  -9.965
REMARK INTRA:                  -0.821
REMARK UNBOUND:                -1.020
REMARK  Name = 
REMARK  6 active torsions:
REMARK  status: ('A' for Active; 'I' for Inactive)
REMARK    1  A    between atoms: C_2  and  C_25
REMARK    2  A    between atoms: N_3  and  C_4
REMARK    3  A    between atoms: C_4  and  C_5
REMARK    4  A    between atoms: C_8  and  C_9
REMARK    5  A    between atoms: C_9  and  N_10
REMARK    6  A    between atoms: C_11  and  C_13
REMARK                            x       y       z     vdW  Elec       q    Type
REMARK                         _______ _______ _______ _____ _____    ______ ____
ROOT
ATOM      1  C   UNL     1      51.407   2.874  17.770  0.00  0.00    +0.000 A 
ATOM      2  C   UNL     1      50.748   4.036  18.190  0.00  0.00    +0.000 A 
ATOM      3  C   UNL     1      49.389   4.227  17.915  0.00  0.00    +0.000 A 
ATOM      4  C   UNL     1      48.656   3.248  17.229  0.00  0.00    +0.000 A 
ATOM      5  C   UNL     1      49.314   2.083  16.815  0.00  0.00    +0.000 A 
ATOM      6  C   UNL     1      50.672   1.892  17.091  0.00  0.00    +0.000 A 
ENDROOT
BRANCH   1   7
ATOM      7  C   UNL     1      52.886   2.707  17.986  0.00  0.00    +0.000 C 
BRANCH   7  10
ATOM      8  O   UNL     1      54.605   0.985  16.663  0.00  0.00    +0.000 OA
ATOM      9  C   UNL     1      54.121   0.618  17.729  0.00  0.00    +0.000 C 
ATOM     10  N   UNL     1      53.266   1.408  18.476  0.00  0.00    +0.000 N 
ATOM     11  H   UNL     1      52.874   1.018  19.328  0.00  0.00    +0.000 HD
BRANCH   9  12
ATOM     12  C   UNL     1      54.430  -0.738  18.285  0.00  0.00    +0.000 A 
ATOM     13  C   UNL     1      54.869  -1.737  17.419  0.00  0.00    +0.000 A 
ATOM     14  C   UNL     1      55.149  -2.994  17.943  0.00  0.00    +0.000 A 
ATOM     15  C   UNL     1      54.981  -3.209  19.307  0.00  0.00    +0.000 A 
ATOM     16  C   UNL     1      54.541  -2.152  20.096  0.00  0.00    +0.000 A 
ATOM     17  N   UNL     1      54.260  -0.917  19.623  0.00  0.00    +0.000 NA
ENDBRANCH   9  12
ENDBRANCH   7  10
ENDBRANCH   1   7
BRANCH   4  18
ATOM     18  C   UNL     1      47.196   3.453  16.911  0.00  0.00    +0.000 C 
BRANCH  18  19
ATOM     19  N   UNL     1      47.002   4.503  15.941  0.00  0.00    +0.000 N 
ATOM     20  C   UNL     1      47.070   4.237  14.596  0.00  0.00    +0.000 C 
ATOM     21  O   UNL     1      47.257   3.099  14.170  0.00  0.00    +0.000 OA
ATOM     22  H   UNL     1      47.073   5.461  16.269  0.00  0.00    +0.000 HD
BRANCH  20  23
ATOM     23  C   UNL     1      46.844   5.365  13.681  0.00  0.00    +0.000 A 
ATOM     24  C   UNL     1      47.886   6.242  13.408  0.00  0.00    +0.000 A 
ATOM     25  S   UNL     1      47.481   7.460  12.286  0.00  0.00    +0.000 S 
ATOM     26  C   UNL     1      45.882   6.891  12.165  0.00  0.00    +0.000 A 
ATOM     27  N   UNL     1      44.978   7.518  11.366  0.00  0.00    +0.000 NA
ATOM     28  C   UNL     1      43.793   7.005  11.399  0.00  0.00    +0.000 A 
ATOM     29  N   UNL     1      43.432   5.921  12.157  0.00  0.00    +0.000 N 
ATOM     30  C   UNL     1      44.321   5.237  12.954  0.00  0.00    +0.000 A 
ATOM     31  O   UNL     1      43.976   4.244  13.586  0.00  0.00    +0.000 OA
ATOM     32  C   UNL     1      45.665   5.779  12.961  0.00  0.00    +0.000 A 
ATOM     33  H   UNL     1      42.488   5.565  12.133  0.00  0.00    +0.000 HD
ENDBRANCH  20  23
ENDBRANCH  18  19
ENDBRANCH   4  18
TORSDOF 6
ENDMDL
MODEL 6
REMARK VINA RESULT:    -7.170      1.777      3.282
REMARK INTER + INTRA:         -10.705
REMARK INTER:                  -9.710
REMARK INTRA:                  -0.995
REMARK UNBOUND:                -1.020
REMARK  Name = 
REMARK  6 active torsions:
REMARK  status: ('A' for Active; 'I' for Inactive)
REMARK    1  A    between atoms: C_2  and  C_25
REMARK    2  A    between atoms: N_3  and  C_4
REMARK    3  A    between atoms: C_4  and  C_5
REMARK    4  A    between atoms: C_8  and  C_9
REMARK    5  A    between atoms: C_9  and  N_10
REMARK    6  A    between atoms: C_11  and  C_13
REMARK                            x       y       z     vdW  Elec       q    Type
REMARK                         _______ _______ _______ _____ _____    ______ ____
ROOT
ATOM      1  C   UNL     1      45.221   5.173  11.677  0.00  0.00    +0.000 A 
ATOM      2  C   UNL     1      44.692   4.258  12.597  0.00  0.00    +0.000 A 
ATOM      3  C   UNL     1      45.321   4.038  13.829  0.00  0.00    +0.000 A 
ATOM      4  C   UNL     1      46.482   4.745  14.173  0.00  0.00    +0.000 A 
ATOM      5  C   UNL     1      47.006   5.664  13.256  0.00  0.00    +0.000 A 
ATOM      6  C   UNL     1      46.377   5.884  12.026  0.00  0.00    +0.000 A 
ENDROOT
BRANCH   1   7
ATOM      7  C   UNL     1      44.598   5.344  10.319  0.00  0.00    +0.000 C 
BRANCH   7  10
ATOM      8  O   UNL     1      44.341   2.686   9.588  0.00  0.00    +0.000 OA
ATOM      9  C   UNL     1      45.146   3.381   8.976  0.00  0.00    +0.000 C 
ATOM     10  N   UNL     1      45.337   4.724   9.251  0.00  0.00    +0.000 N 
ATOM     11  H   UNL     1      46.051   5.223   8.728  0.00  0.00    +0.000 HD
BRANCH   9  12
ATOM     12  C   UNL     1      45.986   2.799   7.881  0.00  0.00    +0.000 A 
ATOM     13  C   UNL     1      46.259   3.576   6.758  0.00  0.00    +0.000 A 
ATOM     14  C   UNL     1      47.036   3.026   5.744  0.00  0.00    +0.000 A 
ATOM     15  C   UNL     1      47.509   1.726   5.887  0.00  0.00    +0.000 A 
ATOM     16  C   UNL     1      47.189   1.027   7.045  0.00  0.00    +0.000 A 
ATOM     17  N   UNL     1      46.438   1.527   8.051  0.00  0.00    +0.000 NA
ENDBRANCH   9  12
ENDBRANCH   7  10
ENDBRANCH   1   7
BRANCH   4  18
ATOM     18  C   UNL     1      47.176   4.500  15.489  0.00  0.00    +0.000 C 
BRANCH  18  19
ATOM     19  N   UNL     1      47.926   5.654  15.920  0.00  0.00    +0.000 N 
ATOM     20  C   UNL     1      49.081   5.508  16.649  0.00  0.00    +0.000 C 
ATOM     21  O   UNL     1      49.536   4.400  16.924  0.00  0.00    +0.000 OA
ATOM     22  H   UNL     1      47.455   6.553  15.898  0.00  0.00    +0.000 HD
BRANCH  20  23
ATOM     23  C   UNL     1      49.787   6.739  17.031  0.00  0.00    +0.000 A 
ATOM     24  C   UNL     1      49.949   7.043  18.377  0.00  0.00    +0.000 A 
ATOM     25  S   UNL     1      50.839   8.471  18.656  0.00  0.00    +0.000 S 
ATOM     26  C   UNL     1      50.994   8.763  16.986  0.00  0.00    +0.000 A 
ATOM     27  N   UNL     1      51.646   9.866  16.529  0.00  0.00    +0.000 NA
ATOM     28  C   UNL     1      51.655   9.984  15.243  0.00  0.00    +0.000 A 
ATOM     29  N   UNL     1      51.074   9.096  14.374  0.00  0.00    +0.000 N 
ATOM     30  C   UNL     1      50.434   7.952  14.790  0.00  0.00    +0.000 A 
ATOM     31  O   UNL     1      49.963   7.156  13.984  0.00  0.00    +0.000 OA
ATOM     32  C   UNL     1      50.387   7.777  16.228  0.00  0.00    +0.000 A 
ATOM     33  H   UNL     1      51.123   9.243  13.377  0.00  0.00    +0.000 HD
ENDBRANCH  20  23
ENDBRANCH  18  19
ENDBRANCH   4  18
TORSDOF 6
ENDMDL
MODEL 7
REMARK VINA RESULT:    -7.099      2.391      3.170
REMARK INTER + INTRA:         -10.609
REMARK INTER:                  -9.713
REMARK INTRA:                  -0.896
REMARK UNBOUND:                -1.020
REMARK  Name = 
REMARK  6 active torsions:
REMARK  status: ('A' for Active; 'I' for Inactive)
REMARK    1  A    between atoms: C_2  and  C_25
REMARK    2  A    between atoms: N_3  and  C_4
REMARK    3  A    between atoms: C_4  and  C_5
REMARK    4  A    between atoms: C_8  and  C_9
REMARK    5  A    between atoms: C_9  and  N_10
REMARK    6  A    between atoms: C_11  and  C_13
REMARK                            x       y       z     vdW  Elec       q    Type
REMARK                         _______ _______ _______ _____ _____    ______ ____
ROOT
ATOM      1  C   UNL     1      45.626   5.011  11.921  0.00  0.00    +0.000 A 
ATOM      2  C   UNL     1      46.236   6.113  12.534  0.00  0.00    +0.000 A 
ATOM      3  C   UNL     1      46.854   5.984  13.784  0.00  0.00    +0.000 A 
ATOM      4  C   UNL     1      46.893   4.743  14.436  0.00  0.00    +0.000 A 
ATOM      5  C   UNL     1      46.289   3.641  13.818  0.00  0.00    +0.000 A 
ATOM      6  C   UNL     1      45.671   3.770  12.569  0.00  0.00    +0.000 A 
ENDROOT
BRANCH   1   7
ATOM      7  C   UNL     1      44.884   5.167  10.621  0.00  0.00    +0.000 C 
BRANCH   7  10
ATOM      8  O   UNL     1      44.361   2.620   9.669  0.00  0.00    +0.000 OA
ATOM      9  C   UNL     1      45.223   3.286   9.104  0.00  0.00    +0.000 C 
ATOM     10  N   UNL     1      45.548   4.574   9.491  0.00  0.00    +0.000 N 
ATOM     11  H   UNL     1      46.301   5.047   8.999  0.00  0.00    +0.000 HD
BRANCH   9  12
ATOM     12  C   UNL     1      45.992   2.724   7.948  0.00  0.00    +0.000 A 
ATOM     13  C   UNL     1      46.208   3.527   6.831  0.00  0.00    +0.000 A 
ATOM     14  C   UNL     1      46.918   2.996   5.759  0.00  0.00    +0.000 A 
ATOM     15  C   UNL     1      47.383   1.687   5.841  0.00  0.00    +0.000 A 
ATOM     16  C   UNL     1      47.122   0.961   6.997  0.00  0.00    +0.000 A 
ATOM     17  N   UNL     1      46.437   1.443   8.059  0.00  0.00    +0.000 NA
ENDBRANCH   9  12
ENDBRANCH   7  10
ENDBRANCH   1   7
BRANCH   4  18
ATOM     18  C   UNL     1      47.539   4.599  15.790  0.00  0.00    +0.000 C 
BRANCH  18  19
ATOM     19  N   UNL     1      47.890   5.878  16.355  0.00  0.00    +0.000 N 
ATOM     20  C   UNL     1      49.176   6.139  16.759  0.00  0.00    +0.000 C 
ATOM     21  O   UNL     1      50.077   5.315  16.619  0.00  0.00    +0.000 OA
ATOM     22  H   UNL     1      47.131   6.470  16.679  0.00  0.00    +0.000 HD
BRANCH  20  23
ATOM     23  C   UNL     1      49.444   7.475  17.309  0.00  0.00    +0.000 A 
ATOM     24  C   UNL     1      50.442   8.259  16.743  0.00  0.00    +0.000 A 
ATOM     25  S   UNL     1      50.589   9.802  17.454  0.00  0.00    +0.000 S 
ATOM     26  C   UNL     1      49.359   9.458  18.580  0.00  0.00    +0.000 A 
ATOM     27  N   UNL     1      48.997  10.374  19.518  0.00  0.00    +0.000 NA
ATOM     28  C   UNL     1      48.080   9.968  20.331  0.00  0.00    +0.000 A 
ATOM     29  N   UNL     1      47.490   8.731  20.289  0.00  0.00    +0.000 N 
ATOM     30  C   UNL     1      47.802   7.786  19.339  0.00  0.00    +0.000 A 
ATOM     31  O   UNL     1      47.225   6.705  19.302  0.00  0.00    +0.000 OA
ATOM     32  C   UNL     1      48.836   8.189  18.405  0.00  0.00    +0.000 A 
ATOM     33  H   UNL     1      46.773   8.478  20.952  0.00  0.00    +0.000 HD
ENDBRANCH  20  23
ENDBRANCH  18  19
ENDBRANCH   4  18
TORSDOF 6
ENDMDL
MODEL 8
REMARK VINA RESULT:    -6.881      4.912      9.901
REMARK INTER + INTRA:         -10.314
REMARK INTER:                  -9.208
REMARK INTRA:                  -1.106
REMARK UNBOUND:                -1.020
REMARK  Name = 
REMARK  6 active torsions:
REMARK  status: ('A' for Active; 'I' for Inactive)
REMARK    1  A    between atoms: C_2  and  C_25
REMARK    2  A    between atoms: N_3  and  C_4
REMARK    3  A    between atoms: C_4  and  C_5
REMARK    4  A    between atoms: C_8  and  C_9
REMARK    5  A    between atoms: C_9  and  N_10
REMARK    6  A    between atoms: C_11  and  C_13
REMARK                            x       y       z     vdW  Elec       q    Type
REMARK                         _______ _______ _______ _____ _____    ______ ____
ROOT
ATOM      1  C   UNL     1      51.611   2.907  17.774  0.00  0.00    +0.000 A 
ATOM      2  C   UNL     1      50.986   4.095  18.173  0.00  0.00    +0.000 A 
ATOM      3  C   UNL     1      49.618   4.295  17.947  0.00  0.00    +0.000 A 
ATOM      4  C   UNL     1      48.844   3.299  17.335  0.00  0.00    +0.000 A 
ATOM      5  C   UNL     1      49.469   2.109  16.942  0.00  0.00    +0.000 A 
ATOM      6  C   UNL     1      50.835   1.910  17.169  0.00  0.00    +0.000 A 
ENDROOT
BRANCH   1   7
ATOM      7  C   UNL     1      53.096   2.728  17.935  0.00  0.00    +0.000 C 
BRANCH   7  10
ATOM      8  O   UNL     1      54.666   0.762  16.778  0.00  0.00    +0.000 OA
ATOM      9  C   UNL     1      54.249   0.577  17.917  0.00  0.00    +0.000 C 
ATOM     10  N   UNL     1      53.472   1.503  18.590  0.00  0.00    +0.000 N 
ATOM     11  H   UNL     1      53.131   1.260  19.516  0.00  0.00    +0.000 HD
BRANCH   9  12
ATOM     12  C   UNL     1      54.559  -0.691  18.651  0.00  0.00    +0.000 A 
ATOM     13  C   UNL     1      54.639  -1.882  17.933  0.00  0.00    +0.000 A 
ATOM     14  C   UNL     1      54.921  -3.056  18.624  0.00  0.00    +0.000 A 
ATOM     15  C   UNL     1      55.113  -2.999  20.000  0.00  0.00    +0.000 A 
ATOM     16  C   UNL     1      55.017  -1.765  20.633  0.00  0.00    +0.000 A 
ATOM     17  N   UNL     1      54.745  -0.603  19.996  0.00  0.00    +0.000 NA
ENDBRANCH   9  12
ENDBRANCH   7  10
ENDBRANCH   1   7
BRANCH   4  18
ATOM     18  C   UNL     1      47.376   3.513  17.070  0.00  0.00    +0.000 C 
BRANCH  18  19
ATOM     19  N   UNL     1      47.154   4.524  16.067  0.00  0.00    +0.000 N 
ATOM     20  C   UNL     1      47.152   4.201  14.732  0.00  0.00    +0.000 C 
ATOM     21  O   UNL     1      47.297   3.043  14.347  0.00  0.00    +0.000 OA
ATOM     22  H   UNL     1      47.257   5.494  16.349  0.00  0.00    +0.000 HD
BRANCH  20  23
ATOM     23  C   UNL     1      46.902   5.294  13.782  0.00  0.00    +0.000 A 
ATOM     24  C   UNL     1      45.824   5.208  12.910  0.00  0.00    +0.000 A 
ATOM     25  S   UNL     1      45.636   6.580  11.914  0.00  0.00    +0.000 S 
ATOM     26  C   UNL     1      47.020   7.316  12.576  0.00  0.00    +0.000 A 
ATOM     27  N   UNL     1      47.441   8.532  12.136  0.00  0.00    +0.000 NA
ATOM     28  C   UNL     1      48.525   8.955  12.696  0.00  0.00    +0.000 A 
ATOM     29  N   UNL     1      49.224   8.272  13.659  0.00  0.00    +0.000 N 
ATOM     30  C   UNL     1      48.818   7.056  14.157  0.00  0.00    +0.000 A 
ATOM     31  O   UNL     1      49.443   6.492  15.048  0.00  0.00    +0.000 OA
ATOM     32  C   UNL     1      47.609   6.531  13.553  0.00  0.00    +0.000 A 
ATOM     33  H   UNL     1      50.063   8.662  14.062  0.00  0.00    +0.000 HD
ENDBRANCH  20  23
ENDBRANCH  18  19
ENDBRANCH   4  18
TORSDOF 6
ENDMDL
MODEL 9
REMARK VINA RESULT:    -6.849      3.182      8.673
REMARK INTER + INTRA:         -10.271
REMARK INTER:                  -9.353
REMARK INTRA:                  -0.917
REMARK UNBOUND:                -1.020
REMARK  Name = 
REMARK  6 active torsions:
REMARK  status: ('A' for Active; 'I' for Inactive)
REMARK    1  A    between atoms: C_2  and  C_25
REMARK    2  A    between atoms: N_3  and  C_4
REMARK    3  A    between atoms: C_4  and  C_5
REMARK    4  A    between atoms: C_8  and  C_9
REMARK    5  A    between atoms: C_9  and  N_10
REMARK    6  A    between atoms: C_11  and  C_13
REMARK                            x       y       z     vdW  Elec       q    Type
REMARK                         _______ _______ _______ _____ _____    ______ ____
ROOT
ATOM      1  C   UNL     1      49.919   7.930  15.184  0.00  0.00    +0.000 A 
ATOM      2  C   UNL     1      50.248   7.441  13.913  0.00  0.00    +0.000 A 
ATOM      3  C   UNL     1      49.315   7.480  12.869  0.00  0.00    +0.000 A 
ATOM      4  C   UNL     1      48.041   8.029  13.071  0.00  0.00    +0.000 A 
ATOM      5  C   UNL     1      47.716   8.524  14.341  0.00  0.00    +0.000 A 
ATOM      6  C   UNL     1      48.648   8.485  15.383  0.00  0.00    +0.000 A 
ENDROOT
BRANCH   1   7
ATOM      7  C   UNL     1      50.888   7.806  16.329  0.00  0.00    +0.000 C 
BRANCH   7  10
ATOM      8  O   UNL     1      49.464   5.796  17.594  0.00  0.00    +0.000 OA
ATOM      9  C   UNL     1      50.597   5.543  17.196  0.00  0.00    +0.000 C 
ATOM     10  N   UNL     1      51.384   6.471  16.537  0.00  0.00    +0.000 N 
ATOM     11  H   UNL     1      52.327   6.199  16.274  0.00  0.00    +0.000 HD
BRANCH   9  12
ATOM     12  C   UNL     1      51.203   4.191  17.413  0.00  0.00    +0.000 A 
ATOM     13  C   UNL     1      52.505   4.108  17.901  0.00  0.00    +0.000 A 
ATOM     14  C   UNL     1      53.062   2.848  18.095  0.00  0.00    +0.000 A 
ATOM     15  C   UNL     1      52.302   1.722  17.796  0.00  0.00    +0.000 A 
ATOM     16  C   UNL     1      51.010   1.901  17.316  0.00  0.00    +0.000 A 
ATOM     17  N   UNL     1      50.434   3.108  17.115  0.00  0.00    +0.000 NA
ENDBRANCH   9  12
ENDBRANCH   7  10
ENDBRANCH   1   7
BRANCH   4  18
ATOM     18  C   UNL     1      47.024   8.059  11.959  0.00  0.00    +0.000 C 
BRANCH  18  19
ATOM     19  N   UNL     1      46.474   6.750  11.702  0.00  0.00    +0.000 N 
ATOM     20  C   UNL     1      45.118   6.569  11.591  0.00  0.00    +0.000 C 
ATOM     21  O   UNL     1      44.331   7.510  11.666  0.00  0.00    +0.000 OA
ATOM     22  H   UNL     1      47.078   5.950  11.861  0.00  0.00    +0.000 HD
BRANCH  20  23
ATOM     23  C   UNL     1      44.649   5.204  11.312  0.00  0.00    +0.000 A 
ATOM     24  C   UNL     1      43.879   4.540  12.259  0.00  0.00    +0.000 A 
ATOM     25  S   UNL     1      43.366   2.992  11.763  0.00  0.00    +0.000 S 
ATOM     26  C   UNL     1      44.199   3.131  10.286  0.00  0.00    +0.000 A 
ATOM     27  N   UNL     1      44.188   2.116   9.381  0.00  0.00    +0.000 NA
ATOM     28  C   UNL     1      44.892   2.339   8.322  0.00  0.00    +0.000 A 
ATOM     29  N   UNL     1      45.602   3.488   8.085  0.00  0.00    +0.000 N 
ATOM     30  C   UNL     1      45.615   4.553   8.956  0.00  0.00    +0.000 A 
ATOM     31  O   UNL     1      46.227   5.583   8.694  0.00  0.00    +0.000 OA
ATOM     32  C   UNL     1      44.848   4.348  10.168  0.00  0.00    +0.000 A 
ATOM     33  H   UNL     1      46.129   3.603   7.231  0.00  0.00    +0.000 HD
ENDBRANCH  20  23
ENDBRANCH  18  19
ENDBRANCH   4  18
TORSDOF 6
ENDMDL
