MODEL 1
REMARK VINA RESULT:    -7.535      0.000      0.000
REMARK INTER + INTRA:         -11.960
REMARK INTER:                 -10.619
REMARK INTRA:                  -1.341
REMARK UNBOUND:                -1.341
REMARK  Name = 
REMARK  9 active torsions:
REMARK  status: ('A' for Active; 'I' for Inactive)
REMARK    1  A    between atoms: C_1  and  O_2
REMARK    2  A    between atoms: O_2  and  C_3
REMARK    3  A    between atoms: C_10  and  C_11
REMARK    4  A    between atoms: N_13  and  C_14
REMARK    5  A    between atoms: C_14  and  C_15
REMARK    6  A    between atoms: C_18  and  N_19
REMARK    7  A    between atoms: N_19  and  C_20
REMARK    8  A    between atoms: C_20  and  C_21
REMARK    9  A    between atoms: N_25  and  C_26
REMARK                            x       y       z     vdW  Elec       q    Type
REMARK                         _______ _______ _______ _____ _____    ______ ____
ROOT
ATOM      1  C   UNL     1      48.086   8.888  14.211  0.00  0.00    +0.000 C 
ENDROOT
BRANCH   1   2
ATOM      2  C   UNL     1      47.141   8.417  13.113  0.00  0.00    +0.000 A 
ATOM      3  C   UNL     1      47.551   7.414  12.225  0.00  0.00    +0.000 A 
ATOM      4  C   UNL     1      46.620   6.720  11.440  0.00  0.00    +0.000 A 
ATOM      5  C   UNL     1      45.278   7.103  11.371  0.00  0.00    +0.000 A 
ATOM      6  C   UNL     1      44.904   8.219  12.134  0.00  0.00    +0.000 A 
ATOM      7  C   UNL     1      45.813   8.857  13.004  0.00  0.00    +0.000 A 
BRANCH   5   8
ATOM      8  N   UNL     1      44.311   6.382  10.648  0.00  0.00    +0.000 N 
ATOM      9  H   UNL     1      44.390   6.553   9.649  0.00  0.00    +0.000 HD
BRANCH   8  10
ATOM     10  C   UNL     1      44.036   4.982  11.010  0.00  0.00    +0.000 C 
BRANCH  10  11
ATOM     11  C   UNL     1      44.169   4.013   9.817  0.00  0.00    +0.000 C 
ATOM     12  C   UNL     1      44.294   2.558  10.281  0.00  0.00    +0.000 C 
ATOM     13  C   UNL     1      44.562   1.634   9.097  0.00  0.00    +0.000 C 
ATOM     14  C   UNL     1      45.791   2.085   8.306  0.00  0.00    +0.000 C 
ATOM     15  N   UNL     1      45.632   3.474   7.843  0.00  0.00    +0.000 NA
ATOM     16  C   UNL     1      46.810   3.898   7.083  0.00  0.00    +0.000 C 
ATOM     17  C   UNL     1      45.405   4.394   8.969  0.00  0.00    +0.000 C 
ENDBRANCH  10  11
ENDBRANCH   8  10
ENDBRANCH   5   8
ENDBRANCH   1   2
BRANCH   1  20
ATOM     18  C   UNL     1      49.323   7.081  15.402  0.00  0.00    +0.000 C 
ATOM     19  O   UNL     1      50.219   7.041  14.550  0.00  0.00    +0.000 OA
ATOM     20  N   UNL     1      48.259   7.944  15.287  0.00  0.00    +0.000 N 
ATOM     21  H   UNL     1      47.595   8.000  16.040  0.00  0.00    +0.000 HD
BRANCH  18  29
ATOM     22  C   UNL     1      47.384   4.389  16.288  0.00  0.00    +0.000 A 
ATOM     23  N   UNL     1      46.850   3.257  16.786  0.00  0.00    +0.000 NA
ATOM     24  C   UNL     1      47.387   2.745  17.893  0.00  0.00    +0.000 A 
ATOM     25  N   UNL     1      48.400   3.245  18.591  0.00  0.00    +0.000 NA
ATOM     26  C   UNL     1      48.913   4.362  18.048  0.00  0.00    +0.000 A 
ATOM     27  S   UNL     1      50.218   5.152  18.802  0.00  0.00    +0.000 S 
ATOM     28  C   UNL     1      50.281   6.338  17.581  0.00  0.00    +0.000 A 
ATOM     29  C   UNL     1      49.332   6.162  16.573  0.00  0.00    +0.000 A 
ATOM     30  C   UNL     1      48.496   5.001  16.888  0.00  0.00    +0.000 A 
BRANCH  22  32
ATOM     31  C   UNL     1      46.955   4.180  14.000  0.00  0.00    +0.000 C 
ATOM     32  O   UNL     1      46.796   4.958  15.179  0.00  0.00    +0.000 OA
ENDBRANCH  22  32
ENDBRANCH  18  29
ENDBRANCH   1  20
TORSDOF 7
ENDMDL
MODEL 2
REMARK VINA RESULT:    -7.348      1.765      2.505
REMARK INTER + INTRA:         -11.696
REMARK INTER:                 -10.533
REMARK INTRA:                  -1.163
REMARK UNBOUND:                -1.341
REMARK  Name = 
REMARK  9 active torsions:
REMARK  status: ('A' for Active; 'I' for Inactive)
REMARK    1  A    between atoms: C_1  and  O_2
REMARK    2  A    between atoms: O_2  and  C_3
REMARK    3  A    between atoms: C_10  and  C_11
REMARK    4  A    between atoms: N_13  and  C_14
REMARK    5  A    between atoms: C_14  and  C_15
REMARK    6  A    between atoms: C_18  and  N_19
REMARK    7  A    between atoms: N_19  and  C_20
REMARK    8  A    between atoms: C_20  and  C_21
REMARK    9  A    between atoms: N_25  and  C_26
REMARK                            x       y       z     vdW  Elec       q    Type
REMARK                         _______ _______ _______ _____ _____    ______ ____
ROOT
ATOM      1  C   UNL     1      48.260   6.567  13.528  0.00  0.00    +0.000 C 
ENDROOT
BRANCH   1   2
ATOM      2  C   UNL     1      46.941   6.255  12.831  0.00  0.00    +0.000 A 
ATOM      3  C   UNL     1      46.685   6.784  11.559  0.00  0.00    +0.000 A 
ATOM      4  C   UNL     1      45.666   6.259  10.752  0.00  0.00    +0.000 A 
ATOM      5  C   UNL     1      44.753   5.317  11.230  0.00  0.00    +0.000 A 
ATOM      6  C   UNL     1      44.909   4.914  12.565  0.00  0.00    +0.000 A 
ATOM      7  C   UNL     1      45.993   5.361  13.350  0.00  0.00    +0.000 A 
BRANCH   5   8
ATOM      8  N   UNL     1      43.769   4.723  10.422  0.00  0.00    +0.000 N 
ATOM      9  H   UNL     1      43.427   5.371   9.716  0.00  0.00    +0.000 HD
BRANCH   8  10
ATOM     10  C   UNL     1      43.962   3.345   9.944  0.00  0.00    +0.000 C 
BRANCH  10  11
ATOM     11  C   UNL     1      45.273   3.158   9.151  0.00  0.00    +0.000 C 
ATOM     12  C   UNL     1      45.298   4.024   7.888  0.00  0.00    +0.000 C 
ATOM     13  C   UNL     1      46.537   3.722   7.050  0.00  0.00    +0.000 C 
ATOM     14  C   UNL     1      46.634   2.232   6.718  0.00  0.00    +0.000 C 
ATOM     15  N   UNL     1      46.641   1.423   7.949  0.00  0.00    +0.000 NA
ATOM     16  C   UNL     1      46.738  -0.002   7.624  0.00  0.00    +0.000 C 
ATOM     17  C   UNL     1      45.439   1.670   8.762  0.00  0.00    +0.000 C 
ENDBRANCH  10  11
ENDBRANCH   8  10
ENDBRANCH   5   8
ENDBRANCH   1   2
BRANCH   1  20
ATOM     18  C   UNL     1      49.002   7.346  15.777  0.00  0.00    +0.000 C 
ATOM     19  O   UNL     1      49.922   8.028  15.311  0.00  0.00    +0.000 OA
ATOM     20  N   UNL     1      48.172   6.607  14.967  0.00  0.00    +0.000 N 
ATOM     21  H   UNL     1      47.389   6.130  15.379  0.00  0.00    +0.000 HD
BRANCH  18  29
ATOM     22  C   UNL     1      48.702   4.703  17.949  0.00  0.00    +0.000 A 
ATOM     23  N   UNL     1      48.670   3.853  18.994  0.00  0.00    +0.000 NA
ATOM     24  C   UNL     1      48.590   4.371  20.220  0.00  0.00    +0.000 A 
ATOM     25  N   UNL     1      48.515   5.659  20.537  0.00  0.00    +0.000 NA
ATOM     26  C   UNL     1      48.570   6.469  19.466  0.00  0.00    +0.000 A 
ATOM     27  S   UNL     1      48.486   8.156  19.671  0.00  0.00    +0.000 S 
ATOM     28  C   UNL     1      48.645   8.426  17.997  0.00  0.00    +0.000 A 
ATOM     29  C   UNL     1      48.777   7.256  17.246  0.00  0.00    +0.000 A 
ATOM     30  C   UNL     1      48.688   6.095  18.134  0.00  0.00    +0.000 A 
BRANCH  22  32
ATOM     31  C   UNL     1      48.478   2.774  16.647  0.00  0.00    +0.000 C 
ATOM     32  O   UNL     1      48.724   4.174  16.677  0.00  0.00    +0.000 OA
ENDBRANCH  22  32
ENDBRANCH  18  29
ENDBRANCH   1  20
TORSDOF 7
ENDMDL
MODEL 3
REMARK VINA RESULT:    -7.258      2.107      2.662
REMARK INTER + INTRA:         -11.568
REMARK INTER:                 -10.514
REMARK INTRA:                  -1.054
REMARK UNBOUND:                -1.341
REMARK  Name = 
REMARK  9 active torsions:
REMARK  status: ('A' for Active; 'I' for Inactive)
REMARK    1  A    between atoms: C_1  and  O_2
REMARK    2  A    between atoms: O_2  and  C_3
REMARK    3  A    between atoms: C_10  and  C_11
REMARK    4  A    between atoms: N_13  and  C_14
REMARK    5  A    between atoms: C_14  and  C_15
REMARK    6  A    between atoms: C_18  and  N_19
REMARK    7  A    between atoms: N_19  and  C_20
REMARK    8  A    between atoms: C_20  and  C_21
REMARK    9  A    between atoms: N_25  and  C_26
REMARK                            x       y       z     vdW  Elec       q    Type
REMARK                         _______ _______ _______ _____ _____    ______ ____
ROOT
ATOM      1  C   UNL     1      48.546   7.152  15.104  0.00  0.00    +0.000 C 
ENDROOT
BRANCH   1   2
ATOM      2  C   UNL     1      47.854   6.474  13.929  0.00  0.00    +0.000 A 
ATOM      3  C   UNL     1      47.169   5.268  14.126  0.00  0.00    +0.000 A 
ATOM      4  C   UNL     1      46.249   4.797  13.179  0.00  0.00    +0.000 A 
ATOM      5  C   UNL     1      46.099   5.401  11.929  0.00  0.00    +0.000 A 
ATOM      6  C   UNL     1      46.913   6.513  11.667  0.00  0.00    +0.000 A 
ATOM      7  C   UNL     1      47.766   7.053  12.654  0.00  0.00    +0.000 A 
BRANCH   5   8
ATOM      8  N   UNL     1      45.135   4.993  10.990  0.00  0.00    +0.000 N 
ATOM      9  H   UNL     1      44.194   5.222  11.300  0.00  0.00    +0.000 HD
BRANCH   8  10
ATOM     10  C   UNL     1      45.381   5.223   9.558  0.00  0.00    +0.000 C 
BRANCH  10  11
ATOM     11  C   UNL     1      45.263   3.939   8.710  0.00  0.00    +0.000 C 
ATOM     12  C   UNL     1      45.211   2.684   9.587  0.00  0.00    +0.000 C 
ATOM     13  C   UNL     1      45.234   1.423   8.729  0.00  0.00    +0.000 C 
ATOM     14  C   UNL     1      46.442   1.409   7.791  0.00  0.00    +0.000 C 
ATOM     15  N   UNL     1      46.451   2.609   6.937  0.00  0.00    +0.000 NA
ATOM     16  C   UNL     1      47.608   2.588   6.039  0.00  0.00    +0.000 C 
ATOM     17  C   UNL     1      46.463   3.842   7.740  0.00  0.00    +0.000 C 
ENDBRANCH  10  11
ENDBRANCH   8  10
ENDBRANCH   5   8
ENDBRANCH   1   2
BRANCH   1  20
ATOM     18  C   UNL     1      49.496   6.022  17.113  0.00  0.00    +0.000 C 
ATOM     19  O   UNL     1      48.620   6.470  17.863  0.00  0.00    +0.000 OA
ATOM     20  N   UNL     1      49.522   6.326  15.772  0.00  0.00    +0.000 N 
ATOM     21  H   UNL     1      50.204   5.879  15.184  0.00  0.00    +0.000 HD
BRANCH  18  29
ATOM     22  C   UNL     1      50.121   2.648  16.964  0.00  0.00    +0.000 A 
ATOM     23  N   UNL     1      50.635   1.403  16.942  0.00  0.00    +0.000 NA
ATOM     24  C   UNL     1      51.833   1.210  17.494  0.00  0.00    +0.000 A 
ATOM     25  N   UNL     1      52.588   2.121  18.097  0.00  0.00    +0.000 NA
ATOM     26  C   UNL     1      52.045   3.351  18.078  0.00  0.00    +0.000 A 
ATOM     27  S   UNL     1      52.865   4.652  18.804  0.00  0.00    +0.000 S 
ATOM     28  C   UNL     1      51.642   5.750  18.354  0.00  0.00    +0.000 A 
ATOM     29  C   UNL     1      50.596   5.166  17.637  0.00  0.00    +0.000 A 
ATOM     30  C   UNL     1      50.831   3.726  17.517  0.00  0.00    +0.000 A 
BRANCH  22  32
ATOM     31  C   UNL     1      47.840   2.830  17.442  0.00  0.00    +0.000 C 
ATOM     32  O   UNL     1      48.858   2.844  16.450  0.00  0.00    +0.000 OA
ENDBRANCH  22  32
ENDBRANCH  18  29
ENDBRANCH   1  20
TORSDOF 7
ENDMDL
MODEL 4
REMARK VINA RESULT:    -6.917      2.533      3.718
REMARK INTER + INTRA:         -11.088
REMARK INTER:                  -9.844
REMARK INTRA:                  -1.245
REMARK UNBOUND:                -1.341
REMARK  Name = 
REMARK  9 active torsions:
REMARK  status: ('A' for Active; 'I' for Inactive)
REMARK    1  A    between atoms: C_1  and  O_2
REMARK    2  A    between atoms: O_2  and  C_3
REMARK    3  A    between atoms: C_10  and  C_11
REMARK    4  A    between atoms: N_13  and  C_14
REMARK    5  A    between atoms: C_14  and  C_15
REMARK    6  A    between atoms: C_18  and  N_19
REMARK    7  A    between atoms: N_19  and  C_20
REMARK    8  A    between atoms: C_20  and  C_21
REMARK    9  A    between atoms: N_25  and  C_26
REMARK                            x       y       z     vdW  Elec       q    Type
REMARK                         _______ _______ _______ _____ _____    ______ ____
ROOT
ATOM      1  C   UNL     1      47.774   5.023  14.616  0.00  0.00    +0.000 C 
ENDROOT
BRANCH   1   2
ATOM      2  C   UNL     1      46.737   5.119  13.504  0.00  0.00    +0.000 A 
ATOM      3  C   UNL     1      46.763   6.206  12.620  0.00  0.00    +0.000 A 
ATOM      4  C   UNL     1      46.068   6.163  11.403  0.00  0.00    +0.000 A 
ATOM      5  C   UNL     1      45.184   5.128  11.092  0.00  0.00    +0.000 A 
ATOM      6  C   UNL     1      45.029   4.123  12.058  0.00  0.00    +0.000 A 
ATOM      7  C   UNL     1      45.803   4.107  13.238  0.00  0.00    +0.000 A 
BRANCH   5   8
ATOM      8  N   UNL     1      44.530   5.025   9.852  0.00  0.00    +0.000 N 
ATOM      9  H   UNL     1      44.818   5.765   9.216  0.00  0.00    +0.000 HD
BRANCH   8  10
ATOM     10  C   UNL     1      44.381   3.703   9.222  0.00  0.00    +0.000 C 
BRANCH  10  11
ATOM     11  C   UNL     1      45.715   3.126   8.703  0.00  0.00    +0.000 C 
ATOM     12  C   UNL     1      46.174   3.826   7.420  0.00  0.00    +0.000 C 
ATOM     13  C   UNL     1      47.418   3.151   6.850  0.00  0.00    +0.000 C 
ATOM     14  C   UNL     1      47.187   1.656   6.629  0.00  0.00    +0.000 C 
ATOM     15  N   UNL     1      46.779   1.000   7.883  0.00  0.00    +0.000 NA
ATOM     16  C   UNL     1      46.563  -0.432   7.664  0.00  0.00    +0.000 C 
ATOM     17  C   UNL     1      45.560   1.610   8.439  0.00  0.00    +0.000 C 
ENDBRANCH  10  11
ENDBRANCH   8  10
ENDBRANCH   5   8
ENDBRANCH   1   2
BRANCH   1  20
ATOM     18  C   UNL     1      48.912   6.955  15.706  0.00  0.00    +0.000 C 
ATOM     19  O   UNL     1      49.994   6.714  15.157  0.00  0.00    +0.000 OA
ATOM     20  N   UNL     1      47.806   6.166  15.495  0.00  0.00    +0.000 N 
ATOM     21  H   UNL     1      46.927   6.442  15.898  0.00  0.00    +0.000 HD
BRANCH  18  29
ATOM     22  C   UNL     1      47.803   7.164  18.950  0.00  0.00    +0.000 A 
ATOM     23  N   UNL     1      47.530   7.478  20.231  0.00  0.00    +0.000 NA
ATOM     24  C   UNL     1      47.728   8.736  20.624  0.00  0.00    +0.000 A 
ATOM     25  N   UNL     1      48.156   9.746  19.875  0.00  0.00    +0.000 NA
ATOM     26  C   UNL     1      48.435   9.383  18.611  0.00  0.00    +0.000 A 
ATOM     27  S   UNL     1      48.994  10.542  17.498  0.00  0.00    +0.000 S 
ATOM     28  C   UNL     1      49.129   9.376  16.263  0.00  0.00    +0.000 A 
ATOM     29  C   UNL     1      48.768   8.087  16.662  0.00  0.00    +0.000 A 
ATOM     30  C   UNL     1      48.317   8.116  18.055  0.00  0.00    +0.000 A 
BRANCH  22  32
ATOM     31  C   UNL     1      48.559   4.953  18.878  0.00  0.00    +0.000 C 
ATOM     32  O   UNL     1      47.543   5.881  18.520  0.00  0.00    +0.000 OA
ENDBRANCH  22  32
ENDBRANCH  18  29
ENDBRANCH   1  20
TORSDOF 7
ENDMDL
MODEL 5
REMARK VINA RESULT:    -6.894      1.847      2.650
REMARK INTER + INTRA:         -11.056
REMARK INTER:                  -9.771
REMARK INTRA:                  -1.285
REMARK UNBOUND:                -1.341
REMARK  Name = 
REMARK  9 active torsions:
REMARK  status: ('A' for Active; 'I' for Inactive)
REMARK    1  A    between atoms: C_1  and  O_2
REMARK    2  A    between atoms: O_2  and  C_3
REMARK    3  A    between atoms: C_10  and  C_11
REMARK    4  A    between atoms: N_13  and  C_14
REMARK    5  A    between atoms: C_14  and  C_15
REMARK    6  A    between atoms: C_18  and  N_19
REMARK    7  A    between atoms: N_19  and  C_20
REMARK    8  A    between atoms: C_20  and  C_21
REMARK    9  A    between atoms: N_25  and  C_26
REMARK                            x       y       z     vdW  Elec       q    Type
REMARK                         _______ _______ _______ _____ _____    ______ ____
ROOT
ATOM      1  C   UNL     1      47.316   7.648  13.757  0.00  0.00    +0.000 C 
ENDROOT
BRANCH   1   2
ATOM      2  C   UNL     1      46.606   6.582  12.932  0.00  0.00    +0.000 A 
ATOM      3  C   UNL     1      46.798   5.227  13.232  0.00  0.00    +0.000 A 
ATOM      4  C   UNL     1      45.922   4.248  12.742  0.00  0.00    +0.000 A 
ATOM      5  C   UNL     1      44.933   4.544  11.802  0.00  0.00    +0.000 A 
ATOM      6  C   UNL     1      44.854   5.877  11.372  0.00  0.00    +0.000 A 
ATOM      7  C   UNL     1      45.664   6.885  11.937  0.00  0.00    +0.000 A 
BRANCH   5   8
ATOM      8  N   UNL     1      43.998   3.598  11.348  0.00  0.00    +0.000 N 
ATOM      9  H   UNL     1      43.105   3.699  11.825  0.00  0.00    +0.000 HD
BRANCH   8  10
ATOM     10  C   UNL     1      43.894   3.319   9.907  0.00  0.00    +0.000 C 
BRANCH  10  11
ATOM     11  C   UNL     1      45.263   3.086   9.236  0.00  0.00    +0.000 C 
ATOM     12  C   UNL     1      45.478   4.026   8.046  0.00  0.00    +0.000 C 
ATOM     13  C   UNL     1      46.774   3.687   7.315  0.00  0.00    +0.000 C 
ATOM     14  C   UNL     1      46.804   2.218   6.890  0.00  0.00    +0.000 C 
ATOM     15  N   UNL     1      46.628   1.334   8.054  0.00  0.00    +0.000 NA
ATOM     16  C   UNL     1      46.661  -0.070   7.640  0.00  0.00    +0.000 C 
ATOM     17  C   UNL     1      45.368   1.618   8.761  0.00  0.00    +0.000 C 
ENDBRANCH  10  11
ENDBRANCH   8  10
ENDBRANCH   5   8
ENDBRANCH   1   2
BRANCH   1  20
ATOM     18  C   UNL     1      49.084   7.861  15.502  0.00  0.00    +0.000 C 
ATOM     19  O   UNL     1      48.734   9.006  15.813  0.00  0.00    +0.000 OA
ATOM     20  N   UNL     1      48.447   7.158  14.507  0.00  0.00    +0.000 N 
ATOM     21  H   UNL     1      48.712   6.202  14.340  0.00  0.00    +0.000 HD
BRANCH  18  29
ATOM     22  C   UNL     1      49.456   4.903  17.206  0.00  0.00    +0.000 A 
ATOM     23  N   UNL     1      49.873   3.766  17.797  0.00  0.00    +0.000 NA
ATOM     24  C   UNL     1      51.172   3.641  18.071  0.00  0.00    +0.000 A 
ATOM     25  N   UNL     1      52.123   4.539  17.841  0.00  0.00    +0.000 NA
ATOM     26  C   UNL     1      51.666   5.648  17.234  0.00  0.00    +0.000 A 
ATOM     27  S   UNL     1      52.738   6.915  16.860  0.00  0.00    +0.000 S 
ATOM     28  C   UNL     1      51.493   7.834  16.146  0.00  0.00    +0.000 A 
ATOM     29  C   UNL     1      50.247   7.205  16.162  0.00  0.00    +0.000 A 
ATOM     30  C   UNL     1      50.359   5.919  16.852  0.00  0.00    +0.000 A 
BRANCH  22  32
ATOM     31  C   UNL     1      47.457   3.860  16.590  0.00  0.00    +0.000 C 
ATOM     32  O   UNL     1      48.108   5.064  16.976  0.00  0.00    +0.000 OA
ENDBRANCH  22  32
ENDBRANCH  18  29
ENDBRANCH   1  20
TORSDOF 7
ENDMDL
MODEL 6
REMARK VINA RESULT:    -6.874      2.045      4.031
REMARK INTER + INTRA:         -11.028
REMARK INTER:                 -10.038
REMARK INTRA:                  -0.991
REMARK UNBOUND:                -1.341
REMARK  Name = 
REMARK  9 active torsions:
REMARK  status: ('A' for Active; 'I' for Inactive)
REMARK    1  A    between atoms: C_1  and  O_2
REMARK    2  A    between atoms: O_2  and  C_3
REMARK    3  A    between atoms: C_10  and  C_11
REMARK    4  A    between atoms: N_13  and  C_14
REMARK    5  A    between atoms: C_14  and  C_15
REMARK    6  A    between atoms: C_18  and  N_19
REMARK    7  A    between atoms: N_19  and  C_20
REMARK    8  A    between atoms: C_20  and  C_21
REMARK    9  A    between atoms: N_25  and  C_26
REMARK                            x       y       z     vdW  Elec       q    Type
REMARK                         _______ _______ _______ _____ _____    ______ ____
ROOT
ATOM      1  C   UNL     1      47.146   3.993  14.791  0.00  0.00    +0.000 C 
ENDROOT
BRANCH   1   2
ATOM      2  C   UNL     1      46.337   4.351  13.551  0.00  0.00    +0.000 A 
ATOM      3  C   UNL     1      46.472   5.620  12.973  0.00  0.00    +0.000 A 
ATOM      4  C   UNL     1      46.025   5.870  11.668  0.00  0.00    +0.000 A 
ATOM      5  C   UNL     1      45.277   4.936  10.950  0.00  0.00    +0.000 A 
ATOM      6  C   UNL     1      44.996   3.724  11.599  0.00  0.00    +0.000 A 
ATOM      7  C   UNL     1      45.529   3.427  12.871  0.00  0.00    +0.000 A 
BRANCH   5   8
ATOM      8  N   UNL     1      44.878   5.134   9.617  0.00  0.00    +0.000 N 
ATOM      9  H   UNL     1      45.396   5.894   9.183  0.00  0.00    +0.000 HD
BRANCH   8  10
ATOM     10  C   UNL     1      44.664   3.966   8.747  0.00  0.00    +0.000 C 
BRANCH  10  11
ATOM     11  C   UNL     1      45.975   3.246   8.367  0.00  0.00    +0.000 C 
ATOM     12  C   UNL     1      46.563   3.792   7.062  0.00  0.00    +0.000 C 
ATOM     13  C   UNL     1      47.779   2.976   6.634  0.00  0.00    +0.000 C 
ATOM     14  C   UNL     1      47.441   1.488   6.525  0.00  0.00    +0.000 C 
ATOM     15  N   UNL     1      46.909   0.980   7.801  0.00  0.00    +0.000 NA
ATOM     16  C   UNL     1      46.591  -0.445   7.691  0.00  0.00    +0.000 C 
ATOM     17  C   UNL     1      45.713   1.729   8.222  0.00  0.00    +0.000 C 
ENDBRANCH  10  11
ENDBRANCH   8  10
ENDBRANCH   5   8
ENDBRANCH   1   2
BRANCH   1  20
ATOM     18  C   UNL     1      48.429   5.167  16.578  0.00  0.00    +0.000 C 
ATOM     19  O   UNL     1      49.227   4.231  16.712  0.00  0.00    +0.000 OA
ATOM     20  N   UNL     1      47.394   5.106  15.675  0.00  0.00    +0.000 N 
ATOM     21  H   UNL     1      46.816   5.918  15.542  0.00  0.00    +0.000 HD
BRANCH  18  29
ATOM     22  C   UNL     1      49.778   8.282  16.061  0.00  0.00    +0.000 A 
ATOM     23  N   UNL     1      50.122   9.585  16.056  0.00  0.00    +0.000 NA
ATOM     24  C   UNL     1      49.817  10.318  17.126  0.00  0.00    +0.000 A 
ATOM     25  N   UNL     1      49.215   9.898  18.233  0.00  0.00    +0.000 NA
ATOM     26  C   UNL     1      48.873   8.599  18.186  0.00  0.00    +0.000 A 
ATOM     27  S   UNL     1      48.094   7.877  19.515  0.00  0.00    +0.000 S 
ATOM     28  C   UNL     1      47.987   6.378  18.713  0.00  0.00    +0.000 A 
ATOM     29  C   UNL     1      48.524   6.389  17.424  0.00  0.00    +0.000 A 
ATOM     30  C   UNL     1      49.086   7.711  17.140  0.00  0.00    +0.000 A 
BRANCH  22  32
ATOM     31  C   UNL     1      49.371   7.759  13.819  0.00  0.00    +0.000 C 
ATOM     32  O   UNL     1      50.145   7.504  14.984  0.00  0.00    +0.000 OA
ENDBRANCH  22  32
ENDBRANCH  18  29
ENDBRANCH   1  20
TORSDOF 7
ENDMDL
MODEL 7
REMARK VINA RESULT:    -6.869      4.547      9.279
REMARK INTER + INTRA:         -11.021
REMARK INTER:                 -10.068
REMARK INTRA:                  -0.953
REMARK UNBOUND:                -1.341
REMARK  Name = 
REMARK  9 active torsions:
REMARK  status: ('A' for Active; 'I' for Inactive)
REMARK    1  A    between atoms: C_1  and  O_2
REMARK    2  A    between atoms: O_2  and  C_3
REMARK    3  A    between atoms: C_10  and  C_11
REMARK    4  A    between atoms: N_13  and  C_14
REMARK    5  A    between atoms: C_14  and  C_15
REMARK    6  A    between atoms: C_18  and  N_19
REMARK    7  A    between atoms: N_19  and  C_20
REMARK    8  A    between atoms: C_20  and  C_21
REMARK    9  A    between atoms: N_25  and  C_26
REMARK                            x       y       z     vdW  Elec       q    Type
REMARK                         _______ _______ _______ _____ _____    ______ ____
ROOT
ATOM      1  C   UNL     1      47.449   3.594  16.970  0.00  0.00    +0.000 C 
ENDROOT
BRANCH   1   2
ATOM      2  C   UNL     1      48.934   3.309  17.150  0.00  0.00    +0.000 A 
ATOM      3  C   UNL     1      49.761   4.272  17.743  0.00  0.00    +0.000 A 
ATOM      4  C   UNL     1      51.029   3.931  18.234  0.00  0.00    +0.000 A 
ATOM      5  C   UNL     1      51.599   2.677  18.003  0.00  0.00    +0.000 A 
ATOM      6  C   UNL     1      50.835   1.767  17.258  0.00  0.00    +0.000 A 
ATOM      7  C   UNL     1      49.518   2.069  16.850  0.00  0.00    +0.000 A 
BRANCH   5   8
ATOM      8  N   UNL     1      52.837   2.286  18.544  0.00  0.00    +0.000 N 
ATOM      9  H   UNL     1      52.761   1.407  19.049  0.00  0.00    +0.000 HD
BRANCH   8  10
ATOM     10  C   UNL     1      54.054   2.419  17.728  0.00  0.00    +0.000 C 
BRANCH  10  11
ATOM     11  C   UNL     1      54.864   1.109  17.631  0.00  0.00    +0.000 C 
ATOM     12  C   UNL     1      55.095   0.693  16.175  0.00  0.00    +0.000 C 
ATOM     13  C   UNL     1      55.774  -0.672  16.104  0.00  0.00    +0.000 C 
ATOM     14  C   UNL     1      54.984  -1.728  16.877  0.00  0.00    +0.000 C 
ATOM     15  N   UNL     1      54.804  -1.320  18.281  0.00  0.00    +0.000 NA
ATOM     16  C   UNL     1      54.049  -2.337  19.016  0.00  0.00    +0.000 C 
ATOM     17  C   UNL     1      54.120  -0.020  18.380  0.00  0.00    +0.000 C 
ENDBRANCH  10  11
ENDBRANCH   8  10
ENDBRANCH   5   8
ENDBRANCH   1   2
BRANCH   1  20
ATOM     18  C   UNL     1      47.048   4.221  14.591  0.00  0.00    +0.000 C 
ATOM     19  O   UNL     1      47.233   3.066  14.186  0.00  0.00    +0.000 OA
ATOM     20  N   UNL     1      47.151   4.541  15.924  0.00  0.00    +0.000 N 
ATOM     21  H   UNL     1      46.917   5.473  16.219  0.00  0.00    +0.000 HD
BRANCH  18  29
ATOM     22  C   UNL     1      44.300   5.009  12.688  0.00  0.00    +0.000 A 
ATOM     23  N   UNL     1      43.325   5.581  11.955  0.00  0.00    +0.000 NA
ATOM     24  C   UNL     1      43.581   6.757  11.381  0.00  0.00    +0.000 A 
ATOM     25  N   UNL     1      44.720   7.437  11.432  0.00  0.00    +0.000 NA
ATOM     26  C   UNL     1      45.657   6.839  12.189  0.00  0.00    +0.000 A 
ATOM     27  S   UNL     1      47.188   7.559  12.372  0.00  0.00    +0.000 S 
ATOM     28  C   UNL     1      47.715   6.311  13.405  0.00  0.00    +0.000 A 
ATOM     29  C   UNL     1      46.750   5.331  13.644  0.00  0.00    +0.000 A 
ATOM     30  C   UNL     1      45.541   5.639  12.878  0.00  0.00    +0.000 A 
BRANCH  22  32
ATOM     31  C   UNL     1      43.620   2.810  12.280  0.00  0.00    +0.000 C 
ATOM     32  O   UNL     1      44.065   3.766  13.234  0.00  0.00    +0.000 OA
ENDBRANCH  22  32
ENDBRANCH  18  29
ENDBRANCH   1  20
TORSDOF 7
ENDMDL
MODEL 8
REMARK VINA RESULT:    -6.590      3.109      8.400
REMARK INTER + INTRA:         -10.628
REMARK INTER:                  -9.386
REMARK INTRA:                  -1.242
REMARK UNBOUND:                -1.341
REMARK  Name = 
REMARK  9 active torsions:
REMARK  status: ('A' for Active; 'I' for Inactive)
REMARK    1  A    between atoms: C_1  and  O_2
REMARK    2  A    between atoms: O_2  and  C_3
REMARK    3  A    between atoms: C_10  and  C_11
REMARK    4  A    between atoms: N_13  and  C_14
REMARK    5  A    between atoms: C_14  and  C_15
REMARK    6  A    between atoms: C_18  and  N_19
REMARK    7  A    between atoms: N_19  and  C_20
REMARK    8  A    between atoms: C_20  and  C_21
REMARK    9  A    between atoms: N_25  and  C_26
REMARK                            x       y       z     vdW  Elec       q    Type
REMARK                         _______ _______ _______ _____ _____    ______ ____
ROOT
ATOM      1  C   UNL     1      47.120   3.449  17.027  0.00  0.00    +0.000 C 
ENDROOT
BRANCH   1   2
ATOM      2  C   UNL     1      48.545   3.448  17.565  0.00  0.00    +0.000 A 
ATOM      3  C   UNL     1      49.437   2.442  17.170  0.00  0.00    +0.000 A 
ATOM      4  C   UNL     1      50.819   2.589  17.356  0.00  0.00    +0.000 A 
ATOM      5  C   UNL     1      51.358   3.646  18.092  0.00  0.00    +0.000 A 
ATOM      6  C   UNL     1      50.445   4.563  18.634  0.00  0.00    +0.000 A 
ATOM      7  C   UNL     1      49.063   4.478  18.363  0.00  0.00    +0.000 A 
BRANCH   5   8
ATOM      8  N   UNL     1      52.741   3.855  18.234  0.00  0.00    +0.000 N 
ATOM      9  H   UNL     1      53.277   3.141  17.745  0.00  0.00    +0.000 HD
BRANCH   8  10
ATOM     10  C   UNL     1      53.281   5.218  18.109  0.00  0.00    +0.000 C 
BRANCH  10  11
ATOM     11  C   UNL     1      53.286   5.736  16.655  0.00  0.00    +0.000 C 
ATOM     12  C   UNL     1      54.708   6.025  16.163  0.00  0.00    +0.000 C 
ATOM     13  C   UNL     1      54.681   6.663  14.777  0.00  0.00    +0.000 C 
ATOM     14  C   UNL     1      53.808   7.919  14.760  0.00  0.00    +0.000 C 
ATOM     15  N   UNL     1      52.439   7.608  15.205  0.00  0.00    +0.000 NA
ATOM     16  C   UNL     1      51.608   8.814  15.183  0.00  0.00    +0.000 C 
ATOM     17  C   UNL     1      52.432   7.021  16.555  0.00  0.00    +0.000 C 
ENDBRANCH  10  11
ENDBRANCH   8  10
ENDBRANCH   5   8
ENDBRANCH   1   2
BRANCH   1  20
ATOM     18  C   UNL     1      47.028   4.147  14.635  0.00  0.00    +0.000 C 
ATOM     19  O   UNL     1      47.401   3.041  14.228  0.00  0.00    +0.000 OA
ATOM     20  N   UNL     1      46.885   4.410  15.977  0.00  0.00    +0.000 N 
ATOM     21  H   UNL     1      46.505   5.296  16.262  0.00  0.00    +0.000 HD
BRANCH  18  29
ATOM     22  C   UNL     1      44.305   5.005  12.727  0.00  0.00    +0.000 A 
ATOM     23  N   UNL     1      43.346   5.602  11.993  0.00  0.00    +0.000 NA
ATOM     24  C   UNL     1      43.631   6.772  11.421  0.00  0.00    +0.000 A 
ATOM     25  N   UNL     1      44.787   7.424  11.476  0.00  0.00    +0.000 NA
ATOM     26  C   UNL     1      45.707   6.803  12.234  0.00  0.00    +0.000 A 
ATOM     27  S   UNL     1      47.254   7.485  12.422  0.00  0.00    +0.000 S 
ATOM     28  C   UNL     1      47.748   6.222  13.454  0.00  0.00    +0.000 A 
ATOM     29  C   UNL     1      46.759   5.266  13.690  0.00  0.00    +0.000 A 
ATOM     30  C   UNL     1      45.560   5.605  12.921  0.00  0.00    +0.000 A 
BRANCH  22  32
ATOM     31  C   UNL     1      43.643   2.804  12.302  0.00  0.00    +0.000 C 
ATOM     32  O   UNL     1      44.038   3.767  13.270  0.00  0.00    +0.000 OA
ENDBRANCH  22  32
ENDBRANCH  18  29
ENDBRANCH   1  20
TORSDOF 7
ENDMDL
MODEL 9
REMARK VINA RESULT:    -6.517      3.653      9.310
REMARK INTER + INTRA:         -10.524
REMARK INTER:                  -9.448
REMARK INTRA:                  -1.076
REMARK UNBOUND:                -1.341
REMARK  Name = 
REMARK  9 active torsions:
REMARK  status: ('A' for Active; 'I' for Inactive)
REMARK    1  A    between atoms: C_1  and  O_2
REMARK    2  A    between atoms: O_2  and  C_3
REMARK    3  A    between atoms: C_10  and  C_11
REMARK    4  A    between atoms: N_13  and  C_14
REMARK    5  A    between atoms: C_14  and  C_15
REMARK    6  A    between atoms: C_18  and  N_19
REMARK    7  A    between atoms: N_19  and  C_20
REMARK    8  A    between atoms: C_20  and  C_21
REMARK    9  A    between atoms: N_25  and  C_26
REMARK                            x       y       z     vdW  Elec       q    Type
REMARK                         _______ _______ _______ _____ _____    ______ ____
ROOT
ATOM      1  C   UNL     1      47.384   3.686  16.944  0.00  0.00    +0.000 C 
ENDROOT
BRANCH   1   2
ATOM      2  C   UNL     1      48.862   3.357  17.109  0.00  0.00    +0.000 A 
ATOM      3  C   UNL     1      49.732   4.313  17.650  0.00  0.00    +0.000 A 
ATOM      4  C   UNL     1      50.996   3.947  18.132  0.00  0.00    +0.000 A 
ATOM      5  C   UNL     1      51.519   2.666  17.940  0.00  0.00    +0.000 A 
ATOM      6  C   UNL     1      50.711   1.756  17.244  0.00  0.00    +0.000 A 
ATOM      7  C   UNL     1      49.397   2.087  16.848  0.00  0.00    +0.000 A 
BRANCH   5   8
ATOM      8  N   UNL     1      52.752   2.254  18.474  0.00  0.00    +0.000 N 
ATOM      9  H   UNL     1      52.668   1.365  18.961  0.00  0.00    +0.000 HD
BRANCH   8  10
ATOM     10  C   UNL     1      53.972   2.394  17.663  0.00  0.00    +0.000 C 
BRANCH  10  11
ATOM     11  C   UNL     1      54.840   3.600  18.079  0.00  0.00    +0.000 C 
ATOM     12  C   UNL     1      54.583   4.008  19.534  0.00  0.00    +0.000 C 
ATOM     13  C   UNL     1      55.346   5.282  19.881  0.00  0.00    +0.000 C 
ATOM     14  C   UNL     1      55.012   6.414  18.908  0.00  0.00    +0.000 C 
ATOM     15  N   UNL     1      55.298   6.010  17.521  0.00  0.00    +0.000 NA
ATOM     16  C   UNL     1      54.979   7.099  16.595  0.00  0.00    +0.000 C 
ATOM     17  C   UNL     1      54.549   4.799  17.147  0.00  0.00    +0.000 C 
ENDBRANCH  10  11
ENDBRANCH   8  10
ENDBRANCH   5   8
ENDBRANCH   1   2
BRANCH   1  20
ATOM     18  C   UNL     1      47.038   4.244  14.539  0.00  0.00    +0.000 C 
ATOM     19  O   UNL     1      47.253   3.083  14.169  0.00  0.00    +0.000 OA
ATOM     20  N   UNL     1      47.099   4.600  15.865  0.00  0.00    +0.000 N 
ATOM     21  H   UNL     1      46.840   5.535  16.130  0.00  0.00    +0.000 HD
BRANCH  18  29
ATOM     22  C   UNL     1      44.248   5.068  12.713  0.00  0.00    +0.000 A 
ATOM     23  N   UNL     1      43.268   5.650  11.995  0.00  0.00    +0.000 NA
ATOM     24  C   UNL     1      43.547   6.787  11.359  0.00  0.00    +0.000 A 
ATOM     25  N   UNL     1      44.716   7.418  11.333  0.00  0.00    +0.000 NA
ATOM     26  C   UNL     1      45.658   6.813  12.078  0.00  0.00    +0.000 A 
ATOM     27  S   UNL     1      47.223   7.473  12.167  0.00  0.00    +0.000 S 
ATOM     28  C   UNL     1      47.741   6.249  13.233  0.00  0.00    +0.000 A 
ATOM     29  C   UNL     1      46.747   5.324  13.556  0.00  0.00    +0.000 A 
ATOM     30  C   UNL     1      45.520   5.651  12.825  0.00  0.00    +0.000 A 
BRANCH  22  32
ATOM     31  C   UNL     1      43.622   2.836  12.408  0.00  0.00    +0.000 C 
ATOM     32  O   UNL     1      43.984   3.861  13.324  0.00  0.00    +0.000 OA
ENDBRANCH  22  32
ENDBRANCH  18  29
ENDBRANCH   1  20
TORSDOF 7
ENDMDL
