MODEL 1
REMARK VINA RESULT:    -7.853      0.000      0.000
REMARK INTER + INTRA:         -10.595
REMARK INTER:                 -10.148
REMARK INTRA:                  -0.447
REMARK UNBOUND:                -0.447
REMARK  Name = 
REMARK  7 active torsions:
REMARK  status: ('A' for Active; 'I' for Inactive)
REMARK    1  A    between atoms: C_1  and  C_2
REMARK    2  A    between atoms: C_7  and  C_8
REMARK    3  A    between atoms: N_13  and  C_14
REMARK    4  A    between atoms: C_14  and  C_15
REMARK    5  A    between atoms: C_18  and  C_19
REMARK    6  A    between atoms: C_19  and  N_20
REMARK    7  A    between atoms: C_22  and  O_23
REMARK                            x       y       z     vdW  Elec       q    Type
REMARK                         _______ _______ _______ _____ _____    ______ ____
ROOT
ATOM      1  C   UNL     1      43.495   2.782  12.437  0.00  0.00    +0.000 C 
ATOM      2  C   UNL     1      44.579   3.793  12.500  0.00  0.00    +0.000 A 
ATOM      3  N   UNL     1      45.298   4.015  13.582  0.00  0.00    +0.000 NA
ATOM      4  C   UNL     1      46.179   5.000  13.261  0.00  0.00    +0.000 A 
ATOM      5  C   UNL     1      47.158   5.599  14.064  0.00  0.00    +0.000 A 
ATOM      6  C   UNL     1      47.955   6.607  13.508  0.00  0.00    +0.000 A 
ATOM      7  C   UNL     1      47.788   7.019  12.177  0.00  0.00    +0.000 A 
ATOM      8  C   UNL     1      46.796   6.430  11.370  0.00  0.00    +0.000 A 
ATOM      9  C   UNL     1      46.013   5.416  11.948  0.00  0.00    +0.000 A 
ATOM     10  N   UNL     1      44.973   4.633  11.472  0.00  0.00    +0.000 N 
ENDROOT
BRANCH   7  11
ATOM     11  C   UNL     1      48.695   8.095  11.684  0.00  0.00    +0.000 C 
ATOM     12  N   UNL     1      49.968   7.762  11.302  0.00  0.00    +0.000 N 
ATOM     13  O   UNL     1      48.339   9.264  11.623  0.00  0.00    +0.000 OA
ATOM     14  H   UNL     1      50.355   6.839  11.316  0.00  0.00    +0.000 HD
ATOM     15  H   UNL     1      50.553   8.519  10.978  0.00  0.00    +0.000 HD
ENDBRANCH   7  11
BRANCH  10  16
ATOM     16  C   UNL     1      44.362   4.765  10.149  0.00  0.00    +0.000 C 
BRANCH  16  17
ATOM     17  C   UNL     1      45.205   4.129   9.081  0.00  0.00    +0.000 A 
ATOM     18  N   UNL     1      45.995   4.940   8.329  0.00  0.00    +0.000 NA
ATOM     19  C   UNL     1      46.657   4.345   7.303  0.00  0.00    +0.000 A 
ATOM     20  C   UNL     1      46.568   2.984   7.030  0.00  0.00    +0.000 A 
ATOM     21  N   UNL     1      45.847   2.155   7.830  0.00  0.00    +0.000 NA
ATOM     22  C   UNL     1      45.184   2.760   8.835  0.00  0.00    +0.000 A 
BRANCH  22  23
ATOM     23  O   UNL     1      44.498   1.880   9.606  0.00  0.00    +0.000 OA
ATOM     24  H   UNL     1      44.015   1.398   8.908  0.00  0.00    +0.000 HD
ENDBRANCH  22  23
BRANCH  20  25
ATOM     25  C   UNL     1      47.250   2.397   5.815  0.00  0.00    +0.000 C 
BRANCH  25  26
ATOM     26  N   UNL     1      48.516   1.733   6.138  0.00  0.00    +0.000 NA
ATOM     27  H   UNL     1      48.556   0.843   5.637  0.00  0.00    +0.000 HD
ATOM     28  H   UNL     1      48.523   1.491   7.129  0.00  0.00    +0.000 HD
ENDBRANCH  25  26
ENDBRANCH  20  25
ENDBRANCH  16  17
ENDBRANCH  10  16
TORSDOF 6
ENDMDL
MODEL 2
REMARK VINA RESULT:    -7.663      2.713      3.152
REMARK INTER + INTRA:         -10.350
REMARK INTER:                 -10.032
REMARK INTRA:                  -0.318
REMARK UNBOUND:                -0.447
REMARK  Name = 
REMARK  7 active torsions:
REMARK  status: ('A' for Active; 'I' for Inactive)
REMARK    1  A    between atoms: C_1  and  C_2
REMARK    2  A    between atoms: C_7  and  C_8
REMARK    3  A    between atoms: N_13  and  C_14
REMARK    4  A    between atoms: C_14  and  C_15
REMARK    5  A    between atoms: C_18  and  C_19
REMARK    6  A    between atoms: C_19  and  N_20
REMARK    7  A    between atoms: C_22  and  O_23
REMARK                            x       y       z     vdW  Elec       q    Type
REMARK                         _______ _______ _______ _____ _____    ______ ____
ROOT
ATOM      1  C   UNL     1      45.781   3.289  12.773  0.00  0.00    +0.000 C 
ATOM      2  C   UNL     1      45.559   4.737  12.536  0.00  0.00    +0.000 A 
ATOM      3  N   UNL     1      46.151   5.683  13.236  0.00  0.00    +0.000 NA
ATOM      4  C   UNL     1      45.704   6.866  12.736  0.00  0.00    +0.000 A 
ATOM      5  C   UNL     1      46.028   8.168  13.139  0.00  0.00    +0.000 A 
ATOM      6  C   UNL     1      45.434   9.243  12.468  0.00  0.00    +0.000 A 
ATOM      7  C   UNL     1      44.532   9.037  11.413  0.00  0.00    +0.000 A 
ATOM      8  C   UNL     1      44.193   7.730  11.013  0.00  0.00    +0.000 A 
ATOM      9  C   UNL     1      44.807   6.667  11.697  0.00  0.00    +0.000 A 
ATOM     10  N   UNL     1      44.718   5.288  11.584  0.00  0.00    +0.000 N 
ENDROOT
BRANCH   7  11
ATOM     11  C   UNL     1      43.964  10.252  10.762  0.00  0.00    +0.000 C 
ATOM     12  N   UNL     1      43.456  10.146   9.494  0.00  0.00    +0.000 N 
ATOM     13  O   UNL     1      43.951  11.340  11.321  0.00  0.00    +0.000 OA
ATOM     14  H   UNL     1      43.421   9.305   8.951  0.00  0.00    +0.000 HD
ATOM     15  H   UNL     1      43.084  10.991   9.085  0.00  0.00    +0.000 HD
ENDBRANCH   7  11
BRANCH  10  16
ATOM     16  C   UNL     1      43.816   4.579  10.677  0.00  0.00    +0.000 C 
BRANCH  16  17
ATOM     17  C   UNL     1      44.568   3.707   9.712  0.00  0.00    +0.000 A 
ATOM     18  N   UNL     1      44.346   2.367   9.761  0.00  0.00    +0.000 NA
ATOM     19  C   UNL     1      45.123   1.603   8.951  0.00  0.00    +0.000 A 
ATOM     20  C   UNL     1      46.080   2.136   8.094  0.00  0.00    +0.000 A 
ATOM     21  N   UNL     1      46.247   3.480   7.979  0.00  0.00    +0.000 NA
ATOM     22  C   UNL     1      45.479   4.225   8.799  0.00  0.00    +0.000 A 
BRANCH  22  23
ATOM     23  O   UNL     1      45.678   5.556   8.625  0.00  0.00    +0.000 OA
ATOM     24  H   UNL     1      44.779   5.817   8.347  0.00  0.00    +0.000 HD
ENDBRANCH  22  23
BRANCH  20  25
ATOM     25  C   UNL     1      46.982   1.228   7.289  0.00  0.00    +0.000 C 
BRANCH  25  26
ATOM     26  N   UNL     1      46.907  -0.172   7.713  0.00  0.00    +0.000 NA
ATOM     27  H   UNL     1      46.485  -0.720   6.961  0.00  0.00    +0.000 HD
ATOM     28  H   UNL     1      46.265  -0.248   8.502  0.00  0.00    +0.000 HD
ENDBRANCH  25  26
ENDBRANCH  20  25
ENDBRANCH  16  17
ENDBRANCH  10  16
TORSDOF 6
ENDMDL
MODEL 3
REMARK VINA RESULT:    -7.511      2.448      2.766
REMARK INTER + INTRA:         -10.154
REMARK INTER:                  -9.557
REMARK INTRA:                  -0.596
REMARK UNBOUND:                -0.447
REMARK  Name = 
REMARK  7 active torsions:
REMARK  status: ('A' for Active; 'I' for Inactive)
REMARK    1  A    between atoms: C_1  and  C_2
REMARK    2  A    between atoms: C_7  and  C_8
REMARK    3  A    between atoms: N_13  and  C_14
REMARK    4  A    between atoms: C_14  and  C_15
REMARK    5  A    between atoms: C_18  and  C_19
REMARK    6  A    between atoms: C_19  and  N_20
REMARK    7  A    between atoms: C_22  and  O_23
REMARK                            x       y       z     vdW  Elec       q    Type
REMARK                         _______ _______ _______ _____ _____    ______ ____
ROOT
ATOM      1  C   UNL     1      46.021   3.357  12.697  0.00  0.00    +0.000 C 
ATOM      2  C   UNL     1      45.712   4.791  12.471  0.00  0.00    +0.000 A 
ATOM      3  N   UNL     1      46.172   5.759  13.237  0.00  0.00    +0.000 NA
ATOM      4  C   UNL     1      45.680   6.919  12.725  0.00  0.00    +0.000 A 
ATOM      5  C   UNL     1      45.872   8.231  13.180  0.00  0.00    +0.000 A 
ATOM      6  C   UNL     1      45.256   9.277  12.483  0.00  0.00    +0.000 A 
ATOM      7  C   UNL     1      44.461   9.033  11.353  0.00  0.00    +0.000 A 
ATOM      8  C   UNL     1      44.254   7.715  10.900  0.00  0.00    +0.000 A 
ATOM      9  C   UNL     1      44.887   6.682  11.612  0.00  0.00    +0.000 A 
ATOM     10  N   UNL     1      44.912   5.304  11.463  0.00  0.00    +0.000 N 
ENDROOT
BRANCH   7  11
ATOM     11  C   UNL     1      43.858  10.220  10.681  0.00  0.00    +0.000 C 
ATOM     12  N   UNL     1      43.755  10.224   9.314  0.00  0.00    +0.000 N 
ATOM     13  O   UNL     1      43.466  11.192  11.313  0.00  0.00    +0.000 OA
ATOM     14  H   UNL     1      44.046   9.482   8.709  0.00  0.00    +0.000 HD
ATOM     15  H   UNL     1      43.346  11.048   8.896  0.00  0.00    +0.000 HD
ENDBRANCH   7  11
BRANCH  10  16
ATOM     16  C   UNL     1      44.142   4.555  10.471  0.00  0.00    +0.000 C 
BRANCH  16  17
ATOM     17  C   UNL     1      45.022   3.994   9.391  0.00  0.00    +0.000 A 
ATOM     18  N   UNL     1      45.750   4.868   8.647  0.00  0.00    +0.000 NA
ATOM     19  C   UNL     1      46.448   4.334   7.611  0.00  0.00    +0.000 A 
ATOM     20  C   UNL     1      46.453   2.974   7.320  0.00  0.00    +0.000 A 
ATOM     21  N   UNL     1      45.795   2.085   8.111  0.00  0.00    +0.000 NA
ATOM     22  C   UNL     1      45.096   2.630   9.127  0.00  0.00    +0.000 A 
BRANCH  22  23
ATOM     23  O   UNL     1      44.477   1.694   9.889  0.00  0.00    +0.000 OA
ATOM     24  H   UNL     1      43.997   1.211   9.190  0.00  0.00    +0.000 HD
ENDBRANCH  22  23
BRANCH  20  25
ATOM     25  C   UNL     1      47.169   2.452   6.095  0.00  0.00    +0.000 C 
BRANCH  25  26
ATOM     26  N   UNL     1      48.432   1.781   6.415  0.00  0.00    +0.000 NA
ATOM     27  H   UNL     1      49.080   1.913   5.636  0.00  0.00    +0.000 HD
ATOM     28  H   UNL     1      48.270   0.775   6.471  0.00  0.00    +0.000 HD
ENDBRANCH  25  26
ENDBRANCH  20  25
ENDBRANCH  16  17
ENDBRANCH  10  16
TORSDOF 6
ENDMDL
MODEL 4
REMARK VINA RESULT:    -7.351      2.146      6.121
REMARK INTER + INTRA:          -9.946
REMARK INTER:                  -9.476
REMARK INTRA:                  -0.470
REMARK UNBOUND:                -0.447
REMARK  Name = 
REMARK  7 active torsions:
REMARK  status: ('A' for Active; 'I' for Inactive)
REMARK    1  A    between atoms: C_1  and  C_2
REMARK    2  A    between atoms: C_7  and  C_8
REMARK    3  A    between atoms: N_13  and  C_14
REMARK    4  A    between atoms: C_14  and  C_15
REMARK    5  A    between atoms: C_18  and  C_19
REMARK    6  A    between atoms: C_19  and  N_20
REMARK    7  A    between atoms: C_22  and  O_23
REMARK                            x       y       z     vdW  Elec       q    Type
REMARK                         _______ _______ _______ _____ _____    ______ ____
ROOT
ATOM      1  C   UNL     1      42.654   5.150  12.763  0.00  0.00    +0.000 C 
ATOM      2  C   UNL     1      43.414   4.574  11.625  0.00  0.00    +0.000 A 
ATOM      3  N   UNL     1      43.381   3.296  11.307  0.00  0.00    +0.000 NA
ATOM      4  C   UNL     1      44.194   3.149  10.226  0.00  0.00    +0.000 A 
ATOM      5  C   UNL     1      44.502   1.985   9.511  0.00  0.00    +0.000 A 
ATOM      6  C   UNL     1      45.376   2.081   8.422  0.00  0.00    +0.000 A 
ATOM      7  C   UNL     1      45.938   3.309   8.043  0.00  0.00    +0.000 A 
ATOM      8  C   UNL     1      45.642   4.480   8.767  0.00  0.00    +0.000 A 
ATOM      9  C   UNL     1      44.758   4.360   9.852  0.00  0.00    +0.000 A 
ATOM     10  N   UNL     1      44.250   5.269  10.768  0.00  0.00    +0.000 N 
ENDROOT
BRANCH   7  11
ATOM     11  C   UNL     1      46.850   3.300   6.863  0.00  0.00    +0.000 C 
ATOM     12  N   UNL     1      47.903   2.423   6.848  0.00  0.00    +0.000 N 
ATOM     13  O   UNL     1      46.693   4.061   5.917  0.00  0.00    +0.000 OA
ATOM     14  H   UNL     1      48.119   1.763   7.570  0.00  0.00    +0.000 HD
ATOM     15  H   UNL     1      48.501   2.450   6.034  0.00  0.00    +0.000 HD
ENDBRANCH   7  11
BRANCH  10  16
ATOM     16  C   UNL     1      44.628   6.680  10.845  0.00  0.00    +0.000 C 
BRANCH  16  17
ATOM     17  C   UNL     1      45.746   6.905  11.824  0.00  0.00    +0.000 A 
ATOM     18  N   UNL     1      46.747   5.987  11.867  0.00  0.00    +0.000 NA
ATOM     19  C   UNL     1      47.680   6.165  12.837  0.00  0.00    +0.000 A 
ATOM     20  C   UNL     1      47.649   7.228  13.733  0.00  0.00    +0.000 A 
ATOM     21  N   UNL     1      46.698   8.195  13.641  0.00  0.00    +0.000 NA
ATOM     22  C   UNL     1      45.771   7.998  12.683  0.00  0.00    +0.000 A 
BRANCH  22  23
ATOM     23  O   UNL     1      44.862   9.003  12.629  0.00  0.00    +0.000 OA
ATOM     24  H   UNL     1      44.324   8.774  13.412  0.00  0.00    +0.000 HD
ENDBRANCH  22  23
BRANCH  20  25
ATOM     25  C   UNL     1      48.660   7.318  14.854  0.00  0.00    +0.000 C 
BRANCH  25  26
ATOM     26  N   UNL     1      50.029   7.044  14.410  0.00  0.00    +0.000 NA
ATOM     27  H   UNL     1      50.643   7.779  14.767  0.00  0.00    +0.000 HD
ATOM     28  H   UNL     1      50.072   7.119  13.394  0.00  0.00    +0.000 HD
ENDBRANCH  25  26
ENDBRANCH  20  25
ENDBRANCH  16  17
ENDBRANCH  10  16
TORSDOF 6
ENDMDL
MODEL 5
REMARK VINA RESULT:    -6.802      2.497      3.618
REMARK INTER + INTRA:          -9.237
REMARK INTER:                  -8.846
REMARK INTRA:                  -0.390
REMARK UNBOUND:                -0.447
REMARK  Name = 
REMARK  7 active torsions:
REMARK  status: ('A' for Active; 'I' for Inactive)
REMARK    1  A    between atoms: C_1  and  C_2
REMARK    2  A    between atoms: C_7  and  C_8
REMARK    3  A    between atoms: N_13  and  C_14
REMARK    4  A    between atoms: C_14  and  C_15
REMARK    5  A    between atoms: C_18  and  C_19
REMARK    6  A    between atoms: C_19  and  N_20
REMARK    7  A    between atoms: C_22  and  O_23
REMARK                            x       y       z     vdW  Elec       q    Type
REMARK                         _______ _______ _______ _____ _____    ______ ____
ROOT
ATOM      1  C   UNL     1      43.725   8.992  10.607  0.00  0.00    +0.000 C 
ATOM      2  C   UNL     1      44.555   8.154  11.508  0.00  0.00    +0.000 A 
ATOM      3  N   UNL     1      45.595   8.616  12.171  0.00  0.00    +0.000 NA
ATOM      4  C   UNL     1      46.095   7.568  12.879  0.00  0.00    +0.000 A 
ATOM      5  C   UNL     1      47.201   7.536  13.739  0.00  0.00    +0.000 A 
ATOM      6  C   UNL     1      47.529   6.326  14.362  0.00  0.00    +0.000 A 
ATOM      7  C   UNL     1      46.777   5.163  14.139  0.00  0.00    +0.000 A 
ATOM      8  C   UNL     1      45.673   5.186  13.266  0.00  0.00    +0.000 A 
ATOM      9  C   UNL     1      45.359   6.413  12.657  0.00  0.00    +0.000 A 
ATOM     10  N   UNL     1      44.372   6.805  11.765  0.00  0.00    +0.000 N 
ENDROOT
BRANCH   7  11
ATOM     11  C   UNL     1      47.209   3.930  14.859  0.00  0.00    +0.000 C 
ATOM     12  N   UNL     1      47.187   3.924  16.229  0.00  0.00    +0.000 N 
ATOM     13  O   UNL     1      47.594   2.934  14.263  0.00  0.00    +0.000 OA
ATOM     14  H   UNL     1      46.893   4.686  16.809  0.00  0.00    +0.000 HD
ATOM     15  H   UNL     1      47.492   3.073  16.681  0.00  0.00    +0.000 HD
ENDBRANCH   7  11
BRANCH  10  16
ATOM     16  C   UNL     1      43.393   5.908  11.152  0.00  0.00    +0.000 C 
BRANCH  16  17
ATOM     17  C   UNL     1      44.053   4.733  10.489  0.00  0.00    +0.000 A 
ATOM     18  N   UNL     1      45.056   4.982   9.606  0.00  0.00    +0.000 NA
ATOM     19  C   UNL     1      45.552   3.905   8.946  0.00  0.00    +0.000 A 
ATOM     20  C   UNL     1      45.096   2.608   9.158  0.00  0.00    +0.000 A 
ATOM     21  N   UNL     1      44.152   2.342  10.100  0.00  0.00    +0.000 NA
ATOM     22  C   UNL     1      43.658   3.422  10.737  0.00  0.00    +0.000 A 
BRANCH  22  23
ATOM     23  O   UNL     1      42.736   3.093  11.675  0.00  0.00    +0.000 OA
ATOM     24  H   UNL     1      42.121   3.844  11.566  0.00  0.00    +0.000 HD
ENDBRANCH  22  23
BRANCH  20  25
ATOM     25  C   UNL     1      45.618   1.462   8.321  0.00  0.00    +0.000 C 
BRANCH  25  26
ATOM     26  N   UNL     1      46.873   1.783   7.636  0.00  0.00    +0.000 NA
ATOM     27  H   UNL     1      47.459   2.335   8.266  0.00  0.00    +0.000 HD
ATOM     28  H   UNL     1      46.674   2.392   6.842  0.00  0.00    +0.000 HD
ENDBRANCH  25  26
ENDBRANCH  20  25
ENDBRANCH  16  17
ENDBRANCH  10  16
TORSDOF 6
ENDMDL
MODEL 6
REMARK VINA RESULT:    -6.774      3.006      7.098
REMARK INTER + INTRA:          -9.201
REMARK INTER:                  -8.794
REMARK INTRA:                  -0.407
REMARK UNBOUND:                -0.447
REMARK  Name = 
REMARK  7 active torsions:
REMARK  status: ('A' for Active; 'I' for Inactive)
REMARK    1  A    between atoms: C_1  and  C_2
REMARK    2  A    between atoms: C_7  and  C_8
REMARK    3  A    between atoms: N_13  and  C_14
REMARK    4  A    between atoms: C_14  and  C_15
REMARK    5  A    between atoms: C_18  and  C_19
REMARK    6  A    between atoms: C_19  and  N_20
REMARK    7  A    between atoms: C_22  and  O_23
REMARK                            x       y       z     vdW  Elec       q    Type
REMARK                         _______ _______ _______ _____ _____    ______ ____
ROOT
ATOM      1  C   UNL     1      46.883   9.397  12.577  0.00  0.00    +0.000 C 
ATOM      2  C   UNL     1      46.078   8.202  12.218  0.00  0.00    +0.000 A 
ATOM      3  N   UNL     1      44.796   8.257  11.923  0.00  0.00    +0.000 NA
ATOM      4  C   UNL     1      44.409   6.981  11.654  0.00  0.00    +0.000 A 
ATOM      5  C   UNL     1      43.142   6.505  11.293  0.00  0.00    +0.000 A 
ATOM      6  C   UNL     1      42.984   5.132  11.065  0.00  0.00    +0.000 A 
ATOM      7  C   UNL     1      44.061   4.242  11.192  0.00  0.00    +0.000 A 
ATOM      8  C   UNL     1      45.333   4.714  11.568  0.00  0.00    +0.000 A 
ATOM      9  C   UNL     1      45.470   6.096  11.785  0.00  0.00    +0.000 A 
ATOM     10  N   UNL     1      46.538   6.897  12.156  0.00  0.00    +0.000 N 
ENDROOT
BRANCH   7  11
ATOM     11  C   UNL     1      43.784   2.802  10.919  0.00  0.00    +0.000 C 
ATOM     12  N   UNL     1      44.472   2.176   9.913  0.00  0.00    +0.000 N 
ATOM     13  O   UNL     1      42.952   2.171  11.558  0.00  0.00    +0.000 OA
ATOM     14  H   UNL     1      45.169   2.603   9.334  0.00  0.00    +0.000 HD
ATOM     15  H   UNL     1      44.253   1.203   9.756  0.00  0.00    +0.000 HD
ENDBRANCH   7  11
BRANCH  10  16
ATOM     16  C   UNL     1      47.871   6.407  12.505  0.00  0.00    +0.000 C 
BRANCH  16  17
ATOM     17  C   UNL     1      47.892   5.770  13.865  0.00  0.00    +0.000 A 
ATOM     18  N   UNL     1      47.437   4.493  13.975  0.00  0.00    +0.000 NA
ATOM     19  C   UNL     1      47.368   3.990  15.235  0.00  0.00    +0.000 A 
ATOM     20  C   UNL     1      47.755   4.708  16.362  0.00  0.00    +0.000 A 
ATOM     21  N   UNL     1      48.289   5.953  16.249  0.00  0.00    +0.000 NA
ATOM     22  C   UNL     1      48.339   6.446  14.996  0.00  0.00    +0.000 A 
BRANCH  22  23
ATOM     23  O   UNL     1      48.896   7.681  14.947  0.00  0.00    +0.000 OA
ATOM     24  H   UNL     1      49.682   7.524  15.504  0.00  0.00    +0.000 HD
ENDBRANCH  22  23
BRANCH  20  25
ATOM     25  C   UNL     1      47.562   4.131  17.745  0.00  0.00    +0.000 C 
BRANCH  25  26
ATOM     26  N   UNL     1      46.705   2.942  17.752  0.00  0.00    +0.000 NA
ATOM     27  H   UNL     1      47.153   2.218  18.318  0.00  0.00    +0.000 HD
ATOM     28  H   UNL     1      46.656   2.560  16.807  0.00  0.00    +0.000 HD
ENDBRANCH  25  26
ENDBRANCH  20  25
ENDBRANCH  16  17
ENDBRANCH  10  16
TORSDOF 6
ENDMDL
MODEL 7
REMARK VINA RESULT:    -6.657      2.533      3.407
REMARK INTER + INTRA:          -9.050
REMARK INTER:                  -8.312
REMARK INTRA:                  -0.739
REMARK UNBOUND:                -0.447
REMARK  Name = 
REMARK  7 active torsions:
REMARK  status: ('A' for Active; 'I' for Inactive)
REMARK    1  A    between atoms: C_1  and  C_2
REMARK    2  A    between atoms: C_7  and  C_8
REMARK    3  A    between atoms: N_13  and  C_14
REMARK    4  A    between atoms: C_14  and  C_15
REMARK    5  A    between atoms: C_18  and  C_19
REMARK    6  A    between atoms: C_19  and  N_20
REMARK    7  A    between atoms: C_22  and  O_23
REMARK                            x       y       z     vdW  Elec       q    Type
REMARK                         _______ _______ _______ _____ _____    ______ ____
ROOT
ATOM      1  C   UNL     1      47.147   3.593  14.381  0.00  0.00    +0.000 C 
ATOM      2  C   UNL     1      46.961   4.999  13.945  0.00  0.00    +0.000 A 
ATOM      3  N   UNL     1      47.868   5.938  14.125  0.00  0.00    +0.000 NA
ATOM      4  C   UNL     1      47.345   7.081  13.604  0.00  0.00    +0.000 A 
ATOM      5  C   UNL     1      47.913   8.361  13.550  0.00  0.00    +0.000 A 
ATOM      6  C   UNL     1      47.176   9.394  12.960  0.00  0.00    +0.000 A 
ATOM      7  C   UNL     1      45.896   9.168  12.430  0.00  0.00    +0.000 A 
ATOM      8  C   UNL     1      45.316   7.886  12.494  0.00  0.00    +0.000 A 
ATOM      9  C   UNL     1      46.077   6.864  13.086  0.00  0.00    +0.000 A 
ATOM     10  N   UNL     1      45.840   5.518  13.319  0.00  0.00    +0.000 N 
ENDROOT
BRANCH   7  11
ATOM     11  C   UNL     1      45.202  10.337  11.817  0.00  0.00    +0.000 C 
ATOM     12  N   UNL     1      43.879  10.546  12.106  0.00  0.00    +0.000 N 
ATOM     13  O   UNL     1      45.775  11.104  11.056  0.00  0.00    +0.000 OA
ATOM     14  H   UNL     1      43.321   9.977  12.713  0.00  0.00    +0.000 HD
ATOM     15  H   UNL     1      43.442  11.344  11.668  0.00  0.00    +0.000 HD
ENDBRANCH   7  11
BRANCH  10  16
ATOM     16  C   UNL     1      44.584   4.827  13.030  0.00  0.00    +0.000 C 
BRANCH  16  17
ATOM     17  C   UNL     1      44.534   4.329  11.614  0.00  0.00    +0.000 A 
ATOM     18  N   UNL     1      45.280   3.237  11.298  0.00  0.00    +0.000 NA
ATOM     19  C   UNL     1      45.296   2.884   9.987  0.00  0.00    +0.000 A 
ATOM     20  C   UNL     1      44.581   3.566   9.008  0.00  0.00    +0.000 A 
ATOM     21  N   UNL     1      43.767   4.606   9.331  0.00  0.00    +0.000 NA
ATOM     22  C   UNL     1      43.772   4.955  10.633  0.00  0.00    +0.000 A 
BRANCH  22  23
ATOM     23  O   UNL     1      42.929   5.984  10.896  0.00  0.00    +0.000 OA
ATOM     24  H   UNL     1      43.247   6.624  10.230  0.00  0.00    +0.000 HD
ENDBRANCH  22  23
BRANCH  20  25
ATOM     25  C   UNL     1      44.717   3.186   7.551  0.00  0.00    +0.000 C 
BRANCH  25  26
ATOM     26  N   UNL     1      45.977   3.642   6.957  0.00  0.00    +0.000 NA
ATOM     27  H   UNL     1      45.884   4.630   6.713  0.00  0.00    +0.000 HD
ATOM     28  H   UNL     1      46.127   3.153   6.075  0.00  0.00    +0.000 HD
ENDBRANCH  25  26
ENDBRANCH  20  25
ENDBRANCH  16  17
ENDBRANCH  10  16
TORSDOF 6
ENDMDL
MODEL 8
REMARK VINA RESULT:    -6.295      4.344      6.719
REMARK INTER + INTRA:          -8.581
REMARK INTER:                  -7.831
REMARK INTRA:                  -0.750
REMARK UNBOUND:                -0.447
REMARK  Name = 
REMARK  7 active torsions:
REMARK  status: ('A' for Active; 'I' for Inactive)
REMARK    1  A    between atoms: C_1  and  C_2
REMARK    2  A    between atoms: C_7  and  C_8
REMARK    3  A    between atoms: N_13  and  C_14
REMARK    4  A    between atoms: C_14  and  C_15
REMARK    5  A    between atoms: C_18  and  C_19
REMARK    6  A    between atoms: C_19  and  N_20
REMARK    7  A    between atoms: C_22  and  O_23
REMARK                            x       y       z     vdW  Elec       q    Type
REMARK                         _______ _______ _______ _____ _____    ______ ____
ROOT
ATOM      1  C   UNL     1      48.617   9.454  13.829  0.00  0.00    +0.000 C 
ATOM      2  C   UNL     1      48.644   8.496  14.962  0.00  0.00    +0.000 A 
ATOM      3  N   UNL     1      48.789   8.866  16.219  0.00  0.00    +0.000 NA
ATOM      4  C   UNL     1      48.768   7.725  16.959  0.00  0.00    +0.000 A 
ATOM      5  C   UNL     1      48.888   7.577  18.347  0.00  0.00    +0.000 A 
ATOM      6  C   UNL     1      48.838   6.287  18.888  0.00  0.00    +0.000 A 
ATOM      7  C   UNL     1      48.671   5.158  18.072  0.00  0.00    +0.000 A 
ATOM      8  C   UNL     1      48.562   5.301  16.675  0.00  0.00    +0.000 A 
ATOM      9  C   UNL     1      48.609   6.606  16.155  0.00  0.00    +0.000 A 
ATOM     10  N   UNL     1      48.538   7.118  14.869  0.00  0.00    +0.000 N 
ENDROOT
BRANCH   7  11
ATOM     11  C   UNL     1      48.622   3.832  18.752  0.00  0.00    +0.000 C 
ATOM     12  N   UNL     1      48.568   3.793  20.121  0.00  0.00    +0.000 N 
ATOM     13  O   UNL     1      48.644   2.781  18.125  0.00  0.00    +0.000 OA
ATOM     14  H   UNL     1      48.548   4.593  20.723  0.00  0.00    +0.000 HD
ATOM     15  H   UNL     1      48.542   2.877  20.545  0.00  0.00    +0.000 HD
ENDBRANCH   7  11
BRANCH  10  16
ATOM     16  C   UNL     1      48.462   6.313  13.650  0.00  0.00    +0.000 C 
BRANCH  16  17
ATOM     17  C   UNL     1      47.051   5.904  13.339  0.00  0.00    +0.000 A 
ATOM     18  N   UNL     1      46.197   6.861  12.888  0.00  0.00    +0.000 NA
ATOM     19  C   UNL     1      44.904   6.479  12.722  0.00  0.00    +0.000 A 
ATOM     20  C   UNL     1      44.458   5.185  12.970  0.00  0.00    +0.000 A 
ATOM     21  N   UNL     1      45.323   4.204  13.340  0.00  0.00    +0.000 NA
ATOM     22  C   UNL     1      46.600   4.600  13.514  0.00  0.00    +0.000 A 
BRANCH  22  23
ATOM     23  O   UNL     1      47.416   3.576  13.864  0.00  0.00    +0.000 OA
ATOM     24  H   UNL     1      47.645   3.857  14.771  0.00  0.00    +0.000 HD
ENDBRANCH  22  23
BRANCH  20  25
ATOM     25  C   UNL     1      42.989   4.845  12.863  0.00  0.00    +0.000 C 
BRANCH  25  26
ATOM     26  N   UNL     1      42.229   5.837  12.097  0.00  0.00    +0.000 NA
ATOM     27  H   UNL     1      41.323   5.435  11.848  0.00  0.00    +0.000 HD
ATOM     28  H   UNL     1      42.704   6.011  11.212  0.00  0.00    +0.000 HD
ENDBRANCH  25  26
ENDBRANCH  20  25
ENDBRANCH  16  17
ENDBRANCH  10  16
TORSDOF 6
ENDMDL
MODEL 9
REMARK VINA RESULT:    -6.267      4.421      7.873
REMARK INTER + INTRA:          -8.545
REMARK INTER:                  -7.962
REMARK INTRA:                  -0.583
REMARK UNBOUND:                -0.447
REMARK  Name = 
REMARK  7 active torsions:
REMARK  status: ('A' for Active; 'I' for Inactive)
REMARK    1  A    between atoms: C_1  and  C_2
REMARK    2  A    between atoms: C_7  and  C_8
REMARK    3  A    between atoms: N_13  and  C_14
REMARK    4  A    between atoms: C_14  and  C_15
REMARK    5  A    between atoms: C_18  and  C_19
REMARK    6  A    between atoms: C_19  and  N_20
REMARK    7  A    between atoms: C_22  and  O_23
REMARK                            x       y       z     vdW  Elec       q    Type
REMARK                         _______ _______ _______ _____ _____    ______ ____
ROOT
ATOM      1  C   UNL     1      50.682   7.856  15.952  0.00  0.00    +0.000 C 
ATOM      2  C   UNL     1      49.618   7.254  15.110  0.00  0.00    +0.000 A 
ATOM      3  N   UNL     1      49.427   7.576  13.846  0.00  0.00    +0.000 NA
ATOM      4  C   UNL     1      48.375   6.830  13.415  0.00  0.00    +0.000 A 
ATOM      5  C   UNL     1      47.777   6.805  12.149  0.00  0.00    +0.000 A 
ATOM      6  C   UNL     1      46.692   5.946  11.939  0.00  0.00    +0.000 A 
ATOM      7  C   UNL     1      46.204   5.122  12.964  0.00  0.00    +0.000 A 
ATOM      8  C   UNL     1      46.794   5.152  14.243  0.00  0.00    +0.000 A 
ATOM      9  C   UNL     1      47.885   6.018  14.428  0.00  0.00    +0.000 A 
ATOM     10  N   UNL     1      48.692   6.308  15.517  0.00  0.00    +0.000 N 
ENDROOT
BRANCH   7  11
ATOM     11  C   UNL     1      45.049   4.239  12.631  0.00  0.00    +0.000 C 
ATOM     12  N   UNL     1      45.208   2.881  12.720  0.00  0.00    +0.000 N 
ATOM     13  O   UNL     1      43.972   4.692  12.268  0.00  0.00    +0.000 OA
ATOM     14  H   UNL     1      46.047   2.412  13.004  0.00  0.00    +0.000 HD
ATOM     15  H   UNL     1      44.406   2.316  12.481  0.00  0.00    +0.000 HD
ENDBRANCH   7  11
BRANCH  10  16
ATOM     16  C   UNL     1      48.509   5.766  16.863  0.00  0.00    +0.000 C 
BRANCH  16  17
ATOM     17  C   UNL     1      49.408   4.590  17.118  0.00  0.00    +0.000 A 
ATOM     18  N   UNL     1      50.664   4.837  17.574  0.00  0.00    +0.000 NA
ATOM     19  C   UNL     1      51.482   3.759  17.687  0.00  0.00    +0.000 A 
ATOM     20  C   UNL     1      51.077   2.464  17.383  0.00  0.00    +0.000 A 
ATOM     21  N   UNL     1      49.797   2.200  17.007  0.00  0.00    +0.000 NA
ATOM     22  C   UNL     1      49.001   3.280  16.885  0.00  0.00    +0.000 A 
BRANCH  22  23
ATOM     23  O   UNL     1      47.735   2.952  16.526  0.00  0.00    +0.000 OA
ATOM     24  H   UNL     1      47.629   2.132  17.046  0.00  0.00    +0.000 HD
ENDBRANCH  22  23
BRANCH  20  25
ATOM     25  C   UNL     1      52.062   1.318  17.434  0.00  0.00    +0.000 C 
BRANCH  25  26
ATOM     26  N   UNL     1      51.533   0.142  18.130  0.00  0.00    +0.000 NA
ATOM     27  H   UNL     1      52.294  -0.302  18.648  0.00  0.00    +0.000 HD
ATOM     28  H   UNL     1      51.231  -0.546  17.441  0.00  0.00    +0.000 HD
ENDBRANCH  25  26
ENDBRANCH  20  25
ENDBRANCH  16  17
ENDBRANCH  10  16
TORSDOF 6
ENDMDL
