MODEL 1
REMARK VINA RESULT:    -7.768      0.000      0.000
REMARK INTER + INTRA:          -9.323
REMARK INTER:                  -9.130
REMARK INTRA:                  -0.193
REMARK UNBOUND:                -0.193
REMARK  Name = 
REMARK  4 active torsions:
REMARK  status: ('A' for Active; 'I' for Inactive)
REMARK    1  A    between atoms: C_1  and  C_2
REMARK    2  A    between atoms: C_2  and  C_3
REMARK    3  A    between atoms: C_2  and  C_12
REMARK    4  A    between atoms: C_6  and  C_7
REMARK                            x       y       z     vdW  Elec       q    Type
REMARK                         _______ _______ _______ _____ _____    ______ ____
ROOT
ATOM      1  C   UNL     1      44.979   3.968   9.480  0.00  0.00    +0.000 A 
ATOM      2  C   UNL     1      45.014   2.579   9.582  0.00  0.00    +0.000 A 
ATOM      3  C   UNL     1      45.776   1.850   8.667  0.00  0.00    +0.000 A 
ATOM      4  C   UNL     1      46.491   2.512   7.666  0.00  0.00    +0.000 A 
ATOM      5  C   UNL     1      46.385   3.894   7.628  0.00  0.00    +0.000 A 
ATOM      6  N   UNL     1      45.662   4.624   8.511  0.00  0.00    +0.000 NA
ENDROOT
BRANCH   4   7
ATOM      7  C   UNL     1      47.335   1.728   6.734  0.00  0.00    +0.000 C 
ATOM      8  N   UNL     1      48.362   2.347   6.079  0.00  0.00    +0.000 N 
ATOM      9  O   UNL     1      47.129   0.532   6.550  0.00  0.00    +0.000 OA
ATOM     10  H   UNL     1      48.612   3.321   6.147  0.00  0.00    +0.000 HD
ATOM     11  H   UNL     1      48.923   1.765   5.468  0.00  0.00    +0.000 HD
ENDBRANCH   4   7
BRANCH   1  13
ATOM     12  C   UNL     1      43.096   3.958  11.106  0.00  0.00    +0.000 C 
ATOM     13  C   UNL     1      44.233   4.801  10.514  0.00  0.00    +0.000 C 
BRANCH  13  14
ATOM     14  C   UNL     1      45.126   5.454  11.616  0.00  0.00    +0.000 C 
ATOM     15  C   UNL     1      46.264   6.280  10.981  0.00  0.00    +0.000 C 
ATOM     16  C   UNL     1      47.198   6.901  12.017  0.00  0.00    +0.000 C 
ATOM     17  C   UNL     1      47.742   5.846  12.972  0.00  0.00    +0.000 C 
ATOM     18  C   UNL     1      46.599   5.137  13.685  0.00  0.00    +0.000 C 
ATOM     19  C   UNL     1      45.649   4.476  12.688  0.00  0.00    +0.000 C 
ENDBRANCH  13  14
ENDBRANCH   1  13
TORSDOF 3
ENDMDL
MODEL 2
REMARK VINA RESULT:    -7.737      1.019      1.506
REMARK INTER + INTRA:          -9.287
REMARK INTER:                  -8.768
REMARK INTRA:                  -0.518
REMARK UNBOUND:                -0.193
REMARK  Name = 
REMARK  4 active torsions:
REMARK  status: ('A' for Active; 'I' for Inactive)
REMARK    1  A    between atoms: C_1  and  C_2
REMARK    2  A    between atoms: C_2  and  C_3
REMARK    3  A    between atoms: C_2  and  C_12
REMARK    4  A    between atoms: C_6  and  C_7
REMARK                            x       y       z     vdW  Elec       q    Type
REMARK                         _______ _______ _______ _____ _____    ______ ____
ROOT
ATOM      1  C   UNL     1      45.055   4.099   9.319  0.00  0.00    +0.000 A 
ATOM      2  C   UNL     1      44.992   2.718   9.489  0.00  0.00    +0.000 A 
ATOM      3  C   UNL     1      45.730   1.895   8.636  0.00  0.00    +0.000 A 
ATOM      4  C   UNL     1      46.519   2.457   7.629  0.00  0.00    +0.000 A 
ATOM      5  C   UNL     1      46.508   3.839   7.522  0.00  0.00    +0.000 A 
ATOM      6  N   UNL     1      45.810   4.659   8.344  0.00  0.00    +0.000 NA
ENDROOT
BRANCH   4   7
ATOM      7  C   UNL     1      47.336   1.573   6.765  0.00  0.00    +0.000 C 
ATOM      8  N   UNL     1      48.361   2.109   6.038  0.00  0.00    +0.000 N 
ATOM      9  O   UNL     1      47.109   0.369   6.701  0.00  0.00    +0.000 OA
ATOM     10  H   UNL     1      48.626   3.081   6.008  0.00  0.00    +0.000 HD
ATOM     11  H   UNL     1      48.902   1.462   5.478  0.00  0.00    +0.000 HD
ENDBRANCH   4   7
BRANCH   1  13
ATOM     12  C   UNL     1      43.695   4.193  11.401  0.00  0.00    +0.000 C 
ATOM     13  C   UNL     1      44.336   5.030  10.287  0.00  0.00    +0.000 C 
BRANCH  13  14
ATOM     14  C   UNL     1      45.197   6.207  10.846  0.00  0.00    +0.000 C 
ATOM     15  C   UNL     1      46.194   5.699  11.908  0.00  0.00    +0.000 C 
ATOM     16  C   UNL     1      47.029   6.820  12.523  0.00  0.00    +0.000 C 
ATOM     17  C   UNL     1      46.142   7.927  13.078  0.00  0.00    +0.000 C 
ATOM     18  C   UNL     1      45.261   8.502  11.976  0.00  0.00    +0.000 C 
ATOM     19  C   UNL     1      44.386   7.420  11.346  0.00  0.00    +0.000 C 
ENDBRANCH  13  14
ENDBRANCH   1  13
TORSDOF 3
ENDMDL
MODEL 3
REMARK VINA RESULT:    -6.641      3.392      6.048
REMARK INTER + INTRA:          -7.999
REMARK INTER:                  -7.652
REMARK INTRA:                  -0.347
REMARK UNBOUND:                -0.193
REMARK  Name = 
REMARK  4 active torsions:
REMARK  status: ('A' for Active; 'I' for Inactive)
REMARK    1  A    between atoms: C_1  and  C_2
REMARK    2  A    between atoms: C_2  and  C_3
REMARK    3  A    between atoms: C_2  and  C_12
REMARK    4  A    between atoms: C_6  and  C_7
REMARK                            x       y       z     vdW  Elec       q    Type
REMARK                         _______ _______ _______ _____ _____    ______ ____
ROOT
ATOM      1  C   UNL     1      44.827   4.994  12.347  0.00  0.00    +0.000 A 
ATOM      2  C   UNL     1      45.220   6.326  12.233  0.00  0.00    +0.000 A 
ATOM      3  C   UNL     1      46.349   6.762  12.930  0.00  0.00    +0.000 A 
ATOM      4  C   UNL     1      47.069   5.869  13.726  0.00  0.00    +0.000 A 
ATOM      5  C   UNL     1      46.597   4.567  13.795  0.00  0.00    +0.000 A 
ATOM      6  N   UNL     1      45.512   4.117  13.120  0.00  0.00    +0.000 NA
ENDROOT
BRANCH   4   7
ATOM      7  C   UNL     1      48.294   6.336  14.418  0.00  0.00    +0.000 C 
ATOM      8  N   UNL     1      48.328   6.347  15.784  0.00  0.00    +0.000 N 
ATOM      9  O   UNL     1      49.276   6.704  13.782  0.00  0.00    +0.000 OA
ATOM     10  H   UNL     1      47.578   6.078  16.401  0.00  0.00    +0.000 HD
ATOM     11  H   UNL     1      49.193   6.656  16.210  0.00  0.00    +0.000 HD
ENDBRANCH   4   7
BRANCH   1  13
ATOM     12  C   UNL     1      42.569   5.541  11.457  0.00  0.00    +0.000 C 
ATOM     13  C   UNL     1      43.656   4.461  11.532  0.00  0.00    +0.000 C 
BRANCH  13  14
ATOM     14  C   UNL     1      44.025   3.889  10.126  0.00  0.00    +0.000 C 
ATOM     15  C   UNL     1      44.293   2.372  10.205  0.00  0.00    +0.000 C 
ATOM     16  C   UNL     1      44.707   1.771   8.864  0.00  0.00    +0.000 C 
ATOM     17  C   UNL     1      45.896   2.515   8.270  0.00  0.00    +0.000 C 
ATOM     18  C   UNL     1      45.557   3.987   8.078  0.00  0.00    +0.000 C 
ATOM     19  C   UNL     1      45.161   4.640   9.401  0.00  0.00    +0.000 C 
ENDBRANCH  13  14
ENDBRANCH   1  13
TORSDOF 3
ENDMDL
MODEL 4
REMARK VINA RESULT:    -6.460      3.566      6.214
REMARK INTER + INTRA:          -7.787
REMARK INTER:                  -7.378
REMARK INTRA:                  -0.408
REMARK UNBOUND:                -0.193
REMARK  Name = 
REMARK  4 active torsions:
REMARK  status: ('A' for Active; 'I' for Inactive)
REMARK    1  A    between atoms: C_1  and  C_2
REMARK    2  A    between atoms: C_2  and  C_3
REMARK    3  A    between atoms: C_2  and  C_12
REMARK    4  A    between atoms: C_6  and  C_7
REMARK                            x       y       z     vdW  Elec       q    Type
REMARK                         _______ _______ _______ _____ _____    ______ ____
ROOT
ATOM      1  C   UNL     1      44.908   5.655  11.955  0.00  0.00    +0.000 A 
ATOM      2  C   UNL     1      46.027   5.193  12.642  0.00  0.00    +0.000 A 
ATOM      3  C   UNL     1      46.925   6.119  13.177  0.00  0.00    +0.000 A 
ATOM      4  C   UNL     1      46.696   7.488  13.020  0.00  0.00    +0.000 A 
ATOM      5  C   UNL     1      45.567   7.858  12.306  0.00  0.00    +0.000 A 
ATOM      6  N   UNL     1      44.674   6.979  11.788  0.00  0.00    +0.000 NA
ENDROOT
BRANCH   4   7
ATOM      7  C   UNL     1      47.631   8.457  13.637  0.00  0.00    +0.000 C 
ATOM      8  N   UNL     1      47.378   8.922  14.897  0.00  0.00    +0.000 N 
ATOM      9  O   UNL     1      48.630   8.841  13.036  0.00  0.00    +0.000 OA
ATOM     10  H   UNL     1      46.587   8.683  15.473  0.00  0.00    +0.000 HD
ATOM     11  H   UNL     1      48.056   9.568  15.283  0.00  0.00    +0.000 HD
ENDBRANCH   4   7
BRANCH   1  13
ATOM     12  C   UNL     1      42.484   5.353  11.480  0.00  0.00    +0.000 C 
ATOM     13  C   UNL     1      43.860   4.677  11.437  0.00  0.00    +0.000 C 
BRANCH  13  14
ATOM     14  C   UNL     1      44.169   4.043  10.043  0.00  0.00    +0.000 C 
ATOM     15  C   UNL     1      44.366   2.518  10.166  0.00  0.00    +0.000 C 
ATOM     16  C   UNL     1      44.719   1.855   8.837  0.00  0.00    +0.000 C 
ATOM     17  C   UNL     1      45.927   2.521   8.193  0.00  0.00    +0.000 C 
ATOM     18  C   UNL     1      45.655   4.001   7.960  0.00  0.00    +0.000 C 
ATOM     19  C   UNL     1      45.322   4.715   9.269  0.00  0.00    +0.000 C 
ENDBRANCH  13  14
ENDBRANCH   1  13
TORSDOF 3
ENDMDL
MODEL 5
REMARK VINA RESULT:    -5.925      3.103      4.925
REMARK INTER + INTRA:          -7.157
REMARK INTER:                  -6.682
REMARK INTRA:                  -0.475
REMARK UNBOUND:                -0.193
REMARK  Name = 
REMARK  4 active torsions:
REMARK  status: ('A' for Active; 'I' for Inactive)
REMARK    1  A    between atoms: C_1  and  C_2
REMARK    2  A    between atoms: C_2  and  C_3
REMARK    3  A    between atoms: C_2  and  C_12
REMARK    4  A    between atoms: C_6  and  C_7
REMARK                            x       y       z     vdW  Elec       q    Type
REMARK                         _______ _______ _______ _____ _____    ______ ____
ROOT
ATOM      1  C   UNL     1      46.487   6.122  12.640  0.00  0.00    +0.000 A 
ATOM      2  C   UNL     1      46.259   4.955  13.366  0.00  0.00    +0.000 A 
ATOM      3  C   UNL     1      45.488   3.940  12.795  0.00  0.00    +0.000 A 
ATOM      4  C   UNL     1      44.957   4.101  11.513  0.00  0.00    +0.000 A 
ATOM      5  C   UNL     1      45.219   5.302  10.871  0.00  0.00    +0.000 A 
ATOM      6  N   UNL     1      45.973   6.296  11.398  0.00  0.00    +0.000 NA
ENDROOT
BRANCH   4   7
ATOM      7  C   UNL     1      44.184   2.995  10.902  0.00  0.00    +0.000 C 
ATOM      8  N   UNL     1      44.749   2.259   9.897  0.00  0.00    +0.000 N 
ATOM      9  O   UNL     1      43.051   2.726  11.289  0.00  0.00    +0.000 OA
ATOM     10  H   UNL     1      45.663   2.399   9.497  0.00  0.00    +0.000 HD
ATOM     11  H   UNL     1      44.189   1.502   9.524  0.00  0.00    +0.000 HD
ENDBRANCH   4   7
BRANCH   1  13
ATOM     12  C   UNL     1      48.206   6.638  14.363  0.00  0.00    +0.000 C 
ATOM     13  C   UNL     1      47.397   7.211  13.193  0.00  0.00    +0.000 C 
BRANCH  13  14
ATOM     14  C   UNL     1      48.300   7.927  12.138  0.00  0.00    +0.000 C 
ATOM     15  C   UNL     1      49.747   7.396  12.205  0.00  0.00    +0.000 C 
ATOM     16  C   UNL     1      50.683   8.098  11.226  0.00  0.00    +0.000 C 
ATOM     17  C   UNL     1      50.637   9.610  11.406  0.00  0.00    +0.000 C 
ATOM     18  C   UNL     1      49.219  10.125  11.203  0.00  0.00    +0.000 C 
ATOM     19  C   UNL     1      48.246   9.467  12.181  0.00  0.00    +0.000 C 
ENDBRANCH  13  14
ENDBRANCH   1  13
TORSDOF 3
ENDMDL
MODEL 6
REMARK VINA RESULT:    -5.812      4.035      6.591
REMARK INTER + INTRA:          -7.024
REMARK INTER:                  -6.545
REMARK INTRA:                  -0.479
REMARK UNBOUND:                -0.193
REMARK  Name = 
REMARK  4 active torsions:
REMARK  status: ('A' for Active; 'I' for Inactive)
REMARK    1  A    between atoms: C_1  and  C_2
REMARK    2  A    between atoms: C_2  and  C_3
REMARK    3  A    between atoms: C_2  and  C_12
REMARK    4  A    between atoms: C_6  and  C_7
REMARK                            x       y       z     vdW  Elec       q    Type
REMARK                         _______ _______ _______ _____ _____    ______ ____
ROOT
ATOM      1  C   UNL     1      45.994   5.503  13.084  0.00  0.00    +0.000 A 
ATOM      2  C   UNL     1      46.985   6.468  13.246  0.00  0.00    +0.000 A 
ATOM      3  C   UNL     1      47.884   6.346  14.308  0.00  0.00    +0.000 A 
ATOM      4  C   UNL     1      47.784   5.267  15.190  0.00  0.00    +0.000 A 
ATOM      5  C   UNL     1      46.756   4.364  14.963  0.00  0.00    +0.000 A 
ATOM      6  N   UNL     1      45.880   4.454  13.934  0.00  0.00    +0.000 NA
ENDROOT
BRANCH   4   7
ATOM      7  C   UNL     1      48.776   5.124  16.281  0.00  0.00    +0.000 C 
ATOM      8  N   UNL     1      48.525   4.253  17.304  0.00  0.00    +0.000 N 
ATOM      9  O   UNL     1      49.820   5.769  16.273  0.00  0.00    +0.000 OA
ATOM     10  H   UNL     1      47.700   3.686  17.415  0.00  0.00    +0.000 HD
ATOM     11  H   UNL     1      49.241   4.177  18.016  0.00  0.00    +0.000 HD
ENDBRANCH   4   7
BRANCH   1  13
ATOM     12  C   UNL     1      45.001   6.993  11.356  0.00  0.00    +0.000 C 
ATOM     13  C   UNL     1      45.054   5.555  11.886  0.00  0.00    +0.000 C 
BRANCH  13  14
ATOM     14  C   UNL     1      45.351   4.515  10.758  0.00  0.00    +0.000 C 
ATOM     15  C   UNL     1      45.642   5.226   9.420  0.00  0.00    +0.000 C 
ATOM     16  C   UNL     1      45.891   4.252   8.272  0.00  0.00    +0.000 C 
ATOM     17  C   UNL     1      44.747   3.257   8.135  0.00  0.00    +0.000 C 
ATOM     18  C   UNL     1      44.568   2.474   9.428  0.00  0.00    +0.000 C 
ATOM     19  C   UNL     1      44.290   3.407  10.606  0.00  0.00    +0.000 C 
ENDBRANCH  13  14
ENDBRANCH   1  13
TORSDOF 3
ENDMDL
MODEL 7
REMARK VINA RESULT:    -5.702      3.117      5.018
REMARK INTER + INTRA:          -6.895
REMARK INTER:                  -6.670
REMARK INTRA:                  -0.224
REMARK UNBOUND:                -0.193
REMARK  Name = 
REMARK  4 active torsions:
REMARK  status: ('A' for Active; 'I' for Inactive)
REMARK    1  A    between atoms: C_1  and  C_2
REMARK    2  A    between atoms: C_2  and  C_3
REMARK    3  A    between atoms: C_2  and  C_12
REMARK    4  A    between atoms: C_6  and  C_7
REMARK                            x       y       z     vdW  Elec       q    Type
REMARK                         _______ _______ _______ _____ _____    ______ ____
ROOT
ATOM      1  C   UNL     1      46.331   6.419  12.171  0.00  0.00    +0.000 A 
ATOM      2  C   UNL     1      45.763   5.581  13.127  0.00  0.00    +0.000 A 
ATOM      3  C   UNL     1      45.006   4.486  12.706  0.00  0.00    +0.000 A 
ATOM      4  C   UNL     1      44.826   4.241  11.343  0.00  0.00    +0.000 A 
ATOM      5  C   UNL     1      45.412   5.137  10.461  0.00  0.00    +0.000 A 
ATOM      6  N   UNL     1      46.161   6.199  10.844  0.00  0.00    +0.000 NA
ENDROOT
BRANCH   4   7
ATOM      7  C   UNL     1      44.063   3.047  10.912  0.00  0.00    +0.000 C 
ATOM      8  N   UNL     1      44.573   2.245   9.929  0.00  0.00    +0.000 N 
ATOM      9  O   UNL     1      42.987   2.764  11.430  0.00  0.00    +0.000 OA
ATOM     10  H   UNL     1      45.437   2.389   9.431  0.00  0.00    +0.000 HD
ATOM     11  H   UNL     1      44.024   1.430   9.683  0.00  0.00    +0.000 HD
ENDBRANCH   4   7
BRANCH   1  13
ATOM     12  C   UNL     1      48.528   7.514  11.763  0.00  0.00    +0.000 C 
ATOM     13  C   UNL     1      47.237   7.570  12.591  0.00  0.00    +0.000 C 
BRANCH  13  14
ATOM     14  C   UNL     1      46.575   8.984  12.568  0.00  0.00    +0.000 C 
ATOM     15  C   UNL     1      45.141   8.910  12.003  0.00  0.00    +0.000 C 
ATOM     16  C   UNL     1      44.466  10.276  11.914  0.00  0.00    +0.000 C 
ATOM     17  C   UNL     1      45.321  11.264  11.131  0.00  0.00    +0.000 C 
ATOM     18  C   UNL     1      46.686  11.419  11.787  0.00  0.00    +0.000 C 
ATOM     19  C   UNL     1      47.414  10.078  11.876  0.00  0.00    +0.000 C 
ENDBRANCH  13  14
ENDBRANCH   1  13
TORSDOF 3
ENDMDL
MODEL 8
REMARK VINA RESULT:    -5.562      4.977      7.482
REMARK INTER + INTRA:          -6.731
REMARK INTER:                  -6.286
REMARK INTRA:                  -0.445
REMARK UNBOUND:                -0.193
REMARK  Name = 
REMARK  4 active torsions:
REMARK  status: ('A' for Active; 'I' for Inactive)
REMARK    1  A    between atoms: C_1  and  C_2
REMARK    2  A    between atoms: C_2  and  C_3
REMARK    3  A    between atoms: C_2  and  C_12
REMARK    4  A    between atoms: C_6  and  C_7
REMARK                            x       y       z     vdW  Elec       q    Type
REMARK                         _______ _______ _______ _____ _____    ______ ____
ROOT
ATOM      1  C   UNL     1      47.489   5.584  14.575  0.00  0.00    +0.000 A 
ATOM      2  C   UNL     1      46.996   4.374  15.057  0.00  0.00    +0.000 A 
ATOM      3  C   UNL     1      47.520   3.850  16.240  0.00  0.00    +0.000 A 
ATOM      4  C   UNL     1      48.525   4.537  16.926  0.00  0.00    +0.000 A 
ATOM      5  C   UNL     1      48.969   5.724  16.365  0.00  0.00    +0.000 A 
ATOM      6  N   UNL     1      48.468   6.259  15.225  0.00  0.00    +0.000 NA
ENDROOT
BRANCH   4   7
ATOM      7  C   UNL     1      49.035   3.993  18.206  0.00  0.00    +0.000 C 
ATOM      8  N   UNL     1      48.277   3.090  18.898  0.00  0.00    +0.000 N 
ATOM      9  O   UNL     1      50.127   4.336  18.648  0.00  0.00    +0.000 OA
ATOM     10  H   UNL     1      47.366   2.749  18.634  0.00  0.00    +0.000 HD
ATOM     11  H   UNL     1      48.676   2.733  19.758  0.00  0.00    +0.000 HD
ENDBRANCH   4   7
BRANCH   1  13
ATOM     12  C   UNL     1      48.008   6.659  12.392  0.00  0.00    +0.000 C 
ATOM     13  C   UNL     1      46.879   6.230  13.338  0.00  0.00    +0.000 C 
BRANCH  13  14
ATOM     14  C   UNL     1      45.784   5.384  12.613  0.00  0.00    +0.000 C 
ATOM     15  C   UNL     1      45.881   5.558  11.083  0.00  0.00    +0.000 C 
ATOM     16  C   UNL     1      44.800   4.789  10.328  0.00  0.00    +0.000 C 
ATOM     17  C   UNL     1      43.410   5.144  10.842  0.00  0.00    +0.000 C 
ATOM     18  C   UNL     1      43.301   4.837  12.329  0.00  0.00    +0.000 C 
ATOM     19  C   UNL     1      44.349   5.606  13.132  0.00  0.00    +0.000 C 
ENDBRANCH  13  14
ENDBRANCH   1  13
TORSDOF 3
ENDMDL
MODEL 9
REMARK VINA RESULT:    -5.445      4.333      6.105
REMARK INTER + INTRA:          -6.593
REMARK INTER:                  -6.066
REMARK INTRA:                  -0.528
REMARK UNBOUND:                -0.193
REMARK  Name = 
REMARK  4 active torsions:
REMARK  status: ('A' for Active; 'I' for Inactive)
REMARK    1  A    between atoms: C_1  and  C_2
REMARK    2  A    between atoms: C_2  and  C_3
REMARK    3  A    between atoms: C_2  and  C_12
REMARK    4  A    between atoms: C_6  and  C_7
REMARK                            x       y       z     vdW  Elec       q    Type
REMARK                         _______ _______ _______ _____ _____    ______ ____
ROOT
ATOM      1  C   UNL     1      47.685   6.132  12.807  0.00  0.00    +0.000 A 
ATOM      2  C   UNL     1      46.711   6.446  11.862  0.00  0.00    +0.000 A 
ATOM      3  C   UNL     1      45.503   5.744  11.874  0.00  0.00    +0.000 A 
ATOM      4  C   UNL     1      45.284   4.743  12.823  0.00  0.00    +0.000 A 
ATOM      5  C   UNL     1      46.315   4.486  13.714  0.00  0.00    +0.000 A 
ATOM      6  N   UNL     1      47.489   5.160  13.731  0.00  0.00    +0.000 NA
ENDROOT
BRANCH   4   7
ATOM      7  C   UNL     1      43.978   4.043  12.854  0.00  0.00    +0.000 C 
ATOM      8  N   UNL     1      43.923   2.715  12.535  0.00  0.00    +0.000 N 
ATOM      9  O   UNL     1      42.951   4.636  13.168  0.00  0.00    +0.000 OA
ATOM     10  H   UNL     1      44.699   2.137  12.254  0.00  0.00    +0.000 HD
ATOM     11  H   UNL     1      43.012   2.276  12.589  0.00  0.00    +0.000 HD
ENDBRANCH   4   7
BRANCH   1  13
ATOM     12  C   UNL     1      49.018   7.923  11.708  0.00  0.00    +0.000 C 
ATOM     13  C   UNL     1      48.976   6.937  12.883  0.00  0.00    +0.000 C 
BRANCH  13  14
ATOM     14  C   UNL     1      49.250   7.633  14.254  0.00  0.00    +0.000 C 
ATOM     15  C   UNL     1      48.122   8.628  14.599  0.00  0.00    +0.000 C 
ATOM     16  C   UNL     1      48.367   9.373  15.909  0.00  0.00    +0.000 C 
ATOM     17  C   UNL     1      49.729  10.054  15.910  0.00  0.00    +0.000 C 
ATOM     18  C   UNL     1      50.835   9.029  15.700  0.00  0.00    +0.000 C 
ATOM     19  C   UNL     1      50.647   8.273  14.385  0.00  0.00    +0.000 C 
ENDBRANCH  13  14
ENDBRANCH   1  13
TORSDOF 3
ENDMDL
