MODEL 1
REMARK VINA RESULT:    -8.600      0.000      0.000
REMARK INTER + INTRA:         -11.419
REMARK INTER:                 -11.114
REMARK INTRA:                  -0.305
REMARK UNBOUND:                -0.305
REMARK  Name = 
REMARK  5 active torsions:
REMARK  status: ('A' for Active; 'I' for Inactive)
REMARK    1  A    between atoms: C_2  and  C_5
REMARK    2  A    between atoms: C_9  and  N_10
REMARK    3  A    between atoms: N_10  and  C_11
REMARK    4  A    between atoms: C_11  and  C_12
REMARK    5  A    between atoms: C_14  and  C_15
REMARK                            x       y       z     vdW  Elec       q    Type
REMARK                         _______ _______ _______ _____ _____    ______ ____
ROOT
ATOM      1  C   UNL     1      43.619   3.476  11.689  0.00  0.00    +0.000 C 
ENDROOT
BRANCH   1   2
ATOM      2  C   UNL     1      44.892   4.076  12.259  0.00  0.00    +0.000 A 
ATOM      3  C   UNL     1      45.189   5.422  12.035  0.00  0.00    +0.000 A 
ATOM      4  C   UNL     1      46.323   6.006  12.619  0.00  0.00    +0.000 A 
ATOM      5  C   UNL     1      47.124   5.171  13.411  0.00  0.00    +0.000 A 
ATOM      6  C   UNL     1      46.763   3.843  13.587  0.00  0.00    +0.000 A 
ATOM      7  N   UNL     1      45.663   3.283  13.043  0.00  0.00    +0.000 NA
BRANCH   4   8
ATOM      8  C   UNL     1      46.646   7.437  12.426  0.00  0.00    +0.000 A 
ATOM      9  C   UNL     1      47.960   7.886  12.221  0.00  0.00    +0.000 A 
ATOM     10  C   UNL     1      48.233   9.240  12.025  0.00  0.00    +0.000 A 
ATOM     11  C   UNL     1      47.174  10.130  12.033  0.00  0.00    +0.000 A 
ATOM     12  N   UNL     1      45.896   9.760  12.228  0.00  0.00    +0.000 NA
ATOM     13  C   UNL     1      45.667   8.435  12.423  0.00  0.00    +0.000 A 
ENDBRANCH   4   8
ENDBRANCH   1   2
BRANCH   1  14
ATOM     14  N   UNL     1      43.965   2.321  10.862  0.00  0.00    +0.000 N 
ATOM     15  H   UNL     1      44.509   1.652  11.404  0.00  0.00    +0.000 HD
BRANCH  14  20
ATOM     16  C   UNL     1      46.119   2.138   7.954  0.00  0.00    +0.000 A 
ATOM     17  C   UNL     1      45.948   3.413   7.434  0.00  0.00    +0.000 A 
ATOM     18  N   UNL     1      45.118   4.322   7.988  0.00  0.00    +0.000 NA
ATOM     19  C   UNL     1      44.470   3.903   9.104  0.00  0.00    +0.000 A 
ATOM     20  C   UNL     1      44.609   2.627   9.657  0.00  0.00    +0.000 A 
ATOM     21  N   UNL     1      45.443   1.737   9.077  0.00  0.00    +0.000 NA
BRANCH  16  23
ATOM     22  F   UNL     1      46.779   0.957   5.964  0.00  0.00    +0.000 F 
ATOM     23  C   UNL     1      47.085   1.192   7.277  0.00  0.00    +0.000 C 
ATOM     24  F   UNL     1      47.131  -0.038   7.862  0.00  0.00    +0.000 F 
ATOM     25  F   UNL     1      48.368   1.653   7.268  0.00  0.00    +0.000 F 
ENDBRANCH  16  23
ENDBRANCH  14  20
ENDBRANCH   1  14
TORSDOF 5
ENDMDL
MODEL 2
REMARK VINA RESULT:    -8.269      3.331      6.784
REMARK INTER + INTRA:         -10.991
REMARK INTER:                 -10.212
REMARK INTRA:                  -0.779
REMARK UNBOUND:                -0.305
REMARK  Name = 
REMARK  5 active torsions:
REMARK  status: ('A' for Active; 'I' for Inactive)
REMARK    1  A    between atoms: C_2  and  C_5
REMARK    2  A    between atoms: C_9  and  N_10
REMARK    3  A    between atoms: N_10  and  C_11
REMARK    4  A    between atoms: C_11  and  C_12
REMARK    5  A    between atoms: C_14  and  C_15
REMARK                            x       y       z     vdW  Elec       q    Type
REMARK                         _______ _______ _______ _____ _____    ______ ____
ROOT
ATOM      1  C   UNL     1      43.723   6.195  11.169  0.00  0.00    +0.000 C 
ENDROOT
BRANCH   1   2
ATOM      2  C   UNL     1      43.882   4.744  10.751  0.00  0.00    +0.000 A 
ATOM      3  C   UNL     1      44.689   4.419   9.658  0.00  0.00    +0.000 A 
ATOM      4  C   UNL     1      44.904   3.077   9.307  0.00  0.00    +0.000 A 
ATOM      5  C   UNL     1      44.266   2.110  10.098  0.00  0.00    +0.000 A 
ATOM      6  C   UNL     1      43.481   2.512  11.168  0.00  0.00    +0.000 A 
ATOM      7  N   UNL     1      43.287   3.800  11.520  0.00  0.00    +0.000 NA
BRANCH   4   8
ATOM      8  C   UNL     1      45.779   2.702   8.175  0.00  0.00    +0.000 A 
ATOM      9  C   UNL     1      46.068   3.590   7.128  0.00  0.00    +0.000 A 
ATOM     10  C   UNL     1      46.910   3.214   6.080  0.00  0.00    +0.000 A 
ATOM     11  C   UNL     1      47.456   1.943   6.103  0.00  0.00    +0.000 A 
ATOM     12  N   UNL     1      47.213   1.048   7.076  0.00  0.00    +0.000 NA
ATOM     13  C   UNL     1      46.383   1.445   8.076  0.00  0.00    +0.000 A 
ENDBRANCH   4   8
ENDBRANCH   1   2
BRANCH   1  14
ATOM     14  N   UNL     1      44.054   6.321  12.588  0.00  0.00    +0.000 N 
ATOM     15  H   UNL     1      43.621   7.158  12.975  0.00  0.00    +0.000 HD
BRANCH  14  20
ATOM     16  C   UNL     1      47.599   7.071  12.621  0.00  0.00    +0.000 A 
ATOM     17  C   UNL     1      48.076   5.998  13.359  0.00  0.00    +0.000 A 
ATOM     18  N   UNL     1      47.266   5.050  13.878  0.00  0.00    +0.000 NA
ATOM     19  C   UNL     1      45.946   5.217  13.614  0.00  0.00    +0.000 A 
ATOM     20  C   UNL     1      45.423   6.287  12.881  0.00  0.00    +0.000 A 
ATOM     21  N   UNL     1      46.258   7.221  12.379  0.00  0.00    +0.000 NA
BRANCH  16  23
ATOM     22  F   UNL     1      49.263   7.612  10.969  0.00  0.00    +0.000 F 
ATOM     23  C   UNL     1      48.584   8.074  12.063  0.00  0.00    +0.000 C 
ATOM     24  F   UNL     1      49.546   8.437  12.957  0.00  0.00    +0.000 F 
ATOM     25  F   UNL     1      47.994   9.233  11.654  0.00  0.00    +0.000 F 
ENDBRANCH  16  23
ENDBRANCH  14  20
ENDBRANCH   1  14
TORSDOF 5
ENDMDL
MODEL 3
REMARK VINA RESULT:    -8.069      1.531      2.075
REMARK INTER + INTRA:         -10.733
REMARK INTER:                 -10.237
REMARK INTRA:                  -0.496
REMARK UNBOUND:                -0.305
REMARK  Name = 
REMARK  5 active torsions:
REMARK  status: ('A' for Active; 'I' for Inactive)
REMARK    1  A    between atoms: C_2  and  C_5
REMARK    2  A    between atoms: C_9  and  N_10
REMARK    3  A    between atoms: N_10  and  C_11
REMARK    4  A    between atoms: C_11  and  C_12
REMARK    5  A    between atoms: C_14  and  C_15
REMARK                            x       y       z     vdW  Elec       q    Type
REMARK                         _______ _______ _______ _____ _____    ______ ____
ROOT
ATOM      1  C   UNL     1      44.529   2.561  11.980  0.00  0.00    +0.000 C 
ENDROOT
BRANCH   1   2
ATOM      2  C   UNL     1      44.685   4.026  12.348  0.00  0.00    +0.000 A 
ATOM      3  C   UNL     1      45.961   4.582  12.462  0.00  0.00    +0.000 A 
ATOM      4  C   UNL     1      46.117   5.951  12.728  0.00  0.00    +0.000 A 
ATOM      5  C   UNL     1      44.942   6.702  12.878  0.00  0.00    +0.000 A 
ATOM      6  C   UNL     1      43.711   6.077  12.749  0.00  0.00    +0.000 A 
ATOM      7  N   UNL     1      43.556   4.765  12.475  0.00  0.00    +0.000 NA
BRANCH   4   8
ATOM      8  C   UNL     1      47.455   6.575  12.824  0.00  0.00    +0.000 A 
ATOM      9  C   UNL     1      47.992   7.353  11.786  0.00  0.00    +0.000 A 
ATOM     10  C   UNL     1      49.251   7.944  11.911  0.00  0.00    +0.000 A 
ATOM     11  C   UNL     1      49.954   7.747  13.086  0.00  0.00    +0.000 A 
ATOM     12  N   UNL     1      49.493   7.009  14.111  0.00  0.00    +0.000 NA
ATOM     13  C   UNL     1      48.268   6.442  13.953  0.00  0.00    +0.000 A 
ENDBRANCH   4   8
ENDBRANCH   1   2
BRANCH   1  14
ATOM     14  N   UNL     1      43.814   2.463  10.708  0.00  0.00    +0.000 N 
ATOM     15  H   UNL     1      43.374   1.547  10.622  0.00  0.00    +0.000 HD
BRANCH  14  20
ATOM     16  C   UNL     1      46.151   2.181   7.953  0.00  0.00    +0.000 A 
ATOM     17  C   UNL     1      46.171   3.494   7.505  0.00  0.00    +0.000 A 
ATOM     18  N   UNL     1      45.413   4.466   8.057  0.00  0.00    +0.000 NA
ATOM     19  C   UNL     1      44.636   4.067   9.095  0.00  0.00    +0.000 A 
ATOM     20  C   UNL     1      44.581   2.754   9.573  0.00  0.00    +0.000 A 
ATOM     21  N   UNL     1      45.347   1.803   8.998  0.00  0.00    +0.000 NA
BRANCH  16  23
ATOM     22  F   UNL     1      46.999  -0.069   7.876  0.00  0.00    +0.000 F 
ATOM     23  C   UNL     1      47.049   1.164   7.286  0.00  0.00    +0.000 C 
ATOM     24  F   UNL     1      48.365   1.518   7.302  0.00  0.00    +0.000 F 
ATOM     25  F   UNL     1      46.733   0.948   5.977  0.00  0.00    +0.000 F 
ENDBRANCH  16  23
ENDBRANCH  14  20
ENDBRANCH   1  14
TORSDOF 5
ENDMDL
MODEL 4
REMARK VINA RESULT:    -8.021      3.592      7.006
REMARK INTER + INTRA:         -10.670
REMARK INTER:                  -9.951
REMARK INTRA:                  -0.720
REMARK UNBOUND:                -0.305
REMARK  Name = 
REMARK  5 active torsions:
REMARK  status: ('A' for Active; 'I' for Inactive)
REMARK    1  A    between atoms: C_2  and  C_5
REMARK    2  A    between atoms: C_9  and  N_10
REMARK    3  A    between atoms: N_10  and  C_11
REMARK    4  A    between atoms: C_11  and  C_12
REMARK    5  A    between atoms: C_14  and  C_15
REMARK                            x       y       z     vdW  Elec       q    Type
REMARK                         _______ _______ _______ _____ _____    ______ ____
ROOT
ATOM      1  C   UNL     1      44.554   6.442  11.127  0.00  0.00    +0.000 C 
ENDROOT
BRANCH   1   2
ATOM      2  C   UNL     1      44.453   5.003  10.651  0.00  0.00    +0.000 A 
ATOM      3  C   UNL     1      45.210   4.577   9.557  0.00  0.00    +0.000 A 
ATOM      4  C   UNL     1      45.182   3.233   9.154  0.00  0.00    +0.000 A 
ATOM      5  C   UNL     1      44.360   2.371   9.895  0.00  0.00    +0.000 A 
ATOM      6  C   UNL     1      43.639   2.870  10.970  0.00  0.00    +0.000 A 
ATOM      7  N   UNL     1      43.678   4.157  11.372  0.00  0.00    +0.000 NA
BRANCH   4   8
ATOM      8  C   UNL     1      45.996   2.746   8.019  0.00  0.00    +0.000 A 
ATOM      9  C   UNL     1      46.310   3.561   6.921  0.00  0.00    +0.000 A 
ATOM     10  C   UNL     1      47.095   3.080   5.871  0.00  0.00    +0.000 A 
ATOM     11  C   UNL     1      47.558   1.779   5.944  0.00  0.00    +0.000 A 
ATOM     12  N   UNL     1      47.288   0.950   6.968  0.00  0.00    +0.000 NA
ATOM     13  C   UNL     1      46.515   1.449   7.968  0.00  0.00    +0.000 A 
ENDBRANCH   4   8
ENDBRANCH   1   2
BRANCH   1  14
ATOM     14  N   UNL     1      44.522   6.464  12.589  0.00  0.00    +0.000 N 
ATOM     15  H   UNL     1      44.064   7.313  12.916  0.00  0.00    +0.000 HD
BRANCH  14  20
ATOM     16  C   UNL     1      47.187   5.205  14.697  0.00  0.00    +0.000 A 
ATOM     17  C   UNL     1      48.143   6.194  14.510  0.00  0.00    +0.000 A 
ATOM     18  N   UNL     1      47.954   7.246  13.685  0.00  0.00    +0.000 NA
ATOM     19  C   UNL     1      46.751   7.274  13.058  0.00  0.00    +0.000 A 
ATOM     20  C   UNL     1      45.765   6.296  13.212  0.00  0.00    +0.000 A 
ATOM     21  N   UNL     1      45.984   5.254  14.041  0.00  0.00    +0.000 NA
BRANCH  16  23
ATOM     22  F   UNL     1      47.638   2.866  15.033  0.00  0.00    +0.000 F 
ATOM     23  C   UNL     1      47.479   4.074  15.656  0.00  0.00    +0.000 C 
ATOM     24  F   UNL     1      46.489   3.878  16.572  0.00  0.00    +0.000 F 
ATOM     25  F   UNL     1      48.624   4.261  16.372  0.00  0.00    +0.000 F 
ENDBRANCH  16  23
ENDBRANCH  14  20
ENDBRANCH   1  14
TORSDOF 5
ENDMDL
MODEL 5
REMARK VINA RESULT:    -7.858      2.159      3.943
REMARK INTER + INTRA:         -10.460
REMARK INTER:                  -9.789
REMARK INTRA:                  -0.672
REMARK UNBOUND:                -0.305
REMARK  Name = 
REMARK  5 active torsions:
REMARK  status: ('A' for Active; 'I' for Inactive)
REMARK    1  A    between atoms: C_2  and  C_5
REMARK    2  A    between atoms: C_9  and  N_10
REMARK    3  A    between atoms: N_10  and  C_11
REMARK    4  A    between atoms: C_11  and  C_12
REMARK    5  A    between atoms: C_14  and  C_15
REMARK                            x       y       z     vdW  Elec       q    Type
REMARK                         _______ _______ _______ _____ _____    ______ ____
ROOT
ATOM      1  C   UNL     1      44.658   5.721  11.259  0.00  0.00    +0.000 C 
ENDROOT
BRANCH   1   2
ATOM      2  C   UNL     1      45.914   6.032  12.054  0.00  0.00    +0.000 A 
ATOM      3  C   UNL     1      46.097   5.463  13.317  0.00  0.00    +0.000 A 
ATOM      4  C   UNL     1      47.286   5.683  14.029  0.00  0.00    +0.000 A 
ATOM      5  C   UNL     1      48.248   6.497  13.413  0.00  0.00    +0.000 A 
ATOM      6  C   UNL     1      47.992   7.025  12.156  0.00  0.00    +0.000 A 
ATOM      7  N   UNL     1      46.859   6.801  11.460  0.00  0.00    +0.000 NA
BRANCH   4   8
ATOM      8  C   UNL     1      47.522   5.069  15.354  0.00  0.00    +0.000 A 
ATOM      9  C   UNL     1      48.458   5.587  16.262  0.00  0.00    +0.000 A 
ATOM     10  C   UNL     1      48.648   4.996  17.512  0.00  0.00    +0.000 A 
ATOM     11  C   UNL     1      47.886   3.888  17.835  0.00  0.00    +0.000 A 
ATOM     12  N   UNL     1      46.978   3.345  17.006  0.00  0.00    +0.000 NA
ATOM     13  C   UNL     1      46.825   3.940  15.795  0.00  0.00    +0.000 A 
ENDBRANCH   4   8
ENDBRANCH   1   2
BRANCH   1  14
ATOM     14  N   UNL     1      44.998   5.652   9.839  0.00  0.00    +0.000 N 
ATOM     15  H   UNL     1      44.283   6.121   9.284  0.00  0.00    +0.000 HD
BRANCH  14  20
ATOM     16  C   UNL     1      46.161   2.898   7.791  0.00  0.00    +0.000 A 
ATOM     17  C   UNL     1      45.476   1.843   8.376  0.00  0.00    +0.000 A 
ATOM     18  N   UNL     1      44.669   2.001   9.448  0.00  0.00    +0.000 NA
ATOM     19  C   UNL     1      44.565   3.274   9.905  0.00  0.00    +0.000 A 
ATOM     20  C   UNL     1      45.242   4.363   9.349  0.00  0.00    +0.000 A 
ATOM     21  N   UNL     1      46.046   4.174   8.281  0.00  0.00    +0.000 NA
BRANCH  16  23
ATOM     22  F   UNL     1      48.363   2.799   6.826  0.00  0.00    +0.000 F 
ATOM     23  C   UNL     1      47.027   2.630   6.581  0.00  0.00    +0.000 C 
ATOM     24  F   UNL     1      46.748   3.450   5.528  0.00  0.00    +0.000 F 
ATOM     25  F   UNL     1      46.908   1.357   6.109  0.00  0.00    +0.000 F 
ENDBRANCH  16  23
ENDBRANCH  14  20
ENDBRANCH   1  14
TORSDOF 5
ENDMDL
MODEL 6
REMARK VINA RESULT:    -7.830      4.182      7.370
REMARK INTER + INTRA:         -10.424
REMARK INTER:                  -9.794
REMARK INTRA:                  -0.631
REMARK UNBOUND:                -0.305
REMARK  Name = 
REMARK  5 active torsions:
REMARK  status: ('A' for Active; 'I' for Inactive)
REMARK    1  A    between atoms: C_2  and  C_5
REMARK    2  A    between atoms: C_9  and  N_10
REMARK    3  A    between atoms: N_10  and  C_11
REMARK    4  A    between atoms: C_11  and  C_12
REMARK    5  A    between atoms: C_14  and  C_15
REMARK                            x       y       z     vdW  Elec       q    Type
REMARK                         _______ _______ _______ _____ _____    ______ ____
ROOT
ATOM      1  C   UNL     1      45.194   5.411  13.340  0.00  0.00    +0.000 C 
ENDROOT
BRANCH   1   2
ATOM      2  C   UNL     1      44.699   4.363  12.360  0.00  0.00    +0.000 A 
ATOM      3  C   UNL     1      45.320   4.225  11.116  0.00  0.00    +0.000 A 
ATOM      4  C   UNL     1      44.921   3.211  10.232  0.00  0.00    +0.000 A 
ATOM      5  C   UNL     1      43.880   2.375  10.662  0.00  0.00    +0.000 A 
ATOM      6  C   UNL     1      43.314   2.575  11.912  0.00  0.00    +0.000 A 
ATOM      7  N   UNL     1      43.708   3.536  12.773  0.00  0.00    +0.000 NA
BRANCH   4   8
ATOM      8  C   UNL     1      45.580   3.021   8.922  0.00  0.00    +0.000 A 
ATOM      9  C   UNL     1      46.011   1.761   8.478  0.00  0.00    +0.000 A 
ATOM     10  C   UNL     1      46.615   1.608   7.229  0.00  0.00    +0.000 A 
ATOM     11  C   UNL     1      46.774   2.731   6.437  0.00  0.00    +0.000 A 
ATOM     12  N   UNL     1      46.385   3.963   6.809  0.00  0.00    +0.000 NA
ATOM     13  C   UNL     1      45.808   4.076   8.034  0.00  0.00    +0.000 A 
ENDBRANCH   4   8
ENDBRANCH   1   2
BRANCH   1  14
ATOM     14  N   UNL     1      46.624   5.630  13.123  0.00  0.00    +0.000 N 
ATOM     15  H   UNL     1      46.961   5.026  12.375  0.00  0.00    +0.000 HD
BRANCH  14  20
ATOM     16  C   UNL     1      48.018   4.431  16.245  0.00  0.00    +0.000 A 
ATOM     17  C   UNL     1      48.890   5.468  16.545  0.00  0.00    +0.000 A 
ATOM     18  N   UNL     1      49.062   6.535  15.736  0.00  0.00    +0.000 NA
ATOM     19  C   UNL     1      48.308   6.527  14.609  0.00  0.00    +0.000 A 
ATOM     20  C   UNL     1      47.423   5.501  14.265  0.00  0.00    +0.000 A 
ATOM     21  N   UNL     1      47.276   4.445  15.093  0.00  0.00    +0.000 NA
BRANCH  16  23
ATOM     22  F   UNL     1      46.579   2.893  17.408  0.00  0.00    +0.000 F 
ATOM     23  C   UNL     1      47.876   3.285  17.221  0.00  0.00    +0.000 C 
ATOM     24  F   UNL     1      48.346   3.580  18.467  0.00  0.00    +0.000 F 
ATOM     25  F   UNL     1      48.537   2.161  16.826  0.00  0.00    +0.000 F 
ENDBRANCH  16  23
ENDBRANCH  14  20
ENDBRANCH   1  14
TORSDOF 5
ENDMDL
MODEL 7
REMARK VINA RESULT:    -7.808      1.549      2.256
REMARK INTER + INTRA:         -10.396
REMARK INTER:                  -9.732
REMARK INTRA:                  -0.664
REMARK UNBOUND:                -0.305
REMARK  Name = 
REMARK  5 active torsions:
REMARK  status: ('A' for Active; 'I' for Inactive)
REMARK    1  A    between atoms: C_2  and  C_5
REMARK    2  A    between atoms: C_9  and  N_10
REMARK    3  A    between atoms: N_10  and  C_11
REMARK    4  A    between atoms: C_11  and  C_12
REMARK    5  A    between atoms: C_14  and  C_15
REMARK                            x       y       z     vdW  Elec       q    Type
REMARK                         _______ _______ _______ _____ _____    ______ ____
ROOT
ATOM      1  C   UNL     1      43.565   5.669  11.775  0.00  0.00    +0.000 C 
ENDROOT
BRANCH   1   2
ATOM      2  C   UNL     1      44.980   5.704  12.325  0.00  0.00    +0.000 A 
ATOM      3  C   UNL     1      45.855   6.719  11.930  0.00  0.00    +0.000 A 
ATOM      4  C   UNL     1      47.140   6.806  12.487  0.00  0.00    +0.000 A 
ATOM      5  C   UNL     1      47.483   5.829  13.433  0.00  0.00    +0.000 A 
ATOM      6  C   UNL     1      46.558   4.854  13.775  0.00  0.00    +0.000 A 
ATOM      7  N   UNL     1      45.315   4.778  13.256  0.00  0.00    +0.000 NA
BRANCH   4   8
ATOM      8  C   UNL     1      48.077   7.886  12.111  0.00  0.00    +0.000 A 
ATOM      9  C   UNL     1      49.411   7.629  11.759  0.00  0.00    +0.000 A 
ATOM     10  C   UNL     1      50.269   8.668  11.393  0.00  0.00    +0.000 A 
ATOM     11  C   UNL     1      49.769   9.957  11.381  0.00  0.00    +0.000 A 
ATOM     12  N   UNL     1      48.503  10.265  11.712  0.00  0.00    +0.000 NA
ATOM     13  C   UNL     1      47.698   9.231  12.071  0.00  0.00    +0.000 A 
ENDBRANCH   4   8
ENDBRANCH   1   2
BRANCH   1  14
ATOM     14  N   UNL     1      43.622   5.544  10.319  0.00  0.00    +0.000 N 
ATOM     15  H   UNL     1      42.688   5.637   9.923  0.00  0.00    +0.000 HD
BRANCH  14  20
ATOM     16  C   UNL     1      45.670   3.270   8.379  0.00  0.00    +0.000 A 
ATOM     17  C   UNL     1      45.243   2.052   8.887  0.00  0.00    +0.000 A 
ATOM     18  N   UNL     1      44.327   1.953   9.875  0.00  0.00    +0.000 NA
ATOM     19  C   UNL     1      43.842   3.136  10.328  0.00  0.00    +0.000 A 
ATOM     20  C   UNL     1      44.249   4.384   9.848  0.00  0.00    +0.000 A 
ATOM     21  N   UNL     1      45.169   4.452   8.863  0.00  0.00    +0.000 NA
BRANCH  16  23
ATOM     22  F   UNL     1      47.606   2.277   7.354  0.00  0.00    +0.000 F 
ATOM     23  C   UNL     1      46.685   3.284   7.259  0.00  0.00    +0.000 C 
ATOM     24  F   UNL     1      47.414   4.435   7.209  0.00  0.00    +0.000 F 
ATOM     25  F   UNL     1      46.124   3.140   6.025  0.00  0.00    +0.000 F 
ENDBRANCH  16  23
ENDBRANCH  14  20
ENDBRANCH   1  14
TORSDOF 5
ENDMDL
MODEL 8
REMARK VINA RESULT:    -7.662      3.441      6.830
REMARK INTER + INTRA:         -10.207
REMARK INTER:                  -9.468
REMARK INTRA:                  -0.739
REMARK UNBOUND:                -0.305
REMARK  Name = 
REMARK  5 active torsions:
REMARK  status: ('A' for Active; 'I' for Inactive)
REMARK    1  A    between atoms: C_2  and  C_5
REMARK    2  A    between atoms: C_9  and  N_10
REMARK    3  A    between atoms: N_10  and  C_11
REMARK    4  A    between atoms: C_11  and  C_12
REMARK    5  A    between atoms: C_14  and  C_15
REMARK                            x       y       z     vdW  Elec       q    Type
REMARK                         _______ _______ _______ _____ _____    ______ ____
ROOT
ATOM      1  C   UNL     1      43.317   6.217  11.495  0.00  0.00    +0.000 C 
ENDROOT
BRANCH   1   2
ATOM      2  C   UNL     1      43.566   4.768  11.118  0.00  0.00    +0.000 A 
ATOM      3  C   UNL     1      44.355   4.463  10.006  0.00  0.00    +0.000 A 
ATOM      4  C   UNL     1      44.654   3.128   9.692  0.00  0.00    +0.000 A 
ATOM      5  C   UNL     1      44.114   2.147  10.536  0.00  0.00    +0.000 A 
ATOM      6  C   UNL     1      43.340   2.529  11.621  0.00  0.00    +0.000 A 
ATOM      7  N   UNL     1      43.067   3.811  11.939  0.00  0.00    +0.000 NA
BRANCH   4   8
ATOM      8  C   UNL     1      45.512   2.776   8.540  0.00  0.00    +0.000 A 
ATOM      9  C   UNL     1      45.825   3.700   7.531  0.00  0.00    +0.000 A 
ATOM     10  C   UNL     1      46.652   3.344   6.464  0.00  0.00    +0.000 A 
ATOM     11  C   UNL     1      47.159   2.058   6.429  0.00  0.00    +0.000 A 
ATOM     12  N   UNL     1      46.892   1.129   7.364  0.00  0.00    +0.000 NA
ATOM     13  C   UNL     1      46.077   1.507   8.384  0.00  0.00    +0.000 A 
ENDBRANCH   4   8
ENDBRANCH   1   2
BRANCH   1  14
ATOM     14  N   UNL     1      44.295   7.062  10.810  0.00  0.00    +0.000 N 
ATOM     15  H   UNL     1      44.720   6.551  10.038  0.00  0.00    +0.000 HD
BRANCH  14  20
ATOM     16  C   UNL     1      47.036   7.437  13.150  0.00  0.00    +0.000 A 
ATOM     17  C   UNL     1      47.000   8.808  13.362  0.00  0.00    +0.000 A 
ATOM     18  N   UNL     1      46.124   9.621  12.733  0.00  0.00    +0.000 NA
ATOM     19  C   UNL     1      45.270   8.997  11.884  0.00  0.00    +0.000 A 
ATOM     20  C   UNL     1      45.277   7.622  11.637  0.00  0.00    +0.000 A 
ATOM     21  N   UNL     1      46.167   6.834  12.278  0.00  0.00    +0.000 NA
BRANCH  16  23
ATOM     22  F   UNL     1      49.244   6.490  13.278  0.00  0.00    +0.000 F 
ATOM     23  C   UNL     1      48.039   6.602  13.914  0.00  0.00    +0.000 C 
ATOM     24  F   UNL     1      47.622   5.321  14.124  0.00  0.00    +0.000 F 
ATOM     25  F   UNL     1      48.329   7.109  15.146  0.00  0.00    +0.000 F 
ENDBRANCH  16  23
ENDBRANCH  14  20
ENDBRANCH   1  14
TORSDOF 5
ENDMDL
MODEL 9
REMARK VINA RESULT:    -7.287      4.377      7.638
REMARK INTER + INTRA:          -9.722
REMARK INTER:                  -9.046
REMARK INTRA:                  -0.676
REMARK UNBOUND:                -0.305
REMARK  Name = 
REMARK  5 active torsions:
REMARK  status: ('A' for Active; 'I' for Inactive)
REMARK    1  A    between atoms: C_2  and  C_5
REMARK    2  A    between atoms: C_9  and  N_10
REMARK    3  A    between atoms: N_10  and  C_11
REMARK    4  A    between atoms: C_11  and  C_12
REMARK    5  A    between atoms: C_14  and  C_15
REMARK                            x       y       z     vdW  Elec       q    Type
REMARK                         _______ _______ _______ _____ _____    ______ ____
ROOT
ATOM      1  C   UNL     1      48.595   7.197  13.830  0.00  0.00    +0.000 C 
ENDROOT
BRANCH   1   2
ATOM      2  C   UNL     1      47.310   7.270  13.024  0.00  0.00    +0.000 A 
ATOM      3  C   UNL     1      46.961   6.218  12.174  0.00  0.00    +0.000 A 
ATOM      4  C   UNL     1      45.740   6.239  11.482  0.00  0.00    +0.000 A 
ATOM      5  C   UNL     1      44.921   7.359  11.686  0.00  0.00    +0.000 A 
ATOM      6  C   UNL     1      45.336   8.363  12.548  0.00  0.00    +0.000 A 
ATOM      7  N   UNL     1      46.500   8.337  13.230  0.00  0.00    +0.000 NA
BRANCH   4   8
ATOM      8  C   UNL     1      45.329   5.126  10.599  0.00  0.00    +0.000 A 
ATOM      9  C   UNL     1      45.664   5.091   9.236  0.00  0.00    +0.000 A 
ATOM     10  C   UNL     1      45.277   4.019   8.430  0.00  0.00    +0.000 A 
ATOM     11  C   UNL     1      44.558   2.990   9.010  0.00  0.00    +0.000 A 
ATOM     12  N   UNL     1      44.205   2.970  10.307  0.00  0.00    +0.000 NA
ATOM     13  C   UNL     1      44.592   4.033  11.061  0.00  0.00    +0.000 A 
ENDBRANCH   4   8
ENDBRANCH   1   2
BRANCH   1  14
ATOM     14  N   UNL     1      48.308   7.554  15.218  0.00  0.00    +0.000 N 
ATOM     15  H   UNL     1      48.755   8.440  15.451  0.00  0.00    +0.000 HD
BRANCH  14  20
ATOM     16  C   UNL     1      48.579   4.379  16.943  0.00  0.00    +0.000 A 
ATOM     17  C   UNL     1      49.125   4.794  18.149  0.00  0.00    +0.000 A 
ATOM     18  N   UNL     1      49.441   6.082  18.403  0.00  0.00    +0.000 NA
ATOM     19  C   UNL     1      49.173   6.948  17.394  0.00  0.00    +0.000 A 
ATOM     20  C   UNL     1      48.631   6.571  16.162  0.00  0.00    +0.000 A 
ATOM     21  N   UNL     1      48.329   5.275  15.936  0.00  0.00    +0.000 NA
BRANCH  16  23
ATOM     22  F   UNL     1      47.209   2.497  17.549  0.00  0.00    +0.000 F 
ATOM     23  C   UNL     1      48.240   2.918  16.754  0.00  0.00    +0.000 C 
ATOM     24  F   UNL     1      49.279   2.084  17.041  0.00  0.00    +0.000 F 
ATOM     25  F   UNL     1      47.856   2.617  15.481  0.00  0.00    +0.000 F 
ENDBRANCH  16  23
ENDBRANCH  14  20
ENDBRANCH   1  14
TORSDOF 5
ENDMDL
