MODEL 1
REMARK VINA RESULT:    -7.404      0.000      0.000
REMARK INTER + INTRA:         -10.416
REMARK INTER:                  -9.785
REMARK INTRA:                  -0.632
REMARK UNBOUND:                -0.632
REMARK  Name = 
REMARK  9 active torsions:
REMARK  status: ('A' for Active; 'I' for Inactive)
REMARK    1  A    between atoms: C_1  and  C_2
REMARK    2  A    between atoms: C_2  and  C_3
REMARK    3  A    between atoms: C_2  and  C_4
REMARK    4  A    between atoms: C_2  and  C_5
REMARK    5  A    between atoms: N_12  and  C_13
REMARK    6  A    between atoms: C_13  and  C_14
REMARK    7  A    between atoms: C_17  and  C_18
REMARK    8  A    between atoms: C_18  and  C_19
REMARK    9  A    between atoms: C_19  and  N_20
REMARK                            x       y       z     vdW  Elec       q    Type
REMARK                         _______ _______ _______ _____ _____    ______ ____
ROOT
ATOM      1  C   UNL     1      47.414   4.747  15.239  0.00  0.00    +0.000 A 
ATOM      2  C   UNL     1      46.426   3.929  14.680  0.00  0.00    +0.000 A 
ATOM      3  N   UNL     1      45.759   4.129  13.512  0.00  0.00    +0.000 NA
ATOM      4  C   UNL     1      46.133   5.253  12.871  0.00  0.00    +0.000 A 
ATOM      5  C   UNL     1      47.106   6.156  13.284  0.00  0.00    +0.000 A 
ATOM      6  C   UNL     1      47.178   7.176  12.298  0.00  0.00    +0.000 A 
ATOM      7  C   UNL     1      46.243   6.884  11.326  0.00  0.00    +0.000 A 
ATOM      8  N   UNL     1      45.594   5.728  11.698  0.00  0.00    +0.000 N 
ATOM      9  C   UNL     1      47.762   5.893  14.500  0.00  0.00    +0.000 A 
ENDROOT
BRANCH   1  11
ATOM     10  C   UNL     1      49.389   5.263  16.821  0.00  0.00    +0.000 C 
ATOM     11  C   UNL     1      48.098   4.446  16.582  0.00  0.00    +0.000 C 
ATOM     12  C   UNL     1      48.488   2.953  16.645  0.00  0.00    +0.000 C 
ATOM     13  C   UNL     1      47.134   4.764  17.744  0.00  0.00    +0.000 C 
ENDBRANCH   1  11
BRANCH   8  14
ATOM     14  C   UNL     1      44.506   5.104  10.954  0.00  0.00    +0.000 C 
BRANCH  14  15
ATOM     15  C   UNL     1      45.026   4.208   9.862  0.00  0.00    +0.000 A 
ATOM     16  C   UNL     1      45.680   4.725   8.740  0.00  0.00    +0.000 A 
ATOM     17  C   UNL     1      46.223   3.864   7.792  0.00  0.00    +0.000 A 
ATOM     18  C   UNL     1      46.083   2.491   7.967  0.00  0.00    +0.000 A 
ATOM     19  N   UNL     1      45.408   1.966   9.020  0.00  0.00    +0.000 NA
ATOM     20  C   UNL     1      44.903   2.827   9.936  0.00  0.00    +0.000 A 
BRANCH  18  21
ATOM     21  C   UNL     1      46.760   1.531   7.021  0.00  0.00    +0.000 C 
BRANCH  21  22
ATOM     22  C   UNL     1      48.190   1.953   6.679  0.00  0.00    +0.000 C 
BRANCH  22  23
ATOM     23  N   UNL     1      48.384   2.026   5.227  0.00  0.00    +0.000 NA
ATOM     24  H   UNL     1      47.614   2.537   4.800  0.00  0.00    +0.000 HD
ATOM     25  H   UNL     1      48.357   1.085   4.839  0.00  0.00    +0.000 HD
ENDBRANCH  22  23
ENDBRANCH  21  22
ENDBRANCH  18  21
ENDBRANCH  14  15
ENDBRANCH   8  14
TORSDOF 6
ENDMDL
MODEL 2
REMARK VINA RESULT:    -7.140      1.846      3.321
REMARK INTER + INTRA:         -10.067
REMARK INTER:                  -9.384
REMARK INTRA:                  -0.683
REMARK UNBOUND:                -0.632
REMARK  Name = 
REMARK  9 active torsions:
REMARK  status: ('A' for Active; 'I' for Inactive)
REMARK    1  A    between atoms: C_1  and  C_2
REMARK    2  A    between atoms: C_2  and  C_3
REMARK    3  A    between atoms: C_2  and  C_4
REMARK    4  A    between atoms: C_2  and  C_5
REMARK    5  A    between atoms: N_12  and  C_13
REMARK    6  A    between atoms: C_13  and  C_14
REMARK    7  A    between atoms: C_17  and  C_18
REMARK    8  A    between atoms: C_18  and  C_19
REMARK    9  A    between atoms: C_19  and  N_20
REMARK                            x       y       z     vdW  Elec       q    Type
REMARK                         _______ _______ _______ _____ _____    ______ ____
ROOT
ATOM      1  C   UNL     1      48.231   7.919  13.274  0.00  0.00    +0.000 A 
ATOM      2  C   UNL     1      47.295   8.083  12.247  0.00  0.00    +0.000 A 
ATOM      3  N   UNL     1      46.321   7.210  11.878  0.00  0.00    +0.000 NA
ATOM      4  C   UNL     1      46.306   6.085  12.618  0.00  0.00    +0.000 A 
ATOM      5  C   UNL     1      47.151   5.781  13.679  0.00  0.00    +0.000 A 
ATOM      6  C   UNL     1      46.765   4.506  14.172  0.00  0.00    +0.000 A 
ATOM      7  C   UNL     1      45.716   4.059  13.396  0.00  0.00    +0.000 A 
ATOM      8  N   UNL     1      45.462   5.013  12.437  0.00  0.00    +0.000 N 
ATOM      9  C   UNL     1      48.138   6.726  14.014  0.00  0.00    +0.000 A 
ENDROOT
BRANCH   1  11
ATOM     10  C   UNL     1      49.653   9.901  12.425  0.00  0.00    +0.000 C 
ATOM     11  C   UNL     1      49.314   8.959  13.603  0.00  0.00    +0.000 C 
ATOM     12  C   UNL     1      50.622   8.242  14.002  0.00  0.00    +0.000 C 
ATOM     13  C   UNL     1      48.849   9.847  14.777  0.00  0.00    +0.000 C 
ENDBRANCH   1  11
BRANCH   8  14
ATOM     14  C   UNL     1      44.450   4.902  11.394  0.00  0.00    +0.000 C 
BRANCH  14  15
ATOM     15  C   UNL     1      45.011   4.280  10.143  0.00  0.00    +0.000 A 
ATOM     16  C   UNL     1      44.922   2.906   9.904  0.00  0.00    +0.000 A 
ATOM     17  C   UNL     1      45.375   2.377   8.700  0.00  0.00    +0.000 A 
ATOM     18  C   UNL     1      45.936   3.230   7.756  0.00  0.00    +0.000 A 
ATOM     19  N   UNL     1      46.082   4.559   7.984  0.00  0.00    +0.000 NA
ATOM     20  C   UNL     1      45.618   5.050   9.159  0.00  0.00    +0.000 A 
BRANCH  18  21
ATOM     21  C   UNL     1      46.329   2.708   6.396  0.00  0.00    +0.000 C 
BRANCH  21  22
ATOM     22  C   UNL     1      47.336   1.559   6.478  0.00  0.00    +0.000 C 
BRANCH  22  23
ATOM     23  N   UNL     1      48.568   1.887   5.754  0.00  0.00    +0.000 NA
ATOM     24  H   UNL     1      49.154   2.493   6.325  0.00  0.00    +0.000 HD
ATOM     25  H   UNL     1      48.333   2.419   4.917  0.00  0.00    +0.000 HD
ENDBRANCH  22  23
ENDBRANCH  21  22
ENDBRANCH  18  21
ENDBRANCH  14  15
ENDBRANCH   8  14
TORSDOF 6
ENDMDL
MODEL 3
REMARK VINA RESULT:    -7.107      2.599      7.320
REMARK INTER + INTRA:         -10.024
REMARK INTER:                  -9.329
REMARK INTRA:                  -0.695
REMARK UNBOUND:                -0.632
REMARK  Name = 
REMARK  9 active torsions:
REMARK  status: ('A' for Active; 'I' for Inactive)
REMARK    1  A    between atoms: C_1  and  C_2
REMARK    2  A    between atoms: C_2  and  C_3
REMARK    3  A    between atoms: C_2  and  C_4
REMARK    4  A    between atoms: C_2  and  C_5
REMARK    5  A    between atoms: N_12  and  C_13
REMARK    6  A    between atoms: C_13  and  C_14
REMARK    7  A    between atoms: C_17  and  C_18
REMARK    8  A    between atoms: C_18  and  C_19
REMARK    9  A    between atoms: C_19  and  N_20
REMARK                            x       y       z     vdW  Elec       q    Type
REMARK                         _______ _______ _______ _____ _____    ______ ____
ROOT
ATOM      1  C   UNL     1      46.081   2.816   8.023  0.00  0.00    +0.000 A 
ATOM      2  C   UNL     1      46.054   4.213   8.099  0.00  0.00    +0.000 A 
ATOM      3  N   UNL     1      45.366   4.973   8.991  0.00  0.00    +0.000 NA
ATOM      4  C   UNL     1      44.650   4.246   9.870  0.00  0.00    +0.000 A 
ATOM      5  C   UNL     1      44.586   2.859   9.937  0.00  0.00    +0.000 A 
ATOM      6  C   UNL     1      43.729   2.530  11.022  0.00  0.00    +0.000 A 
ATOM      7  C   UNL     1      43.281   3.712  11.573  0.00  0.00    +0.000 A 
ATOM      8  N   UNL     1      43.824   4.749  10.849  0.00  0.00    +0.000 N 
ATOM      9  C   UNL     1      45.322   2.127   8.988  0.00  0.00    +0.000 A 
ENDROOT
BRANCH   1  11
ATOM     10  C   UNL     1      48.344   2.512   6.816  0.00  0.00    +0.000 C 
ATOM     11  C   UNL     1      46.878   2.044   6.960  0.00  0.00    +0.000 C 
ATOM     12  C   UNL     1      46.209   2.218   5.578  0.00  0.00    +0.000 C 
ATOM     13  C   UNL     1      46.911   0.543   7.316  0.00  0.00    +0.000 C 
ENDBRANCH   1  11
BRANCH   8  14
ATOM     14  C   UNL     1      43.565   6.164  11.090  0.00  0.00    +0.000 C 
BRANCH  14  15
ATOM     15  C   UNL     1      44.726   6.828  11.781  0.00  0.00    +0.000 A 
ATOM     16  C   UNL     1      44.928   8.208  11.710  0.00  0.00    +0.000 A 
ATOM     17  C   UNL     1      45.961   8.800  12.431  0.00  0.00    +0.000 A 
ATOM     18  C   UNL     1      46.797   7.995  13.196  0.00  0.00    +0.000 A 
ATOM     19  N   UNL     1      46.656   6.646  13.240  0.00  0.00    +0.000 NA
ATOM     20  C   UNL     1      45.632   6.099  12.541  0.00  0.00    +0.000 A 
BRANCH  18  21
ATOM     21  C   UNL     1      47.851   8.615  14.079  0.00  0.00    +0.000 C 
BRANCH  21  22
ATOM     22  C   UNL     1      48.720   7.570  14.780  0.00  0.00    +0.000 C 
BRANCH  22  23
ATOM     23  N   UNL     1      49.683   6.974  13.847  0.00  0.00    +0.000 NA
ATOM     24  H   UNL     1      49.367   7.112  12.889  0.00  0.00    +0.000 HD
ATOM     25  H   UNL     1      49.715   5.967  13.999  0.00  0.00    +0.000 HD
ENDBRANCH  22  23
ENDBRANCH  21  22
ENDBRANCH  18  21
ENDBRANCH  14  15
ENDBRANCH   8  14
TORSDOF 6
ENDMDL
MODEL 4
REMARK VINA RESULT:    -6.782      1.865      2.643
REMARK INTER + INTRA:          -9.594
REMARK INTER:                  -9.068
REMARK INTRA:                  -0.526
REMARK UNBOUND:                -0.632
REMARK  Name = 
REMARK  9 active torsions:
REMARK  status: ('A' for Active; 'I' for Inactive)
REMARK    1  A    between atoms: C_1  and  C_2
REMARK    2  A    between atoms: C_2  and  C_3
REMARK    3  A    between atoms: C_2  and  C_4
REMARK    4  A    between atoms: C_2  and  C_5
REMARK    5  A    between atoms: N_12  and  C_13
REMARK    6  A    between atoms: C_13  and  C_14
REMARK    7  A    between atoms: C_17  and  C_18
REMARK    8  A    between atoms: C_18  and  C_19
REMARK    9  A    between atoms: C_19  and  N_20
REMARK                            x       y       z     vdW  Elec       q    Type
REMARK                         _______ _______ _______ _____ _____    ______ ____
ROOT
ATOM      1  C   UNL     1      47.642   7.331  13.263  0.00  0.00    +0.000 A 
ATOM      2  C   UNL     1      47.391   5.960  13.149  0.00  0.00    +0.000 A 
ATOM      3  N   UNL     1      46.321   5.368  12.555  0.00  0.00    +0.000 NA
ATOM      4  C   UNL     1      45.442   6.249  12.042  0.00  0.00    +0.000 A 
ATOM      5  C   UNL     1      45.555   7.635  12.058  0.00  0.00    +0.000 A 
ATOM      6  C   UNL     1      44.414   8.157  11.392  0.00  0.00    +0.000 A 
ATOM      7  C   UNL     1      43.631   7.088  11.006  0.00  0.00    +0.000 A 
ATOM      8  N   UNL     1      44.250   5.935  11.430  0.00  0.00    +0.000 N 
ATOM      9  C   UNL     1      46.686   8.187  12.685  0.00  0.00    +0.000 A 
ENDROOT
BRANCH   1  11
ATOM     10  C   UNL     1      48.658   9.324  14.554  0.00  0.00    +0.000 C 
ATOM     11  C   UNL     1      48.876   7.907  13.975  0.00  0.00    +0.000 C 
ATOM     12  C   UNL     1      50.055   7.999  12.982  0.00  0.00    +0.000 C 
ATOM     13  C   UNL     1      49.279   6.991  15.150  0.00  0.00    +0.000 C 
ENDBRANCH   1  11
BRANCH   8  14
ATOM     14  C   UNL     1      43.723   4.588  11.250  0.00  0.00    +0.000 C 
BRANCH  14  15
ATOM     15  C   UNL     1      44.409   3.872  10.117  0.00  0.00    +0.000 A 
ATOM     16  C   UNL     1      45.043   4.571   9.087  0.00  0.00    +0.000 A 
ATOM     17  C   UNL     1      45.740   3.879   8.101  0.00  0.00    +0.000 A 
ATOM     18  C   UNL     1      45.774   2.490   8.147  0.00  0.00    +0.000 A 
ATOM     19  N   UNL     1      45.123   1.786   9.106  0.00  0.00    +0.000 NA
ATOM     20  C   UNL     1      44.465   2.486  10.062  0.00  0.00    +0.000 A 
BRANCH  18  21
ATOM     21  C   UNL     1      46.616   1.717   7.163  0.00  0.00    +0.000 C 
BRANCH  21  22
ATOM     22  C   UNL     1      47.515   2.623   6.320  0.00  0.00    +0.000 C 
BRANCH  22  23
ATOM     23  N   UNL     1      48.608   1.860   5.708  0.00  0.00    +0.000 NA
ATOM     24  H   UNL     1      48.852   2.267   4.807  0.00  0.00    +0.000 HD
ATOM     25  H   UNL     1      48.287   0.912   5.520  0.00  0.00    +0.000 HD
ENDBRANCH  22  23
ENDBRANCH  21  22
ENDBRANCH  18  21
ENDBRANCH  14  15
ENDBRANCH   8  14
TORSDOF 6
ENDMDL
MODEL 5
REMARK VINA RESULT:    -6.064      3.227      8.211
REMARK INTER + INTRA:          -8.645
REMARK INTER:                  -7.761
REMARK INTRA:                  -0.884
REMARK UNBOUND:                -0.632
REMARK  Name = 
REMARK  9 active torsions:
REMARK  status: ('A' for Active; 'I' for Inactive)
REMARK    1  A    between atoms: C_1  and  C_2
REMARK    2  A    between atoms: C_2  and  C_3
REMARK    3  A    between atoms: C_2  and  C_4
REMARK    4  A    between atoms: C_2  and  C_5
REMARK    5  A    between atoms: N_12  and  C_13
REMARK    6  A    between atoms: C_13  and  C_14
REMARK    7  A    between atoms: C_17  and  C_18
REMARK    8  A    between atoms: C_18  and  C_19
REMARK    9  A    between atoms: C_19  and  N_20
REMARK                            x       y       z     vdW  Elec       q    Type
REMARK                         _______ _______ _______ _____ _____    ______ ____
ROOT
ATOM      1  C   UNL     1      45.061   5.208  12.303  0.00  0.00    +0.000 A 
ATOM      2  C   UNL     1      46.104   4.590  13.002  0.00  0.00    +0.000 A 
ATOM      3  N   UNL     1      47.139   5.199  13.640  0.00  0.00    +0.000 NA
ATOM      4  C   UNL     1      47.102   6.542  13.552  0.00  0.00    +0.000 A 
ATOM      5  C   UNL     1      46.130   7.303  12.913  0.00  0.00    +0.000 A 
ATOM      6  C   UNL     1      46.483   8.668  13.088  0.00  0.00    +0.000 A 
ATOM      7  C   UNL     1      47.660   8.706  13.806  0.00  0.00    +0.000 A 
ATOM      8  N   UNL     1      48.043   7.408  14.060  0.00  0.00    +0.000 N 
ATOM      9  C   UNL     1      45.083   6.615  12.273  0.00  0.00    +0.000 A 
ENDROOT
BRANCH   1  11
ATOM     10  C   UNL     1      43.748   2.991  12.126  0.00  0.00    +0.000 C 
ATOM     11  C   UNL     1      43.942   4.430  11.593  0.00  0.00    +0.000 C 
ATOM     12  C   UNL     1      44.261   4.316  10.087  0.00  0.00    +0.000 C 
ATOM     13  C   UNL     1      42.598   5.167  11.769  0.00  0.00    +0.000 C 
ENDBRANCH   1  11
BRANCH   8  14
ATOM     14  C   UNL     1      49.258   7.017  14.764  0.00  0.00    +0.000 C 
BRANCH  14  15
ATOM     15  C   UNL     1      48.988   6.739  16.219  0.00  0.00    +0.000 A 
ATOM     16  C   UNL     1      48.701   7.767  17.120  0.00  0.00    +0.000 A 
ATOM     17  C   UNL     1      48.372   7.467  18.439  0.00  0.00    +0.000 A 
ATOM     18  C   UNL     1      48.358   6.138  18.846  0.00  0.00    +0.000 A 
ATOM     19  N   UNL     1      48.684   5.125  18.004  0.00  0.00    +0.000 NA
ATOM     20  C   UNL     1      48.985   5.445  16.722  0.00  0.00    +0.000 A 
BRANCH  18  21
ATOM     21  C   UNL     1      47.894   5.772  20.233  0.00  0.00    +0.000 C 
BRANCH  21  22
ATOM     22  C   UNL     1      48.732   4.655  20.857  0.00  0.00    +0.000 C 
BRANCH  22  23
ATOM     23  N   UNL     1      48.361   3.347  20.306  0.00  0.00    +0.000 NA
ATOM     24  H   UNL     1      49.175   2.734  20.292  0.00  0.00    +0.000 HD
ATOM     25  H   UNL     1      48.071   3.464  19.337  0.00  0.00    +0.000 HD
ENDBRANCH  22  23
ENDBRANCH  21  22
ENDBRANCH  18  21
ENDBRANCH  14  15
ENDBRANCH   8  14
TORSDOF 6
ENDMDL
MODEL 6
REMARK VINA RESULT:    -5.941      3.013      7.749
REMARK INTER + INTRA:          -8.482
REMARK INTER:                  -8.019
REMARK INTRA:                  -0.463
REMARK UNBOUND:                -0.632
REMARK  Name = 
REMARK  9 active torsions:
REMARK  status: ('A' for Active; 'I' for Inactive)
REMARK    1  A    between atoms: C_1  and  C_2
REMARK    2  A    between atoms: C_2  and  C_3
REMARK    3  A    between atoms: C_2  and  C_4
REMARK    4  A    between atoms: C_2  and  C_5
REMARK    5  A    between atoms: N_12  and  C_13
REMARK    6  A    between atoms: C_13  and  C_14
REMARK    7  A    between atoms: C_17  and  C_18
REMARK    8  A    between atoms: C_18  and  C_19
REMARK    9  A    between atoms: C_19  and  N_20
REMARK                            x       y       z     vdW  Elec       q    Type
REMARK                         _______ _______ _______ _____ _____    ______ ____
ROOT
ATOM      1  C   UNL     1      45.563   4.699  11.810  0.00  0.00    +0.000 A 
ATOM      2  C   UNL     1      45.334   3.829  12.882  0.00  0.00    +0.000 A 
ATOM      3  N   UNL     1      45.906   3.878  14.115  0.00  0.00    +0.000 NA
ATOM      4  C   UNL     1      46.779   4.894  14.257  0.00  0.00    +0.000 A 
ATOM      5  C   UNL     1      47.101   5.848  13.299  0.00  0.00    +0.000 A 
ATOM      6  C   UNL     1      48.046   6.731  13.886  0.00  0.00    +0.000 A 
ATOM      7  C   UNL     1      48.290   6.288  15.169  0.00  0.00    +0.000 A 
ATOM      8  N   UNL     1      47.536   5.155  15.376  0.00  0.00    +0.000 N 
ATOM      9  C   UNL     1      46.475   5.746  12.043  0.00  0.00    +0.000 A 
ENDROOT
BRANCH   1  11
ATOM     10  C   UNL     1      43.438   5.103  10.399  0.00  0.00    +0.000 C 
ATOM     11  C   UNL     1      44.881   4.548  10.441  0.00  0.00    +0.000 C 
ATOM     12  C   UNL     1      44.804   3.054  10.058  0.00  0.00    +0.000 C 
ATOM     13  C   UNL     1      45.692   5.301   9.366  0.00  0.00    +0.000 C 
ENDBRANCH   1  11
BRANCH   8  14
ATOM     14  C   UNL     1      47.538   4.360  16.598  0.00  0.00    +0.000 C 
BRANCH  14  15
ATOM     15  C   UNL     1      48.902   3.788  16.882  0.00  0.00    +0.000 A 
ATOM     16  C   UNL     1      49.915   4.559  17.456  0.00  0.00    +0.000 A 
ATOM     17  C   UNL     1      51.135   3.976  17.783  0.00  0.00    +0.000 A 
ATOM     18  C   UNL     1      51.335   2.628  17.507  0.00  0.00    +0.000 A 
ATOM     19  N   UNL     1      50.387   1.869  16.902  0.00  0.00    +0.000 NA
ATOM     20  C   UNL     1      49.203   2.459  16.609  0.00  0.00    +0.000 A 
BRANCH  18  21
ATOM     21  C   UNL     1      52.600   1.939  17.955  0.00  0.00    +0.000 C 
BRANCH  21  22
ATOM     22  C   UNL     1      52.549   0.425  17.746  0.00  0.00    +0.000 C 
BRANCH  22  23
ATOM     23  N   UNL     1      53.601  -0.015  16.823  0.00  0.00    +0.000 NA
ATOM     24  H   UNL     1      54.438  -0.265  17.346  0.00  0.00    +0.000 HD
ATOM     25  H   UNL     1      53.860   0.762  16.218  0.00  0.00    +0.000 HD
ENDBRANCH  22  23
ENDBRANCH  21  22
ENDBRANCH  18  21
ENDBRANCH  14  15
ENDBRANCH   8  14
TORSDOF 6
ENDMDL
MODEL 7
REMARK VINA RESULT:    -5.828      2.845      4.647
REMARK INTER + INTRA:          -8.333
REMARK INTER:                  -7.809
REMARK INTRA:                  -0.524
REMARK UNBOUND:                -0.632
REMARK  Name = 
REMARK  9 active torsions:
REMARK  status: ('A' for Active; 'I' for Inactive)
REMARK    1  A    between atoms: C_1  and  C_2
REMARK    2  A    between atoms: C_2  and  C_3
REMARK    3  A    between atoms: C_2  and  C_4
REMARK    4  A    between atoms: C_2  and  C_5
REMARK    5  A    between atoms: N_12  and  C_13
REMARK    6  A    between atoms: C_13  and  C_14
REMARK    7  A    between atoms: C_17  and  C_18
REMARK    8  A    between atoms: C_18  and  C_19
REMARK    9  A    between atoms: C_19  and  N_20
REMARK                            x       y       z     vdW  Elec       q    Type
REMARK                         _______ _______ _______ _____ _____    ______ ____
ROOT
ATOM      1  C   UNL     1      49.825   8.845  11.750  0.00  0.00    +0.000 A 
ATOM      2  C   UNL     1      49.661   7.492  12.062  0.00  0.00    +0.000 A 
ATOM      3  N   UNL     1      48.502   6.859  12.387  0.00  0.00    +0.000 NA
ATOM      4  C   UNL     1      47.432   7.676  12.392  0.00  0.00    +0.000 A 
ATOM      5  C   UNL     1      47.427   9.033  12.089  0.00  0.00    +0.000 A 
ATOM      6  C   UNL     1      46.084   9.484  12.207  0.00  0.00    +0.000 A 
ATOM      7  C   UNL     1      45.314   8.406  12.593  0.00  0.00    +0.000 A 
ATOM      8  N   UNL     1      46.147   7.319  12.730  0.00  0.00    +0.000 N 
ATOM      9  C   UNL     1      48.656   9.630  11.759  0.00  0.00    +0.000 A 
ENDROOT
BRANCH   1  11
ATOM     10  C   UNL     1      52.131   8.539  10.628  0.00  0.00    +0.000 C 
ATOM     11  C   UNL     1      51.186   9.476  11.415  0.00  0.00    +0.000 C 
ATOM     12  C   UNL     1      51.916   9.864  12.720  0.00  0.00    +0.000 C 
ATOM     13  C   UNL     1      50.980  10.742  10.558  0.00  0.00    +0.000 C 
ENDBRANCH   1  11
BRANCH   8  14
ATOM     14  C   UNL     1      45.725   5.992  13.162  0.00  0.00    +0.000 C 
BRANCH  14  15
ATOM     15  C   UNL     1      45.358   5.121  11.990  0.00  0.00    +0.000 A 
ATOM     16  C   UNL     1      45.486   5.571  10.674  0.00  0.00    +0.000 A 
ATOM     17  C   UNL     1      45.219   4.710   9.614  0.00  0.00    +0.000 A 
ATOM     18  C   UNL     1      44.801   3.412   9.886  0.00  0.00    +0.000 A 
ATOM     19  N   UNL     1      44.618   2.967  11.154  0.00  0.00    +0.000 NA
ATOM     20  C   UNL     1      44.901   3.821  12.167  0.00  0.00    +0.000 A 
BRANCH  18  21
ATOM     21  C   UNL     1      44.616   2.421   8.764  0.00  0.00    +0.000 C 
BRANCH  21  22
ATOM     22  C   UNL     1      45.879   1.603   8.490  0.00  0.00    +0.000 C 
BRANCH  22  23
ATOM     23  N   UNL     1      46.671   2.202   7.410  0.00  0.00    +0.000 NA
ATOM     24  H   UNL     1      46.065   2.438   6.627  0.00  0.00    +0.000 HD
ATOM     25  H   UNL     1      47.336   1.513   7.063  0.00  0.00    +0.000 HD
ENDBRANCH  22  23
ENDBRANCH  21  22
ENDBRANCH  18  21
ENDBRANCH  14  15
ENDBRANCH   8  14
TORSDOF 6
ENDMDL
MODEL 8
REMARK VINA RESULT:    -5.434      3.134      7.529
REMARK INTER + INTRA:          -7.813
REMARK INTER:                  -7.146
REMARK INTRA:                  -0.667
REMARK UNBOUND:                -0.632
REMARK  Name = 
REMARK  9 active torsions:
REMARK  status: ('A' for Active; 'I' for Inactive)
REMARK    1  A    between atoms: C_1  and  C_2
REMARK    2  A    between atoms: C_2  and  C_3
REMARK    3  A    between atoms: C_2  and  C_4
REMARK    4  A    between atoms: C_2  and  C_5
REMARK    5  A    between atoms: N_12  and  C_13
REMARK    6  A    between atoms: C_13  and  C_14
REMARK    7  A    between atoms: C_17  and  C_18
REMARK    8  A    between atoms: C_18  and  C_19
REMARK    9  A    between atoms: C_19  and  N_20
REMARK                            x       y       z     vdW  Elec       q    Type
REMARK                         _______ _______ _______ _____ _____    ______ ____
ROOT
ATOM      1  C   UNL     1      45.743   5.496  11.587  0.00  0.00    +0.000 A 
ATOM      2  C   UNL     1      45.546   5.557  12.970  0.00  0.00    +0.000 A 
ATOM      3  N   UNL     1      46.296   6.240  13.876  0.00  0.00    +0.000 NA
ATOM      4  C   UNL     1      47.324   6.909  13.320  0.00  0.00    +0.000 A 
ATOM      5  C   UNL     1      47.641   6.964  11.968  0.00  0.00    +0.000 A 
ATOM      6  C   UNL     1      48.786   7.794  11.838  0.00  0.00    +0.000 A 
ATOM      7  C   UNL     1      49.148   8.207  13.104  0.00  0.00    +0.000 A 
ATOM      8  N   UNL     1      48.269   7.642  14.000  0.00  0.00    +0.000 N 
ATOM      9  C   UNL     1      46.827   6.237  11.080  0.00  0.00    +0.000 A 
ENDROOT
BRANCH   1  11
ATOM     10  C   UNL     1      44.799   3.168  10.985  0.00  0.00    +0.000 C 
ATOM     11  C   UNL     1      44.850   4.675  10.643  0.00  0.00    +0.000 C 
ATOM     12  C   UNL     1      45.374   4.793   9.195  0.00  0.00    +0.000 C 
ATOM     13  C   UNL     1      43.402   5.205  10.698  0.00  0.00    +0.000 C 
ENDBRANCH   1  11
BRANCH   8  14
ATOM     14  C   UNL     1      48.333   7.803  15.448  0.00  0.00    +0.000 C 
BRANCH  14  15
ATOM     15  C   UNL     1      49.050   6.651  16.101  0.00  0.00    +0.000 A 
ATOM     16  C   UNL     1      48.360   5.528  16.564  0.00  0.00    +0.000 A 
ATOM     17  C   UNL     1      49.062   4.445  17.084  0.00  0.00    +0.000 A 
ATOM     18  C   UNL     1      50.449   4.510  17.157  0.00  0.00    +0.000 A 
ATOM     19  N   UNL     1      51.138   5.610  16.762  0.00  0.00    +0.000 NA
ATOM     20  C   UNL     1      50.431   6.643  16.246  0.00  0.00    +0.000 A 
BRANCH  18  21
ATOM     21  C   UNL     1      51.245   3.310  17.606  0.00  0.00    +0.000 C 
BRANCH  21  22
ATOM     22  C   UNL     1      50.518   1.991  17.340  0.00  0.00    +0.000 C 
BRANCH  22  23
ATOM     23  N   UNL     1      51.356   0.845  17.707  0.00  0.00    +0.000 NA
ATOM     24  H   UNL     1      52.060   1.133  18.383  0.00  0.00    +0.000 HD
ATOM     25  H   UNL     1      51.862   0.524  16.882  0.00  0.00    +0.000 HD
ENDBRANCH  22  23
ENDBRANCH  21  22
ENDBRANCH  18  21
ENDBRANCH  14  15
ENDBRANCH   8  14
TORSDOF 6
ENDMDL
MODEL 9
REMARK VINA RESULT:    -5.117      3.677      5.804
REMARK INTER + INTRA:          -7.394
REMARK INTER:                  -7.074
REMARK INTRA:                  -0.320
REMARK UNBOUND:                -0.632
REMARK  Name = 
REMARK  9 active torsions:
REMARK  status: ('A' for Active; 'I' for Inactive)
REMARK    1  A    between atoms: C_1  and  C_2
REMARK    2  A    between atoms: C_2  and  C_3
REMARK    3  A    between atoms: C_2  and  C_4
REMARK    4  A    between atoms: C_2  and  C_5
REMARK    5  A    between atoms: N_12  and  C_13
REMARK    6  A    between atoms: C_13  and  C_14
REMARK    7  A    between atoms: C_17  and  C_18
REMARK    8  A    between atoms: C_18  and  C_19
REMARK    9  A    between atoms: C_19  and  N_20
REMARK                            x       y       z     vdW  Elec       q    Type
REMARK                         _______ _______ _______ _____ _____    ______ ____
ROOT
ATOM      1  C   UNL     1      48.113   4.696  16.373  0.00  0.00    +0.000 A 
ATOM      2  C   UNL     1      48.634   5.904  15.898  0.00  0.00    +0.000 A 
ATOM      3  N   UNL     1      48.329   6.526  14.728  0.00  0.00    +0.000 NA
ATOM      4  C   UNL     1      47.423   5.857  13.990  0.00  0.00    +0.000 A 
ATOM      5  C   UNL     1      46.801   4.661  14.329  0.00  0.00    +0.000 A 
ATOM      6  C   UNL     1      45.913   4.334  13.269  0.00  0.00    +0.000 A 
ATOM      7  C   UNL     1      46.027   5.320  12.310  0.00  0.00    +0.000 A 
ATOM      8  N   UNL     1      46.967   6.226  12.745  0.00  0.00    +0.000 N 
ATOM      9  C   UNL     1      47.157   4.067  15.553  0.00  0.00    +0.000 A 
ENDROOT
BRANCH   1  11
ATOM     10  C   UNL     1      50.020   3.621  17.744  0.00  0.00    +0.000 C 
ATOM     11  C   UNL     1      48.538   4.059  17.705  0.00  0.00    +0.000 C 
ATOM     12  C   UNL     1      47.686   2.800  17.977  0.00  0.00    +0.000 C 
ATOM     13  C   UNL     1      48.329   5.065  18.857  0.00  0.00    +0.000 C 
ENDBRANCH   1  11
BRANCH   8  14
ATOM     14  C   UNL     1      47.405   7.399  11.999  0.00  0.00    +0.000 C 
BRANCH  14  15
ATOM     15  C   UNL     1      46.293   8.402  11.842  0.00  0.00    +0.000 A 
ATOM     16  C   UNL     1      46.487   9.758  12.111  0.00  0.00    +0.000 A 
ATOM     17  C   UNL     1      45.463  10.670  11.874  0.00  0.00    +0.000 A 
ATOM     18  C   UNL     1      44.244  10.205  11.392  0.00  0.00    +0.000 A 
ATOM     19  N   UNL     1      44.013   8.887  11.172  0.00  0.00    +0.000 NA
ATOM     20  C   UNL     1      45.033   8.024  11.396  0.00  0.00    +0.000 A 
BRANCH  18  21
ATOM     21  C   UNL     1      43.155  11.178  11.015  0.00  0.00    +0.000 C 
BRANCH  21  22
ATOM     22  C   UNL     1      41.826  10.868  11.705  0.00  0.00    +0.000 C 
BRANCH  22  23
ATOM     23  N   UNL     1      41.187   9.689  11.113  0.00  0.00    +0.000 NA
ATOM     24  H   UNL     1      41.106   9.808  10.104  0.00  0.00    +0.000 HD
ATOM     25  H   UNL     1      40.236   9.609  11.470  0.00  0.00    +0.000 HD
ENDBRANCH  22  23
ENDBRANCH  21  22
ENDBRANCH  18  21
ENDBRANCH  14  15
ENDBRANCH   8  14
TORSDOF 6
ENDMDL
