MODEL 1
REMARK VINA RESULT:    -6.997      0.000      0.000
REMARK INTER + INTRA:         -10.851
REMARK INTER:                  -9.861
REMARK INTRA:                  -0.991
REMARK UNBOUND:                -0.991
REMARK  Name = 
REMARK  7 active torsions:
REMARK  status: ('A' for Active; 'I' for Inactive)
REMARK    1  A    between atoms: C_2  and  C_3
REMARK    2  A    between atoms: C_6  and  C_7
REMARK    3  A    between atoms: N_9  and  C_10
REMARK    4  A    between atoms: C_10  and  C_11
REMARK    5  A    between atoms: C_14  and  C_15
REMARK    6  A    between atoms: C_15  and  N_16
REMARK    7  A    between atoms: C_17  and  C_19
REMARK                            x       y       z     vdW  Elec       q    Type
REMARK                         _______ _______ _______ _____ _____    ______ ____
ROOT
ATOM      1  C   UNL     1      44.813   6.545  11.604  0.00  0.00    +0.000 A 
ATOM      2  C   UNL     1      44.716   7.936  11.748  0.00  0.00    +0.000 A 
ATOM      3  C   UNL     1      45.643   8.642  12.529  0.00  0.00    +0.000 A 
ATOM      4  C   UNL     1      46.699   7.974  13.165  0.00  0.00    +0.000 A 
ATOM      5  C   UNL     1      46.782   6.582  13.034  0.00  0.00    +0.000 A 
ATOM      6  C   UNL     1      45.859   5.877  12.253  0.00  0.00    +0.000 A 
ENDROOT
BRANCH   1   7
ATOM      7  C   UNL     1      43.819   5.781  10.765  0.00  0.00    +0.000 C 
BRANCH   7  10
ATOM      8  C   UNL     1      44.139   3.493   9.937  0.00  0.00    +0.000 C 
ATOM      9  O   UNL     1      43.344   3.031  10.749  0.00  0.00    +0.000 OA
ATOM     10  N   UNL     1      44.460   4.832   9.882  0.00  0.00    +0.000 N 
ATOM     11  H   UNL     1      45.130   5.175   9.206  0.00  0.00    +0.000 HD
BRANCH   8  15
ATOM     12  C   UNL     1      46.846   2.120   7.667  0.00  0.00    +0.000 C 
ATOM     13  C   UNL     1      45.938   2.876   6.693  0.00  0.00    +0.000 C 
ATOM     14  C   UNL     1      44.645   3.199   7.454  0.00  0.00    +0.000 C 
ATOM     15  C   UNL     1      44.819   2.643   8.869  0.00  0.00    +0.000 C 
ATOM     16  C   UNL     1      46.340   2.553   9.041  0.00  0.00    +0.000 C 
BRANCH  12  18
ATOM     17  N   UNL     1      46.636  -0.487   7.348  0.00  0.00    +0.000 NA
ATOM     18  C   UNL     1      46.733   0.659   7.483  0.00  0.00    +0.000 C 
ENDBRANCH  12  18
ENDBRANCH   8  15
ENDBRANCH   7  10
ENDBRANCH   1   7
BRANCH   4  19
ATOM     19  C   UNL     1      47.717   8.722  13.991  0.00  0.00    +0.000 C 
BRANCH  19  20
ATOM     20  N   UNL     1      47.953   8.081  15.257  0.00  0.00    +0.000 N 
ATOM     21  C   UNL     1      49.020   7.234  15.444  0.00  0.00    +0.000 C 
ATOM     22  O   UNL     1      49.848   7.022  14.564  0.00  0.00    +0.000 OA
ATOM     23  H   UNL     1      47.167   8.026  15.896  0.00  0.00    +0.000 HD
BRANCH  21  24
ATOM     24  C   UNL     1      49.153   6.644  16.783  0.00  0.00    +0.000 A 
ATOM     25  C   UNL     1      49.757   7.366  17.804  0.00  0.00    +0.000 A 
ATOM     26  S   UNL     1      49.780   6.543  19.300  0.00  0.00    +0.000 S 
ATOM     27  C   UNL     1      49.030   5.174  18.621  0.00  0.00    +0.000 A 
ATOM     28  N   UNL     1      48.777   4.069  19.372  0.00  0.00    +0.000 NA
ATOM     29  C   UNL     1      48.229   3.096  18.722  0.00  0.00    +0.000 A 
ATOM     30  N   UNL     1      47.906   3.130  17.391  0.00  0.00    +0.000 N 
ATOM     31  C   UNL     1      48.119   4.234  16.600  0.00  0.00    +0.000 A 
ATOM     32  O   UNL     1      47.778   4.247  15.422  0.00  0.00    +0.000 OA
ATOM     33  C   UNL     1      48.746   5.350  17.279  0.00  0.00    +0.000 A 
ATOM     34  H   UNL     1      47.468   2.340  16.942  0.00  0.00    +0.000 HD
ENDBRANCH  21  24
ENDBRANCH  19  20
ENDBRANCH   4  19
TORSDOF 7
ENDMDL
MODEL 2
REMARK VINA RESULT:    -6.868      4.989     10.028
REMARK INTER + INTRA:         -10.670
REMARK INTER:                  -9.651
REMARK INTRA:                  -1.019
REMARK UNBOUND:                -0.991
REMARK  Name = 
REMARK  7 active torsions:
REMARK  status: ('A' for Active; 'I' for Inactive)
REMARK    1  A    between atoms: C_2  and  C_3
REMARK    2  A    between atoms: C_6  and  C_7
REMARK    3  A    between atoms: N_9  and  C_10
REMARK    4  A    between atoms: C_10  and  C_11
REMARK    5  A    between atoms: C_14  and  C_15
REMARK    6  A    between atoms: C_15  and  N_16
REMARK    7  A    between atoms: C_17  and  C_19
REMARK                            x       y       z     vdW  Elec       q    Type
REMARK                         _______ _______ _______ _____ _____    ______ ____
ROOT
ATOM      1  C   UNL     1      51.411   3.260  17.796  0.00  0.00    +0.000 A 
ATOM      2  C   UNL     1      50.676   4.437  18.003  0.00  0.00    +0.000 A 
ATOM      3  C   UNL     1      49.310   4.492  17.695  0.00  0.00    +0.000 A 
ATOM      4  C   UNL     1      48.643   3.366  17.191  0.00  0.00    +0.000 A 
ATOM      5  C   UNL     1      49.384   2.198  16.968  0.00  0.00    +0.000 A 
ATOM      6  C   UNL     1      50.747   2.141  17.279  0.00  0.00    +0.000 A 
ENDROOT
BRANCH   1   7
ATOM      7  C   UNL     1      52.881   3.195  18.127  0.00  0.00    +0.000 C 
BRANCH   7  10
ATOM      8  C   UNL     1      54.413   1.326  17.698  0.00  0.00    +0.000 C 
ATOM      9  O   UNL     1      55.020   1.952  16.835  0.00  0.00    +0.000 OA
ATOM     10  N   UNL     1      53.329   1.841  18.374  0.00  0.00    +0.000 N 
ATOM     11  H   UNL     1      52.845   1.291  19.070  0.00  0.00    +0.000 HD
BRANCH   8  15
ATOM     12  C   UNL     1      54.251  -2.064  19.386  0.00  0.00    +0.000 C 
ATOM     13  C   UNL     1      55.315  -1.327  20.204  0.00  0.00    +0.000 C 
ATOM     14  C   UNL     1      55.688  -0.066  19.413  0.00  0.00    +0.000 C 
ATOM     15  C   UNL     1      54.825  -0.071  18.150  0.00  0.00    +0.000 C 
ATOM     16  C   UNL     1      53.636  -0.963  18.524  0.00  0.00    +0.000 C 
BRANCH  12  18
ATOM     17  N   UNL     1      55.312  -3.965  17.903  0.00  0.00    +0.000 NA
ATOM     18  C   UNL     1      54.852  -3.129  18.558  0.00  0.00    +0.000 C 
ENDBRANCH  12  18
ENDBRANCH   8  15
ENDBRANCH   7  10
ENDBRANCH   1   7
BRANCH   4  19
ATOM     19  C   UNL     1      47.168   3.404  16.874  0.00  0.00    +0.000 C 
BRANCH  19  20
ATOM     20  N   UNL     1      46.856   4.417  15.900  0.00  0.00    +0.000 N 
ATOM     21  C   UNL     1      46.957   4.168  14.551  0.00  0.00    +0.000 C 
ATOM     22  O   UNL     1      47.267   3.066  14.112  0.00  0.00    +0.000 OA
ATOM     23  H   UNL     1      46.859   5.378  16.222  0.00  0.00    +0.000 HD
BRANCH  21  24
ATOM     24  C   UNL     1      46.610   5.282  13.659  0.00  0.00    +0.000 A 
ATOM     25  C   UNL     1      47.530   6.295  13.421  0.00  0.00    +0.000 A 
ATOM     26  S   UNL     1      46.974   7.477  12.321  0.00  0.00    +0.000 S 
ATOM     27  C   UNL     1      45.466   6.703  12.166  0.00  0.00    +0.000 A 
ATOM     28  N   UNL     1      44.490   7.222  11.374  0.00  0.00    +0.000 NA
ATOM     29  C   UNL     1      43.389   6.546  11.371  0.00  0.00    +0.000 A 
ATOM     30  N   UNL     1      43.178   5.395  12.084  0.00  0.00    +0.000 N 
ATOM     31  C   UNL     1      44.144   4.819  12.875  0.00  0.00    +0.000 A 
ATOM     32  O   UNL     1      43.937   3.764  13.464  0.00  0.00    +0.000 OA
ATOM     33  C   UNL     1      45.395   5.548  12.923  0.00  0.00    +0.000 A 
ATOM     34  H   UNL     1      42.298   4.905  12.030  0.00  0.00    +0.000 HD
ENDBRANCH  21  24
ENDBRANCH  19  20
ENDBRANCH   4  19
TORSDOF 7
ENDMDL
MODEL 3
REMARK VINA RESULT:    -6.705      5.393      8.104
REMARK INTER + INTRA:         -10.440
REMARK INTER:                  -9.399
REMARK INTRA:                  -1.041
REMARK UNBOUND:                -0.991
REMARK  Name = 
REMARK  7 active torsions:
REMARK  status: ('A' for Active; 'I' for Inactive)
REMARK    1  A    between atoms: C_2  and  C_3
REMARK    2  A    between atoms: C_6  and  C_7
REMARK    3  A    between atoms: N_9  and  C_10
REMARK    4  A    between atoms: C_10  and  C_11
REMARK    5  A    between atoms: C_14  and  C_15
REMARK    6  A    between atoms: C_15  and  N_16
REMARK    7  A    between atoms: C_17  and  C_19
REMARK                            x       y       z     vdW  Elec       q    Type
REMARK                         _______ _______ _______ _____ _____    ______ ____
ROOT
ATOM      1  C   UNL     1      50.470   8.993  11.376  0.00  0.00    +0.000 A 
ATOM      2  C   UNL     1      49.977   7.680  11.385  0.00  0.00    +0.000 A 
ATOM      3  C   UNL     1      48.675   7.406  11.828  0.00  0.00    +0.000 A 
ATOM      4  C   UNL     1      47.831   8.442  12.252  0.00  0.00    +0.000 A 
ATOM      5  C   UNL     1      48.332   9.750  12.259  0.00  0.00    +0.000 A 
ATOM      6  C   UNL     1      49.631  10.025  11.815  0.00  0.00    +0.000 A 
ENDROOT
BRANCH   1   7
ATOM      7  C   UNL     1      51.870   9.293  10.901  0.00  0.00    +0.000 C 
BRANCH   7  10
ATOM      8  C   UNL     1      53.168   8.612   8.932  0.00  0.00    +0.000 C 
ATOM      9  O   UNL     1      53.445   9.772   8.648  0.00  0.00    +0.000 OA
ATOM     10  N   UNL     1      52.377   8.273  10.009  0.00  0.00    +0.000 N 
ATOM     11  H   UNL     1      52.160   7.305  10.206  0.00  0.00    +0.000 HD
BRANCH   8  15
ATOM     12  C   UNL     1      53.446   5.099   7.536  0.00  0.00    +0.000 C 
ATOM     13  C   UNL     1      54.602   5.159   8.537  0.00  0.00    +0.000 C 
ATOM     14  C   UNL     1      54.778   6.634   8.923  0.00  0.00    +0.000 C 
ATOM     15  C   UNL     1      53.712   7.418   8.156  0.00  0.00    +0.000 C 
ATOM     16  C   UNL     1      52.645   6.364   7.837  0.00  0.00    +0.000 C 
BRANCH  12  18
ATOM     17  N   UNL     1      54.319   5.090   5.050  0.00  0.00    +0.000 NA
ATOM     18  C   UNL     1      53.940   5.090   6.144  0.00  0.00    +0.000 C 
ENDBRANCH  12  18
ENDBRANCH   8  15
ENDBRANCH   7  10
ENDBRANCH   1   7
BRANCH   4  19
ATOM     19  C   UNL     1      46.419   8.166  12.710  0.00  0.00    +0.000 C 
BRANCH  19  20
ATOM     20  N   UNL     1      46.003   6.828  12.381  0.00  0.00    +0.000 N 
ATOM     21  C   UNL     1      44.830   6.588  11.707  0.00  0.00    +0.000 C 
ATOM     22  O   UNL     1      44.107   7.496  11.309  0.00  0.00    +0.000 OA
ATOM     23  H   UNL     1      46.426   6.074  12.912  0.00  0.00    +0.000 HD
BRANCH  21  24
ATOM     24  C   UNL     1      44.517   5.179  11.429  0.00  0.00    +0.000 A 
ATOM     25  C   UNL     1      43.777   4.438  12.341  0.00  0.00    +0.000 A 
ATOM     26  S   UNL     1      43.468   2.839  11.831  0.00  0.00    +0.000 S 
ATOM     27  C   UNL     1      44.357   3.067  10.397  0.00  0.00    +0.000 A 
ATOM     28  N   UNL     1      44.514   2.055   9.501  0.00  0.00    +0.000 NA
ATOM     29  C   UNL     1      45.233   2.360   8.472  0.00  0.00    +0.000 A 
ATOM     30  N   UNL     1      45.805   3.586   8.255  0.00  0.00    +0.000 N 
ATOM     31  C   UNL     1      45.651   4.645   9.118  0.00  0.00    +0.000 A 
ATOM     32  O   UNL     1      46.139   5.742   8.871  0.00  0.00    +0.000 OA
ATOM     33  C   UNL     1      44.863   4.350  10.298  0.00  0.00    +0.000 A 
ATOM     34  H   UNL     1      46.347   3.766   7.424  0.00  0.00    +0.000 HD
ENDBRANCH  21  24
ENDBRANCH  19  20
ENDBRANCH   4  19
TORSDOF 7
ENDMDL
MODEL 4
REMARK VINA RESULT:    -6.633      3.257      9.079
REMARK INTER + INTRA:         -10.339
REMARK INTER:                  -9.198
REMARK INTRA:                  -1.141
REMARK UNBOUND:                -0.991
REMARK  Name = 
REMARK  7 active torsions:
REMARK  status: ('A' for Active; 'I' for Inactive)
REMARK    1  A    between atoms: C_2  and  C_3
REMARK    2  A    between atoms: C_6  and  C_7
REMARK    3  A    between atoms: N_9  and  C_10
REMARK    4  A    between atoms: C_10  and  C_11
REMARK    5  A    between atoms: C_14  and  C_15
REMARK    6  A    between atoms: C_15  and  N_16
REMARK    7  A    between atoms: C_17  and  C_19
REMARK                            x       y       z     vdW  Elec       q    Type
REMARK                         _______ _______ _______ _____ _____    ______ ____
ROOT
ATOM      1  C   UNL     1      48.908   7.948  16.037  0.00  0.00    +0.000 A 
ATOM      2  C   UNL     1      48.920   6.750  15.308  0.00  0.00    +0.000 A 
ATOM      3  C   UNL     1      48.369   6.688  14.020  0.00  0.00    +0.000 A 
ATOM      4  C   UNL     1      47.811   7.828  13.425  0.00  0.00    +0.000 A 
ATOM      5  C   UNL     1      47.783   9.019  14.163  0.00  0.00    +0.000 A 
ATOM      6  C   UNL     1      48.336   9.083  15.447  0.00  0.00    +0.000 A 
ENDROOT
BRANCH   1   7
ATOM      7  C   UNL     1      49.500   8.020  17.422  0.00  0.00    +0.000 C 
BRANCH   7  10
ATOM      8  C   UNL     1      49.845   5.868  18.551  0.00  0.00    +0.000 C 
ATOM      9  O   UNL     1      48.745   5.916  19.093  0.00  0.00    +0.000 OA
ATOM     10  N   UNL     1      50.319   6.868  17.730  0.00  0.00    +0.000 N 
ATOM     11  H   UNL     1      51.236   6.800  17.310  0.00  0.00    +0.000 HD
BRANCH   8  15
ATOM     12  C   UNL     1      52.680   3.464  17.812  0.00  0.00    +0.000 C 
ATOM     13  C   UNL     1      51.436   2.633  17.485  0.00  0.00    +0.000 C 
ATOM     14  C   UNL     1      50.232   3.397  18.051  0.00  0.00    +0.000 C 
ATOM     15  C   UNL     1      50.783   4.675  18.687  0.00  0.00    +0.000 C 
ATOM     16  C   UNL     1      52.131   4.878  17.986  0.00  0.00    +0.000 C 
BRANCH  12  18
ATOM     17  N   UNL     1      53.848   2.597  20.009  0.00  0.00    +0.000 NA
ATOM     18  C   UNL     1      53.339   2.983  19.042  0.00  0.00    +0.000 C 
ENDBRANCH  12  18
ENDBRANCH   8  15
ENDBRANCH   7  10
ENDBRANCH   1   7
BRANCH   4  19
ATOM     19  C   UNL     1      47.233   7.784  12.031  0.00  0.00    +0.000 C 
BRANCH  19  20
ATOM     20  N   UNL     1      46.604   6.519  11.755  0.00  0.00    +0.000 N 
ATOM     21  C   UNL     1      45.243   6.416  11.593  0.00  0.00    +0.000 C 
ATOM     22  O   UNL     1      44.505   7.396  11.626  0.00  0.00    +0.000 OA
ATOM     23  H   UNL     1      47.134   5.685  11.981  0.00  0.00    +0.000 HD
BRANCH  21  24
ATOM     24  C   UNL     1      44.721   5.072  11.313  0.00  0.00    +0.000 A 
ATOM     25  C   UNL     1      43.948   4.414  12.261  0.00  0.00    +0.000 A 
ATOM     26  S   UNL     1      43.389   2.887  11.745  0.00  0.00    +0.000 S 
ATOM     27  C   UNL     1      44.204   3.029  10.258  0.00  0.00    +0.000 A 
ATOM     28  N   UNL     1      44.161   2.029   9.336  0.00  0.00    +0.000 NA
ATOM     29  C   UNL     1      44.845   2.261   8.266  0.00  0.00    +0.000 A 
ATOM     30  N   UNL     1      45.565   3.403   8.031  0.00  0.00    +0.000 N 
ATOM     31  C   UNL     1      45.615   4.450   8.921  0.00  0.00    +0.000 A 
ATOM     32  O   UNL     1      46.233   5.476   8.660  0.00  0.00    +0.000 OA
ATOM     33  C   UNL     1      44.874   4.233  10.146  0.00  0.00    +0.000 A 
ATOM     34  H   UNL     1      46.071   3.529   7.167  0.00  0.00    +0.000 HD
ENDBRANCH  21  24
ENDBRANCH  19  20
ENDBRANCH   4  19
TORSDOF 7
ENDMDL
MODEL 5
REMARK VINA RESULT:    -6.597      5.932      8.437
REMARK INTER + INTRA:         -10.288
REMARK INTER:                  -9.198
REMARK INTRA:                  -1.089
REMARK UNBOUND:                -0.991
REMARK  Name = 
REMARK  7 active torsions:
REMARK  status: ('A' for Active; 'I' for Inactive)
REMARK    1  A    between atoms: C_2  and  C_3
REMARK    2  A    between atoms: C_6  and  C_7
REMARK    3  A    between atoms: N_9  and  C_10
REMARK    4  A    between atoms: C_10  and  C_11
REMARK    5  A    between atoms: C_14  and  C_15
REMARK    6  A    between atoms: C_15  and  N_16
REMARK    7  A    between atoms: C_17  and  C_19
REMARK                            x       y       z     vdW  Elec       q    Type
REMARK                         _______ _______ _______ _____ _____    ______ ____
ROOT
ATOM      1  C   UNL     1      48.748   3.335  17.172  0.00  0.00    +0.000 A 
ATOM      2  C   UNL     1      49.511   4.252  17.910  0.00  0.00    +0.000 A 
ATOM      3  C   UNL     1      50.854   3.987  18.214  0.00  0.00    +0.000 A 
ATOM      4  C   UNL     1      51.469   2.809  17.770  0.00  0.00    +0.000 A 
ATOM      5  C   UNL     1      50.700   1.886  17.049  0.00  0.00    +0.000 A 
ATOM      6  C   UNL     1      49.360   2.151  16.741  0.00  0.00    +0.000 A 
ENDROOT
BRANCH   1   7
ATOM      7  C   UNL     1      47.304   3.616  16.841  0.00  0.00    +0.000 C 
BRANCH   7  10
ATOM      8  C   UNL     1      47.057   4.415  14.533  0.00  0.00    +0.000 C 
ATOM      9  O   UNL     1      47.128   3.279  14.076  0.00  0.00    +0.000 OA
ATOM     10  N   UNL     1      47.158   4.688  15.880  0.00  0.00    +0.000 N 
ATOM     11  H   UNL     1      47.108   5.639  16.220  0.00  0.00    +0.000 HD
BRANCH   8  15
ATOM     12  C   UNL     1      46.472   6.536  11.446  0.00  0.00    +0.000 C 
ATOM     13  C   UNL     1      47.869   6.970  11.897  0.00  0.00    +0.000 C 
ATOM     14  C   UNL     1      48.072   6.411  13.312  0.00  0.00    +0.000 C 
ATOM     15  C   UNL     1      46.798   5.642  13.666  0.00  0.00    +0.000 C 
ATOM     16  C   UNL     1      46.187   5.303  12.301  0.00  0.00    +0.000 C 
BRANCH  12  18
ATOM     17  N   UNL     1      44.704   8.442  11.870  0.00  0.00    +0.000 NA
ATOM     18  C   UNL     1      45.477   7.600  11.681  0.00  0.00    +0.000 C 
ENDBRANCH  12  18
ENDBRANCH   8  15
ENDBRANCH   7  10
ENDBRANCH   1   7
BRANCH   4  19
ATOM     19  C   UNL     1      52.920   2.519  18.071  0.00  0.00    +0.000 C 
BRANCH  19  20
ATOM     20  N   UNL     1      53.242   1.132  17.859  0.00  0.00    +0.000 N 
ATOM     21  C   UNL     1      54.139   0.473  18.666  0.00  0.00    +0.000 C 
ATOM     22  O   UNL     1      54.670   1.015  19.630  0.00  0.00    +0.000 OA
ATOM     23  H   UNL     1      53.033   0.749  16.944  0.00  0.00    +0.000 HD
BRANCH  21  24
ATOM     24  C   UNL     1      54.381  -0.940  18.349  0.00  0.00    +0.000 A 
ATOM     25  C   UNL     1      54.124  -1.920  19.300  0.00  0.00    +0.000 A 
ATOM     26  S   UNL     1      54.415  -3.506  18.741  0.00  0.00    +0.000 S 
ATOM     27  C   UNL     1      54.945  -2.935  17.228  0.00  0.00    +0.000 A 
ATOM     28  N   UNL     1      55.374  -3.795  16.265  0.00  0.00    +0.000 NA
ATOM     29  C   UNL     1      55.772  -3.222  15.177  0.00  0.00    +0.000 A 
ATOM     30  N   UNL     1      55.773  -1.869  14.962  0.00  0.00    +0.000 N 
ATOM     31  C   UNL     1      55.323  -0.965  15.895  0.00  0.00    +0.000 A 
ATOM     32  O   UNL     1      55.296   0.237  15.654  0.00  0.00    +0.000 OA
ATOM     33  C   UNL     1      54.878  -1.557  17.141  0.00  0.00    +0.000 A 
ATOM     34  H   UNL     1      56.086  -1.483  14.085  0.00  0.00    +0.000 HD
ENDBRANCH  21  24
ENDBRANCH  19  20
ENDBRANCH   4  19
TORSDOF 7
ENDMDL
MODEL 6
REMARK VINA RESULT:    -6.528      5.081      9.995
REMARK INTER + INTRA:         -10.190
REMARK INTER:                  -8.899
REMARK INTRA:                  -1.291
REMARK UNBOUND:                -0.991
REMARK  Name = 
REMARK  7 active torsions:
REMARK  status: ('A' for Active; 'I' for Inactive)
REMARK    1  A    between atoms: C_2  and  C_3
REMARK    2  A    between atoms: C_6  and  C_7
REMARK    3  A    between atoms: N_9  and  C_10
REMARK    4  A    between atoms: C_10  and  C_11
REMARK    5  A    between atoms: C_14  and  C_15
REMARK    6  A    between atoms: C_15  and  N_16
REMARK    7  A    between atoms: C_17  and  C_19
REMARK                            x       y       z     vdW  Elec       q    Type
REMARK                         _______ _______ _______ _____ _____    ______ ____
ROOT
ATOM      1  C   UNL     1      51.599   2.891  17.771  0.00  0.00    +0.000 A 
ATOM      2  C   UNL     1      51.009   4.120  18.102  0.00  0.00    +0.000 A 
ATOM      3  C   UNL     1      49.649   4.352  17.854  0.00  0.00    +0.000 A 
ATOM      4  C   UNL     1      48.844   3.353  17.290  0.00  0.00    +0.000 A 
ATOM      5  C   UNL     1      49.440   2.134  16.943  0.00  0.00    +0.000 A 
ATOM      6  C   UNL     1      50.797   1.900  17.192  0.00  0.00    +0.000 A 
ENDROOT
BRANCH   1   7
ATOM      7  C   UNL     1      53.062   2.637  18.035  0.00  0.00    +0.000 C 
BRANCH   7  10
ATOM      8  C   UNL     1      54.192   0.487  17.676  0.00  0.00    +0.000 C 
ATOM      9  O   UNL     1      54.750   0.890  16.661  0.00  0.00    +0.000 OA
ATOM     10  N   UNL     1      53.322   1.263  18.410  0.00  0.00    +0.000 N 
ATOM     11  H   UNL     1      52.870   0.894  19.235  0.00  0.00    +0.000 HD
BRANCH   8  15
ATOM     12  C   UNL     1      53.720  -2.623  19.790  0.00  0.00    +0.000 C 
ATOM     13  C   UNL     1      54.963  -1.978  20.409  0.00  0.00    +0.000 C 
ATOM     14  C   UNL     1      55.428  -0.889  19.432  0.00  0.00    +0.000 C 
ATOM     15  C   UNL     1      54.442  -0.897  18.264  0.00  0.00    +0.000 C 
ATOM     16  C   UNL     1      53.182  -1.542  18.854  0.00  0.00    +0.000 C 
BRANCH  12  18
ATOM     17  N   UNL     1      54.329  -4.829  18.485  0.00  0.00    +0.000 NA
ATOM     18  C   UNL     1      54.064  -3.855  19.054  0.00  0.00    +0.000 C 
ENDBRANCH  12  18
ENDBRANCH   8  15
ENDBRANCH   7  10
ENDBRANCH   1   7
BRANCH   4  19
ATOM     19  C   UNL     1      47.373   3.580  17.037  0.00  0.00    +0.000 C 
BRANCH  19  20
ATOM     20  N   UNL     1      47.153   4.563  16.010  0.00  0.00    +0.000 N 
ATOM     21  C   UNL     1      47.152   4.221  14.678  0.00  0.00    +0.000 C 
ATOM     22  O   UNL     1      47.290   3.062  14.302  0.00  0.00    +0.000 OA
ATOM     23  H   UNL     1      47.300   5.533  16.266  0.00  0.00    +0.000 HD
BRANCH  21  24
ATOM     24  C   UNL     1      46.914   5.315  13.727  0.00  0.00    +0.000 A 
ATOM     25  C   UNL     1      45.822   5.265  12.870  0.00  0.00    +0.000 A 
ATOM     26  S   UNL     1      45.675   6.642  11.871  0.00  0.00    +0.000 S 
ATOM     27  C   UNL     1      47.095   7.327  12.513  0.00  0.00    +0.000 A 
ATOM     28  N   UNL     1      47.561   8.523  12.063  0.00  0.00    +0.000 NA
ATOM     29  C   UNL     1      48.661   8.910  12.620  0.00  0.00    +0.000 A 
ATOM     30  N   UNL     1      49.333   8.213  13.590  0.00  0.00    +0.000 N 
ATOM     31  C   UNL     1      48.885   7.015  14.094  0.00  0.00    +0.000 A 
ATOM     32  O   UNL     1      49.487   6.439  14.993  0.00  0.00    +0.000 OA
ATOM     33  C   UNL     1      47.660   6.529  13.491  0.00  0.00    +0.000 A 
ATOM     34  H   UNL     1      50.183   8.575  13.995  0.00  0.00    +0.000 HD
ENDBRANCH  21  24
ENDBRANCH  19  20
ENDBRANCH   4  19
TORSDOF 7
ENDMDL
MODEL 7
REMARK VINA RESULT:    -5.830      5.223      7.690
REMARK INTER + INTRA:          -9.207
REMARK INTER:                  -7.953
REMARK INTRA:                  -1.254
REMARK UNBOUND:                -0.991
REMARK  Name = 
REMARK  7 active torsions:
REMARK  status: ('A' for Active; 'I' for Inactive)
REMARK    1  A    between atoms: C_2  and  C_3
REMARK    2  A    between atoms: C_6  and  C_7
REMARK    3  A    between atoms: N_9  and  C_10
REMARK    4  A    between atoms: C_10  and  C_11
REMARK    5  A    between atoms: C_14  and  C_15
REMARK    6  A    between atoms: C_15  and  N_16
REMARK    7  A    between atoms: C_17  and  C_19
REMARK                            x       y       z     vdW  Elec       q    Type
REMARK                         _______ _______ _______ _____ _____    ______ ____
ROOT
ATOM      1  C   UNL     1      50.410   9.449  11.488  0.00  0.00    +0.000 A 
ATOM      2  C   UNL     1      49.157   9.968  11.130  0.00  0.00    +0.000 A 
ATOM      3  C   UNL     1      48.004   9.619  11.848  0.00  0.00    +0.000 A 
ATOM      4  C   UNL     1      48.082   8.760  12.953  0.00  0.00    +0.000 A 
ATOM      5  C   UNL     1      49.332   8.229  13.297  0.00  0.00    +0.000 A 
ATOM      6  C   UNL     1      50.484   8.579  12.583  0.00  0.00    +0.000 A 
ENDROOT
BRANCH   1   7
ATOM      7  C   UNL     1      51.653   9.822  10.720  0.00  0.00    +0.000 C 
BRANCH   7  10
ATOM      8  C   UNL     1      52.783   8.919   8.736  0.00  0.00    +0.000 C 
ATOM      9  O   UNL     1      52.863  10.026   8.213  0.00  0.00    +0.000 OA
ATOM     10  N   UNL     1      52.182   8.711   9.958  0.00  0.00    +0.000 N 
ATOM     11  H   UNL     1      52.123   7.782  10.353  0.00  0.00    +0.000 HD
BRANCH   8  15
ATOM     12  C   UNL     1      53.114   5.327   7.574  0.00  0.00    +0.000 C 
ATOM     13  C   UNL     1      54.103   5.399   8.739  0.00  0.00    +0.000 C 
ATOM     14  C   UNL     1      54.284   6.886   9.075  0.00  0.00    +0.000 C 
ATOM     15  C   UNL     1      53.385   7.665   8.114  0.00  0.00    +0.000 C 
ATOM     16  C   UNL     1      52.333   6.635   7.684  0.00  0.00    +0.000 C 
BRANCH  12  18
ATOM     17  N   UNL     1      54.371   5.150   5.266  0.00  0.00    +0.000 NA
ATOM     18  C   UNL     1      53.815   5.222   6.279  0.00  0.00    +0.000 C 
ENDBRANCH  12  18
ENDBRANCH   8  15
ENDBRANCH   7  10
ENDBRANCH   1   7
BRANCH   4  19
ATOM     19  C   UNL     1      46.854   8.392  13.750  0.00  0.00    +0.000 C 
BRANCH  19  20
ATOM     20  N   UNL     1      46.064   7.391  13.081  0.00  0.00    +0.000 N 
ATOM     21  C   UNL     1      46.266   6.050  13.308  0.00  0.00    +0.000 C 
ATOM     22  O   UNL     1      47.088   5.641  14.121  0.00  0.00    +0.000 OA
ATOM     23  H   UNL     1      45.582   7.678  12.237  0.00  0.00    +0.000 HD
BRANCH  21  24
ATOM     24  C   UNL     1      45.394   5.129  12.567  0.00  0.00    +0.000 A 
ATOM     25  C   UNL     1      44.538   4.278  13.254  0.00  0.00    +0.000 A 
ATOM     26  S   UNL     1      43.567   3.316  12.232  0.00  0.00    +0.000 S 
ATOM     27  C   UNL     1      44.294   3.965  10.837  0.00  0.00    +0.000 A 
ATOM     28  N   UNL     1      43.932   3.543   9.596  0.00  0.00    +0.000 NA
ATOM     29  C   UNL     1      44.585   4.102   8.631  0.00  0.00    +0.000 A 
ATOM     30  N   UNL     1      45.562   5.049   8.794  0.00  0.00    +0.000 N 
ATOM     31  C   UNL     1      45.940   5.525  10.027  0.00  0.00    +0.000 A 
ATOM     32  O   UNL     1      46.787   6.405  10.135  0.00  0.00    +0.000 OA
ATOM     33  C   UNL     1      45.247   4.919  11.145  0.00  0.00    +0.000 A 
ATOM     34  H   UNL     1      46.027   5.457   7.998  0.00  0.00    +0.000 HD
ENDBRANCH  21  24
ENDBRANCH  19  20
ENDBRANCH   4  19
TORSDOF 7
ENDMDL
MODEL 8
REMARK VINA RESULT:    -5.585      5.805     10.313
REMARK INTER + INTRA:          -8.861
REMARK INTER:                  -7.803
REMARK INTRA:                  -1.058
REMARK UNBOUND:                -0.991
REMARK  Name = 
REMARK  7 active torsions:
REMARK  status: ('A' for Active; 'I' for Inactive)
REMARK    1  A    between atoms: C_2  and  C_3
REMARK    2  A    between atoms: C_6  and  C_7
REMARK    3  A    between atoms: N_9  and  C_10
REMARK    4  A    between atoms: C_10  and  C_11
REMARK    5  A    between atoms: C_14  and  C_15
REMARK    6  A    between atoms: C_15  and  N_16
REMARK    7  A    between atoms: C_17  and  C_19
REMARK                            x       y       z     vdW  Elec       q    Type
REMARK                         _______ _______ _______ _____ _____    ______ ____
ROOT
ATOM      1  C   UNL     1      53.262   1.607  17.706  0.00  0.00    +0.000 A 
ATOM      2  C   UNL     1      53.280   2.930  18.172  0.00  0.00    +0.000 A 
ATOM      3  C   UNL     1      52.098   3.681  18.246  0.00  0.00    +0.000 A 
ATOM      4  C   UNL     1      50.869   3.118  17.876  0.00  0.00    +0.000 A 
ATOM      5  C   UNL     1      50.856   1.803  17.394  0.00  0.00    +0.000 A 
ATOM      6  C   UNL     1      52.035   1.052  17.322  0.00  0.00    +0.000 A 
ENDROOT
BRANCH   1   7
ATOM      7  C   UNL     1      54.530   0.795  17.625  0.00  0.00    +0.000 C 
BRANCH   7  10
ATOM      8  C   UNL     1      54.376  -1.322  18.858  0.00  0.00    +0.000 C 
ATOM      9  O   UNL     1      54.723  -0.795  19.910  0.00  0.00    +0.000 OA
ATOM     10  N   UNL     1      54.275  -0.628  17.671  0.00  0.00    +0.000 N 
ATOM     11  H   UNL     1      53.998  -1.098  16.820  0.00  0.00    +0.000 HD
BRANCH   8  15
ATOM     12  C   UNL     1      52.929  -4.689  19.826  0.00  0.00    +0.000 C 
ATOM     13  C   UNL     1      54.437  -4.956  19.818  0.00  0.00    +0.000 C 
ATOM     14  C   UNL     1      55.096  -3.753  19.131  0.00  0.00    +0.000 C 
ATOM     15  C   UNL     1      53.969  -2.788  18.761  0.00  0.00    +0.000 C 
ATOM     16  C   UNL     1      52.834  -3.168  19.719  0.00  0.00    +0.000 C 
BRANCH  12  18
ATOM     17  N   UNL     1      51.729  -5.867  17.799  0.00  0.00    +0.000 NA
ATOM     18  C   UNL     1      52.259  -5.355  18.692  0.00  0.00    +0.000 C 
ENDBRANCH  12  18
ENDBRANCH   8  15
ENDBRANCH   7  10
ENDBRANCH   1   7
BRANCH   4  19
ATOM     19  C   UNL     1      49.584   3.906  17.971  0.00  0.00    +0.000 C 
BRANCH  19  20
ATOM     20  N   UNL     1      49.244   4.524  16.716  0.00  0.00    +0.000 N 
ATOM     21  C   UNL     1      48.740   5.802  16.661  0.00  0.00    +0.000 C 
ATOM     22  O   UNL     1      48.601   6.493  17.665  0.00  0.00    +0.000 OA
ATOM     23  H   UNL     1      49.099   3.906  15.926  0.00  0.00    +0.000 HD
BRANCH  21  24
ATOM     24  C   UNL     1      48.434   6.321  15.321  0.00  0.00    +0.000 A 
ATOM     25  C   UNL     1      49.032   7.494  14.877  0.00  0.00    +0.000 A 
ATOM     26  S   UNL     1      48.599   7.919  13.281  0.00  0.00    +0.000 S 
ATOM     27  C   UNL     1      47.556   6.580  13.149  0.00  0.00    +0.000 A 
ATOM     28  N   UNL     1      46.835   6.362  12.017  0.00  0.00    +0.000 NA
ATOM     29  C   UNL     1      46.066   5.325  12.065  0.00  0.00    +0.000 A 
ATOM     30  N   UNL     1      45.958   4.482  13.140  0.00  0.00    +0.000 N 
ATOM     31  C   UNL     1      46.688   4.647  14.293  0.00  0.00    +0.000 A 
ATOM     32  O   UNL     1      46.600   3.849  15.220  0.00  0.00    +0.000 OA
ATOM     33  C   UNL     1      47.556   5.807  14.296  0.00  0.00    +0.000 A 
ATOM     34  H   UNL     1      45.347   3.680  13.112  0.00  0.00    +0.000 HD
ENDBRANCH  21  24
ENDBRANCH  19  20
ENDBRANCH   4  19
TORSDOF 7
ENDMDL
