MODEL 1
REMARK VINA RESULT:    -8.799      0.000      0.000
REMARK INTER + INTRA:         -12.262
REMARK INTER:                 -11.371
REMARK INTRA:                  -0.891
REMARK UNBOUND:                -0.891
REMARK  Name = 
REMARK  6 active torsions:
REMARK  status: ('A' for Active; 'I' for Inactive)
REMARK    1  A    between atoms: C_1  and  C_2
REMARK    2  A    between atoms: C_2  and  N_3
REMARK    3  A    between atoms: C_2  and  C_16
REMARK    4  A    between atoms: C_4  and  C_6
REMARK    5  A    between atoms: C_19  and  C_20
REMARK    6  A    between atoms: C_20  and  C_21
REMARK                            x       y       z     vdW  Elec       q    Type
REMARK                         _______ _______ _______ _____ _____    ______ ____
ROOT
ATOM      1  C   UNL     1      45.278   8.675  12.890  0.00  0.00    +0.000 C 
ATOM      2  C   UNL     1      46.445   7.709  12.661  0.00  0.00    +0.000 C 
ENDROOT
BRANCH   2   3
ATOM      3  C   UNL     1      45.989   6.527  11.814  0.00  0.00    +0.000 A 
ATOM      4  C   UNL     1      45.140   5.550  12.346  0.00  0.00    +0.000 A 
ATOM      5  C   UNL     1      44.692   4.489  11.552  0.00  0.00    +0.000 A 
ATOM      6  C   UNL     1      45.064   4.393  10.203  0.00  0.00    +0.000 A 
ATOM      7  C   UNL     1      45.917   5.365   9.670  0.00  0.00    +0.000 A 
ATOM      8  C   UNL     1      46.378   6.415  10.468  0.00  0.00    +0.000 A 
BRANCH   6   9
ATOM      9  C   UNL     1      44.552   3.268   9.331  0.00  0.00    +0.000 C 
BRANCH   9  10
ATOM     10  C   UNL     1      45.546   2.708   8.334  0.00  0.00    +0.000 A 
ATOM     11  C   UNL     1      45.878   3.411   7.175  0.00  0.00    +0.000 A 
ATOM     12  C   UNL     1      46.704   2.811   6.229  0.00  0.00    +0.000 A 
ATOM     13  C   UNL     1      47.181   1.527   6.457  0.00  0.00    +0.000 A 
ATOM     14  C   UNL     1      46.820   0.900   7.636  0.00  0.00    +0.000 A 
ATOM     15  N   UNL     1      46.018   1.456   8.572  0.00  0.00    +0.000 NA
ENDBRANCH   9  10
ENDBRANCH   6   9
ENDBRANCH   2   3
BRANCH   2  16
ATOM     16  N   UNL     1      47.011   7.196  13.899  0.00  0.00    +0.000 N 
ATOM     17  C   UNL     1      48.288   6.717  14.023  0.00  0.00    +0.000 C 
ATOM     18  O   UNL     1      49.097   6.720  13.099  0.00  0.00    +0.000 OA
ATOM     19  H   UNL     1      46.328   6.871  14.576  0.00  0.00    +0.000 HD
BRANCH  17  20
ATOM     20  C   UNL     1      48.670   6.263  15.367  0.00  0.00    +0.000 A 
ATOM     21  C   UNL     1      49.658   6.938  16.070  0.00  0.00    +0.000 A 
ATOM     22  S   UNL     1      49.934   6.309  17.632  0.00  0.00    +0.000 S 
ATOM     23  C   UNL     1      48.776   5.081  17.402  0.00  0.00    +0.000 A 
ATOM     24  N   UNL     1      48.532   4.160  18.372  0.00  0.00    +0.000 NA
ATOM     25  C   UNL     1      47.647   3.274  18.051  0.00  0.00    +0.000 A 
ATOM     26  N   UNL     1      46.986   3.226  16.851  0.00  0.00    +0.000 N 
ATOM     27  C   UNL     1      47.189   4.148  15.852  0.00  0.00    +0.000 A 
ATOM     28  O   UNL     1      46.560   4.100  14.801  0.00  0.00    +0.000 OA
ATOM     29  C   UNL     1      48.176   5.165  16.159  0.00  0.00    +0.000 A 
ATOM     30  H   UNL     1      46.298   2.512  16.665  0.00  0.00    +0.000 HD
ENDBRANCH  17  20
ENDBRANCH   2  16
TORSDOF 5
ENDMDL
MODEL 2
REMARK VINA RESULT:    -7.866      2.207      2.821
REMARK INTER + INTRA:         -11.057
REMARK INTER:                  -9.921
REMARK INTRA:                  -1.135
REMARK UNBOUND:                -0.891
REMARK  Name = 
REMARK  6 active torsions:
REMARK  status: ('A' for Active; 'I' for Inactive)
REMARK    1  A    between atoms: C_1  and  C_2
REMARK    2  A    between atoms: C_2  and  N_3
REMARK    3  A    between atoms: C_2  and  C_16
REMARK    4  A    between atoms: C_4  and  C_6
REMARK    5  A    between atoms: C_19  and  C_20
REMARK    6  A    between atoms: C_20  and  C_21
REMARK                            x       y       z     vdW  Elec       q    Type
REMARK                         _______ _______ _______ _____ _____    ______ ____
ROOT
ATOM      1  C   UNL     1      47.506   8.909  14.007  0.00  0.00    +0.000 C 
ATOM      2  C   UNL     1      47.961   7.448  13.929  0.00  0.00    +0.000 C 
ENDROOT
BRANCH   2   3
ATOM      3  C   UNL     1      47.075   6.673  12.962  0.00  0.00    +0.000 A 
ATOM      4  C   UNL     1      46.675   5.364  13.251  0.00  0.00    +0.000 A 
ATOM      5  C   UNL     1      45.827   4.671  12.379  0.00  0.00    +0.000 A 
ATOM      6  C   UNL     1      45.345   5.279  11.210  0.00  0.00    +0.000 A 
ATOM      7  C   UNL     1      45.748   6.586  10.917  0.00  0.00    +0.000 A 
ATOM      8  C   UNL     1      46.607   7.271  11.779  0.00  0.00    +0.000 A 
BRANCH   6   9
ATOM      9  C   UNL     1      44.400   4.547  10.283  0.00  0.00    +0.000 C 
BRANCH   9  10
ATOM     10  C   UNL     1      45.057   3.700   9.213  0.00  0.00    +0.000 A 
ATOM     11  C   UNL     1      45.157   2.315   9.353  0.00  0.00    +0.000 A 
ATOM     12  C   UNL     1      45.871   1.586   8.405  0.00  0.00    +0.000 A 
ATOM     13  C   UNL     1      46.469   2.251   7.343  0.00  0.00    +0.000 A 
ATOM     14  C   UNL     1      46.314   3.623   7.266  0.00  0.00    +0.000 A 
ATOM     15  N   UNL     1      45.628   4.358   8.171  0.00  0.00    +0.000 NA
ENDBRANCH   9  10
ENDBRANCH   6   9
ENDBRANCH   2   3
BRANCH   2  16
ATOM     16  N   UNL     1      47.934   6.775  15.218  0.00  0.00    +0.000 N 
ATOM     17  C   UNL     1      49.052   6.378  15.904  0.00  0.00    +0.000 C 
ATOM     18  O   UNL     1      50.193   6.600  15.511  0.00  0.00    +0.000 OA
ATOM     19  H   UNL     1      47.067   6.289  15.426  0.00  0.00    +0.000 HD
BRANCH  17  20
ATOM     20  C   UNL     1      48.806   5.730  17.200  0.00  0.00    +0.000 A 
ATOM     21  C   UNL     1      49.024   4.367  17.343  0.00  0.00    +0.000 A 
ATOM     22  S   UNL     1      48.742   3.794  18.926  0.00  0.00    +0.000 S 
ATOM     23  C   UNL     1      48.271   5.341  19.461  0.00  0.00    +0.000 A 
ATOM     24  N   UNL     1      47.873   5.546  20.745  0.00  0.00    +0.000 NA
ATOM     25  C   UNL     1      47.521   6.763  21.004  0.00  0.00    +0.000 A 
ATOM     26  N   UNL     1      47.532   7.791  20.097  0.00  0.00    +0.000 N 
ATOM     27  C   UNL     1      47.944   7.631  18.796  0.00  0.00    +0.000 A 
ATOM     28  O   UNL     1      47.974   8.575  18.014  0.00  0.00    +0.000 OA
ATOM     29  C   UNL     1      48.348   6.282  18.450  0.00  0.00    +0.000 A 
ATOM     30  H   UNL     1      47.252   8.722  20.364  0.00  0.00    +0.000 HD
ENDBRANCH  17  20
ENDBRANCH   2  16
TORSDOF 5
ENDMDL
MODEL 3
REMARK VINA RESULT:    -7.865      2.687      4.120
REMARK INTER + INTRA:         -11.055
REMARK INTER:                  -9.997
REMARK INTRA:                  -1.058
REMARK UNBOUND:                -0.891
REMARK  Name = 
REMARK  6 active torsions:
REMARK  status: ('A' for Active; 'I' for Inactive)
REMARK    1  A    between atoms: C_1  and  C_2
REMARK    2  A    between atoms: C_2  and  N_3
REMARK    3  A    between atoms: C_2  and  C_16
REMARK    4  A    between atoms: C_4  and  C_6
REMARK    5  A    between atoms: C_19  and  C_20
REMARK    6  A    between atoms: C_20  and  C_21
REMARK                            x       y       z     vdW  Elec       q    Type
REMARK                         _______ _______ _______ _____ _____    ______ ____
ROOT
ATOM      1  C   UNL     1      46.777   4.566  14.547  0.00  0.00    +0.000 C 
ATOM      2  C   UNL     1      46.380   5.704  13.602  0.00  0.00    +0.000 C 
ENDROOT
BRANCH   2   3
ATOM      3  C   UNL     1      45.851   5.137  12.290  0.00  0.00    +0.000 A 
ATOM      4  C   UNL     1      45.983   5.855  11.096  0.00  0.00    +0.000 A 
ATOM      5  C   UNL     1      45.533   5.312   9.888  0.00  0.00    +0.000 A 
ATOM      6  C   UNL     1      44.960   4.032   9.844  0.00  0.00    +0.000 A 
ATOM      7  C   UNL     1      44.822   3.316  11.036  0.00  0.00    +0.000 A 
ATOM      8  C   UNL     1      45.256   3.865  12.245  0.00  0.00    +0.000 A 
BRANCH   6   9
ATOM      9  C   UNL     1      44.505   3.426   8.534  0.00  0.00    +0.000 C 
BRANCH   9  10
ATOM     10  C   UNL     1      45.599   2.824   7.677  0.00  0.00    +0.000 A 
ATOM     11  C   UNL     1      46.260   1.659   8.068  0.00  0.00    +0.000 A 
ATOM     12  C   UNL     1      47.338   1.203   7.313  0.00  0.00    +0.000 A 
ATOM     13  C   UNL     1      47.732   1.915   6.188  0.00  0.00    +0.000 A 
ATOM     14  C   UNL     1      47.017   3.052   5.856  0.00  0.00    +0.000 A 
ATOM     15  N   UNL     1      45.969   3.520   6.570  0.00  0.00    +0.000 NA
ENDBRANCH   9  10
ENDBRANCH   6   9
ENDBRANCH   2   3
BRANCH   2  16
ATOM     16  N   UNL     1      47.482   6.605  13.303  0.00  0.00    +0.000 N 
ATOM     17  C   UNL     1      47.378   7.971  13.287  0.00  0.00    +0.000 C 
ATOM     18  O   UNL     1      46.344   8.568  13.573  0.00  0.00    +0.000 OA
ATOM     19  H   UNL     1      48.233   6.192  12.759  0.00  0.00    +0.000 HD
BRANCH  17  20
ATOM     20  C   UNL     1      48.616   8.700  12.979  0.00  0.00    +0.000 A 
ATOM     21  C   UNL     1      48.598   9.734  12.054  0.00  0.00    +0.000 A 
ATOM     22  S   UNL     1      50.108  10.504  11.861  0.00  0.00    +0.000 S 
ATOM     23  C   UNL     1      50.850   9.448  12.973  0.00  0.00    +0.000 A 
ATOM     24  N   UNL     1      52.176   9.548  13.256  0.00  0.00    +0.000 NA
ATOM     25  C   UNL     1      52.608   8.667  14.098  0.00  0.00    +0.000 A 
ATOM     26  N   UNL     1      51.835   7.698  14.682  0.00  0.00    +0.000 N 
ATOM     27  C   UNL     1      50.488   7.573  14.438  0.00  0.00    +0.000 A 
ATOM     28  O   UNL     1      49.814   6.715  14.998  0.00  0.00    +0.000 OA
ATOM     29  C   UNL     1      49.952   8.536  13.496  0.00  0.00    +0.000 A 
ATOM     30  H   UNL     1      52.231   7.043  15.339  0.00  0.00    +0.000 HD
ENDBRANCH  17  20
ENDBRANCH   2  16
TORSDOF 5
ENDMDL
MODEL 4
REMARK VINA RESULT:    -7.455      3.101      7.661
REMARK INTER + INTRA:         -10.526
REMARK INTER:                  -9.547
REMARK INTRA:                  -0.979
REMARK UNBOUND:                -0.891
REMARK  Name = 
REMARK  6 active torsions:
REMARK  status: ('A' for Active; 'I' for Inactive)
REMARK    1  A    between atoms: C_1  and  C_2
REMARK    2  A    between atoms: C_2  and  N_3
REMARK    3  A    between atoms: C_2  and  C_16
REMARK    4  A    between atoms: C_4  and  C_6
REMARK    5  A    between atoms: C_19  and  C_20
REMARK    6  A    between atoms: C_20  and  C_21
REMARK                            x       y       z     vdW  Elec       q    Type
REMARK                         _______ _______ _______ _____ _____    ______ ____
ROOT
ATOM      1  C   UNL     1      49.711   8.021  11.731  0.00  0.00    +0.000 C 
ATOM      2  C   UNL     1      48.463   7.649  12.538  0.00  0.00    +0.000 C 
ENDROOT
BRANCH   2   3
ATOM      3  C   UNL     1      48.862   7.133  13.915  0.00  0.00    +0.000 A 
ATOM      4  C   UNL     1      48.023   6.266  14.624  0.00  0.00    +0.000 A 
ATOM      5  C   UNL     1      48.413   5.762  15.870  0.00  0.00    +0.000 A 
ATOM      6  C   UNL     1      49.657   6.098  16.424  0.00  0.00    +0.000 A 
ATOM      7  C   UNL     1      50.494   6.968  15.720  0.00  0.00    +0.000 A 
ATOM      8  C   UNL     1      50.098   7.484  14.484  0.00  0.00    +0.000 A 
BRANCH   6   9
ATOM      9  C   UNL     1      50.098   5.526  17.754  0.00  0.00    +0.000 C 
BRANCH   9  10
ATOM     10  C   UNL     1      50.662   4.121  17.708  0.00  0.00    +0.000 A 
ATOM     11  C   UNL     1      52.004   3.874  18.001  0.00  0.00    +0.000 A 
ATOM     12  C   UNL     1      52.511   2.588  17.834  0.00  0.00    +0.000 A 
ATOM     13  C   UNL     1      51.672   1.579  17.380  0.00  0.00    +0.000 A 
ATOM     14  C   UNL     1      50.351   1.898  17.124  0.00  0.00    +0.000 A 
ATOM     15  N   UNL     1      49.831   3.137  17.275  0.00  0.00    +0.000 NA
ENDBRANCH   9  10
ENDBRANCH   6   9
ENDBRANCH   2   3
BRANCH   2  16
ATOM     16  N   UNL     1      47.645   6.638  11.887  0.00  0.00    +0.000 N 
ATOM     17  C   UNL     1      46.339   6.823  11.517  0.00  0.00    +0.000 C 
ATOM     18  O   UNL     1      45.747   7.889  11.662  0.00  0.00    +0.000 OA
ATOM     19  H   UNL     1      47.952   5.682  12.036  0.00  0.00    +0.000 HD
BRANCH  17  20
ATOM     20  C   UNL     1      45.696   5.680  10.854  0.00  0.00    +0.000 A 
ATOM     21  C   UNL     1      45.844   5.502   9.486  0.00  0.00    +0.000 A 
ATOM     22  S   UNL     1      45.079   4.097   8.894  0.00  0.00    +0.000 S 
ATOM     23  C   UNL     1      44.483   3.703  10.441  0.00  0.00    +0.000 A 
ATOM     24  N   UNL     1      43.709   2.602  10.634  0.00  0.00    +0.000 NA
ATOM     25  C   UNL     1      43.308   2.442  11.853  0.00  0.00    +0.000 A 
ATOM     26  N   UNL     1      43.611   3.281  12.893  0.00  0.00    +0.000 N 
ATOM     27  C   UNL     1      44.405   4.393  12.746  0.00  0.00    +0.000 A 
ATOM     28  O   UNL     1      44.687   5.108  13.701  0.00  0.00    +0.000 OA
ATOM     29  C   UNL     1      44.880   4.623  11.395  0.00  0.00    +0.000 A 
ATOM     30  H   UNL     1      43.274   3.095  13.825  0.00  0.00    +0.000 HD
ENDBRANCH  17  20
ENDBRANCH   2  16
TORSDOF 5
ENDMDL
MODEL 5
REMARK VINA RESULT:    -7.296      2.905      4.764
REMARK INTER + INTRA:         -10.320
REMARK INTER:                  -9.177
REMARK INTRA:                  -1.143
REMARK UNBOUND:                -0.891
REMARK  Name = 
REMARK  6 active torsions:
REMARK  status: ('A' for Active; 'I' for Inactive)
REMARK    1  A    between atoms: C_1  and  C_2
REMARK    2  A    between atoms: C_2  and  N_3
REMARK    3  A    between atoms: C_2  and  C_16
REMARK    4  A    between atoms: C_4  and  C_6
REMARK    5  A    between atoms: C_19  and  C_20
REMARK    6  A    between atoms: C_20  and  C_21
REMARK                            x       y       z     vdW  Elec       q    Type
REMARK                         _______ _______ _______ _____ _____    ______ ____
ROOT
ATOM      1  C   UNL     1      47.413   4.696  15.207  0.00  0.00    +0.000 C 
ATOM      2  C   UNL     1      47.152   5.919  14.321  0.00  0.00    +0.000 C 
ENDROOT
BRANCH   2   3
ATOM      3  C   UNL     1      46.416   5.501  13.054  0.00  0.00    +0.000 A 
ATOM      4  C   UNL     1      46.488   6.282  11.895  0.00  0.00    +0.000 A 
ATOM      5  C   UNL     1      45.845   5.873  10.722  0.00  0.00    +0.000 A 
ATOM      6  C   UNL     1      45.133   4.665  10.676  0.00  0.00    +0.000 A 
ATOM      7  C   UNL     1      45.055   3.886  11.834  0.00  0.00    +0.000 A 
ATOM      8  C   UNL     1      45.683   4.303  13.010  0.00  0.00    +0.000 A 
BRANCH   6   9
ATOM      9  C   UNL     1      44.466   4.201   9.399  0.00  0.00    +0.000 C 
BRANCH   9  10
ATOM     10  C   UNL     1      45.327   3.359   8.480  0.00  0.00    +0.000 A 
ATOM     11  C   UNL     1      45.532   2.002   8.728  0.00  0.00    +0.000 A 
ATOM     12  C   UNL     1      46.423   1.290   7.928  0.00  0.00    +0.000 A 
ATOM     13  C   UNL     1      47.089   1.945   6.901  0.00  0.00    +0.000 A 
ATOM     14  C   UNL     1      46.823   3.289   6.708  0.00  0.00    +0.000 A 
ATOM     15  N   UNL     1      45.965   4.006   7.469  0.00  0.00    +0.000 NA
ENDBRANCH   9  10
ENDBRANCH   6   9
ENDBRANCH   2   3
BRANCH   2  16
ATOM     16  N   UNL     1      48.370   6.614  13.938  0.00  0.00    +0.000 N 
ATOM     17  C   UNL     1      48.736   7.847  14.412  0.00  0.00    +0.000 C 
ATOM     18  O   UNL     1      48.084   8.463  15.250  0.00  0.00    +0.000 OA
ATOM     19  H   UNL     1      48.761   6.327  13.046  0.00  0.00    +0.000 HD
BRANCH  17  20
ATOM     20  C   UNL     1      50.017   8.366  13.913  0.00  0.00    +0.000 A 
ATOM     21  C   UNL     1      51.192   8.074  14.591  0.00  0.00    +0.000 A 
ATOM     22  S   UNL     1      52.587   8.711  13.842  0.00  0.00    +0.000 S 
ATOM     23  C   UNL     1      51.661   9.439  12.612  0.00  0.00    +0.000 A 
ATOM     24  N   UNL     1      52.253  10.177  11.635  0.00  0.00    +0.000 NA
ATOM     25  C   UNL     1      51.426  10.690  10.782  0.00  0.00    +0.000 A 
ATOM     26  N   UNL     1      50.065  10.531  10.819  0.00  0.00    +0.000 N 
ATOM     27  C   UNL     1      49.429   9.779  11.778  0.00  0.00    +0.000 A 
ATOM     28  O   UNL     1      48.212   9.628  11.768  0.00  0.00    +0.000 OA
ATOM     29  C   UNL     1      50.310   9.183  12.762  0.00  0.00    +0.000 A 
ATOM     30  H   UNL     1      49.474  10.952  10.118  0.00  0.00    +0.000 HD
ENDBRANCH  17  20
ENDBRANCH   2  16
TORSDOF 5
ENDMDL
MODEL 6
REMARK VINA RESULT:    -6.793      3.821      8.457
REMARK INTER + INTRA:          -9.670
REMARK INTER:                  -8.708
REMARK INTRA:                  -0.962
REMARK UNBOUND:                -0.891
REMARK  Name = 
REMARK  6 active torsions:
REMARK  status: ('A' for Active; 'I' for Inactive)
REMARK    1  A    between atoms: C_1  and  C_2
REMARK    2  A    between atoms: C_2  and  N_3
REMARK    3  A    between atoms: C_2  and  C_16
REMARK    4  A    between atoms: C_4  and  C_6
REMARK    5  A    between atoms: C_19  and  C_20
REMARK    6  A    between atoms: C_20  and  C_21
REMARK                            x       y       z     vdW  Elec       q    Type
REMARK                         _______ _______ _______ _____ _____    ______ ____
ROOT
ATOM      1  C   UNL     1      46.780   3.195  17.575  0.00  0.00    +0.000 C 
ATOM      2  C   UNL     1      47.672   3.532  16.376  0.00  0.00    +0.000 C 
ENDROOT
BRANCH   2   3
ATOM      3  C   UNL     1      48.982   4.147  16.852  0.00  0.00    +0.000 A 
ATOM      4  C   UNL     1      49.993   3.346  17.397  0.00  0.00    +0.000 A 
ATOM      5  C   UNL     1      51.209   3.911  17.795  0.00  0.00    +0.000 A 
ATOM      6  C   UNL     1      51.451   5.284  17.637  0.00  0.00    +0.000 A 
ATOM      7  C   UNL     1      50.441   6.086  17.098  0.00  0.00    +0.000 A 
ATOM      8  C   UNL     1      49.220   5.526  16.717  0.00  0.00    +0.000 A 
BRANCH   6   9
ATOM      9  C   UNL     1      52.779   5.892  18.032  0.00  0.00    +0.000 C 
BRANCH   9  10
ATOM     10  C   UNL     1      53.875   5.802  16.991  0.00  0.00    +0.000 A 
ATOM     11  C   UNL     1      53.962   6.734  15.955  0.00  0.00    +0.000 A 
ATOM     12  C   UNL     1      54.911   6.550  14.953  0.00  0.00    +0.000 A 
ATOM     13  C   UNL     1      55.750   5.445  15.004  0.00  0.00    +0.000 A 
ATOM     14  C   UNL     1      55.613   4.574  16.069  0.00  0.00    +0.000 A 
ATOM     15  N   UNL     1      54.700   4.725  17.056  0.00  0.00    +0.000 NA
ENDBRANCH   9  10
ENDBRANCH   6   9
ENDBRANCH   2   3
BRANCH   2  16
ATOM     16  N   UNL     1      47.044   4.452  15.441  0.00  0.00    +0.000 N 
ATOM     17  C   UNL     1      46.727   4.138  14.146  0.00  0.00    +0.000 C 
ATOM     18  O   UNL     1      46.903   3.023  13.664  0.00  0.00    +0.000 OA
ATOM     19  H   UNL     1      47.174   5.435  15.660  0.00  0.00    +0.000 HD
BRANCH  17  20
ATOM     20  C   UNL     1      46.079   5.207  13.372  0.00  0.00    +0.000 A 
ATOM     21  C   UNL     1      46.753   6.398  13.141  0.00  0.00    +0.000 A 
ATOM     22  S   UNL     1      45.876   7.502  12.181  0.00  0.00    +0.000 S 
ATOM     23  C   UNL     1      44.544   6.444  12.083  0.00  0.00    +0.000 A 
ATOM     24  N   UNL     1      43.418   6.798  11.409  0.00  0.00    +0.000 NA
ATOM     25  C   UNL     1      42.480   5.908  11.439  0.00  0.00    +0.000 A 
ATOM     26  N   UNL     1      42.568   4.700  12.080  0.00  0.00    +0.000 N 
ATOM     27  C   UNL     1      43.694   4.296  12.757  0.00  0.00    +0.000 A 
ATOM     28  O   UNL     1      43.756   3.196  13.295  0.00  0.00    +0.000 OA
ATOM     29  C   UNL     1      44.777   5.259  12.758  0.00  0.00    +0.000 A 
ATOM     30  H   UNL     1      41.801   4.044  12.059  0.00  0.00    +0.000 HD
ENDBRANCH  17  20
ENDBRANCH   2  16
TORSDOF 5
ENDMDL
MODEL 7
REMARK VINA RESULT:    -6.453      4.090      8.859
REMARK INTER + INTRA:          -9.230
REMARK INTER:                  -8.466
REMARK INTRA:                  -0.764
REMARK UNBOUND:                -0.891
REMARK  Name = 
REMARK  6 active torsions:
REMARK  status: ('A' for Active; 'I' for Inactive)
REMARK    1  A    between atoms: C_1  and  C_2
REMARK    2  A    between atoms: C_2  and  N_3
REMARK    3  A    between atoms: C_2  and  C_16
REMARK    4  A    between atoms: C_4  and  C_6
REMARK    5  A    between atoms: C_19  and  C_20
REMARK    6  A    between atoms: C_20  and  C_21
REMARK                            x       y       z     vdW  Elec       q    Type
REMARK                         _______ _______ _______ _____ _____    ______ ____
ROOT
ATOM      1  C   UNL     1      47.109   5.107  18.495  0.00  0.00    +0.000 C 
ATOM      2  C   UNL     1      47.677   4.356  17.287  0.00  0.00    +0.000 C 
ENDROOT
BRANCH   2   3
ATOM      3  C   UNL     1      49.180   4.163  17.447  0.00  0.00    +0.000 A 
ATOM      4  C   UNL     1      49.738   2.880  17.468  0.00  0.00    +0.000 A 
ATOM      5  C   UNL     1      51.123   2.710  17.574  0.00  0.00    +0.000 A 
ATOM      6  C   UNL     1      51.981   3.818  17.642  0.00  0.00    +0.000 A 
ATOM      7  C   UNL     1      51.425   5.100  17.627  0.00  0.00    +0.000 A 
ATOM      8  C   UNL     1      50.041   5.270  17.538  0.00  0.00    +0.000 A 
BRANCH   6   9
ATOM      9  C   UNL     1      53.481   3.638  17.720  0.00  0.00    +0.000 C 
BRANCH   9  10
ATOM     10  C   UNL     1      53.954   2.277  18.185  0.00  0.00    +0.000 A 
ATOM     11  C   UNL     1      54.458   2.091  19.473  0.00  0.00    +0.000 A 
ATOM     12  C   UNL     1      54.991   0.853  19.823  0.00  0.00    +0.000 A 
ATOM     13  C   UNL     1      55.010  -0.171  18.884  0.00  0.00    +0.000 A 
ATOM     14  C   UNL     1      54.479   0.086  17.633  0.00  0.00    +0.000 A 
ATOM     15  N   UNL     1      53.957   1.277  17.264  0.00  0.00    +0.000 NA
ENDBRANCH   9  10
ENDBRANCH   6   9
ENDBRANCH   2   3
BRANCH   2  16
ATOM     16  N   UNL     1      47.433   5.039  16.026  0.00  0.00    +0.000 N 
ATOM     17  C   UNL     1      47.363   4.412  14.810  0.00  0.00    +0.000 C 
ATOM     18  O   UNL     1      47.455   3.195  14.678  0.00  0.00    +0.000 OA
ATOM     19  H   UNL     1      47.671   6.026  16.024  0.00  0.00    +0.000 HD
BRANCH  17  20
ATOM     20  C   UNL     1      47.089   5.283  13.659  0.00  0.00    +0.000 A 
ATOM     21  C   UNL     1      48.020   6.239  13.278  0.00  0.00    +0.000 A 
ATOM     22  S   UNL     1      47.563   7.122  11.892  0.00  0.00    +0.000 S 
ATOM     23  C   UNL     1      46.081   6.289  11.782  0.00  0.00    +0.000 A 
ATOM     24  N   UNL     1      45.183   6.585  10.806  0.00  0.00    +0.000 NA
ATOM     25  C   UNL     1      44.093   5.891  10.859  0.00  0.00    +0.000 A 
ATOM     26  N   UNL     1      43.822   4.930  11.798  0.00  0.00    +0.000 N 
ATOM     27  C   UNL     1      44.709   4.587  12.789  0.00  0.00    +0.000 A 
ATOM     28  O   UNL     1      44.454   3.701  13.598  0.00  0.00    +0.000 OA
ATOM     29  C   UNL     1      45.949   5.339  12.778  0.00  0.00    +0.000 A 
ATOM     30  H   UNL     1      42.954   4.417  11.780  0.00  0.00    +0.000 HD
ENDBRANCH  17  20
ENDBRANCH   2  16
TORSDOF 5
ENDMDL
MODEL 8
REMARK VINA RESULT:    -6.156      4.153      8.999
REMARK INTER + INTRA:          -8.847
REMARK INTER:                  -7.588
REMARK INTRA:                  -1.259
REMARK UNBOUND:                -0.891
REMARK  Name = 
REMARK  6 active torsions:
REMARK  status: ('A' for Active; 'I' for Inactive)
REMARK    1  A    between atoms: C_1  and  C_2
REMARK    2  A    between atoms: C_2  and  N_3
REMARK    3  A    between atoms: C_2  and  C_16
REMARK    4  A    between atoms: C_4  and  C_6
REMARK    5  A    between atoms: C_19  and  C_20
REMARK    6  A    between atoms: C_20  and  C_21
REMARK                            x       y       z     vdW  Elec       q    Type
REMARK                         _______ _______ _______ _____ _____    ______ ____
ROOT
ATOM      1  C   UNL     1      47.444   5.330  18.923  0.00  0.00    +0.000 C 
ATOM      2  C   UNL     1      47.916   4.500  17.725  0.00  0.00    +0.000 C 
ENDROOT
BRANCH   2   3
ATOM      3  C   UNL     1      49.430   4.329  17.769  0.00  0.00    +0.000 A 
ATOM      4  C   UNL     1      50.009   3.061  17.646  0.00  0.00    +0.000 A 
ATOM      5  C   UNL     1      51.401   2.914  17.645  0.00  0.00    +0.000 A 
ATOM      6  C   UNL     1      52.242   4.031  17.746  0.00  0.00    +0.000 A 
ATOM      7  C   UNL     1      51.665   5.298  17.875  0.00  0.00    +0.000 A 
ATOM      8  C   UNL     1      50.276   5.444  17.892  0.00  0.00    +0.000 A 
BRANCH   6   9
ATOM      9  C   UNL     1      53.747   3.880  17.709  0.00  0.00    +0.000 C 
BRANCH   9  10
ATOM     10  C   UNL     1      54.278   2.517  18.103  0.00  0.00    +0.000 A 
ATOM     11  C   UNL     1      54.585   2.220  19.431  0.00  0.00    +0.000 A 
ATOM     12  C   UNL     1      55.180   0.998  19.736  0.00  0.00    +0.000 A 
ATOM     13  C   UNL     1      55.455   0.101  18.712  0.00  0.00    +0.000 A 
ATOM     14  C   UNL     1      55.108   0.461  17.423  0.00  0.00    +0.000 A 
ATOM     15  N   UNL     1      54.532   1.640  17.097  0.00  0.00    +0.000 NA
ENDBRANCH   9  10
ENDBRANCH   6   9
ENDBRANCH   2   3
BRANCH   2  16
ATOM     16  N   UNL     1      47.557   5.092  16.446  0.00  0.00    +0.000 N 
ATOM     17  C   UNL     1      47.373   4.379  15.291  0.00  0.00    +0.000 C 
ATOM     18  O   UNL     1      47.450   3.156  15.240  0.00  0.00    +0.000 OA
ATOM     19  H   UNL     1      47.795   6.075  16.350  0.00  0.00    +0.000 HD
BRANCH  17  20
ATOM     20  C   UNL     1      46.994   5.168  14.110  0.00  0.00    +0.000 A 
ATOM     21  C   UNL     1      45.826   4.865  13.423  0.00  0.00    +0.000 A 
ATOM     22  S   UNL     1      45.515   5.914  12.114  0.00  0.00    +0.000 S 
ATOM     23  C   UNL     1      46.956   6.779  12.392  0.00  0.00    +0.000 A 
ATOM     24  N   UNL     1      47.315   7.817  11.590  0.00  0.00    +0.000 NA
ATOM     25  C   UNL     1      48.444   8.364  11.904  0.00  0.00    +0.000 A 
ATOM     26  N   UNL     1      49.244   7.967  12.944  0.00  0.00    +0.000 N 
ATOM     27  C   UNL     1      48.910   6.936  13.788  0.00  0.00    +0.000 A 
ATOM     28  O   UNL     1      49.629   6.623  14.731  0.00  0.00    +0.000 OA
ATOM     29  C   UNL     1      47.652   6.284  13.479  0.00  0.00    +0.000 A 
ATOM     30  H   UNL     1      50.111   8.442  13.142  0.00  0.00    +0.000 HD
ENDBRANCH  17  20
ENDBRANCH   2  16
TORSDOF 5
ENDMDL
MODEL 9
REMARK VINA RESULT:    -6.114      5.157      6.741
REMARK INTER + INTRA:          -8.792
REMARK INTER:                  -7.697
REMARK INTRA:                  -1.095
REMARK UNBOUND:                -0.891
REMARK  Name = 
REMARK  6 active torsions:
REMARK  status: ('A' for Active; 'I' for Inactive)
REMARK    1  A    between atoms: C_1  and  C_2
REMARK    2  A    between atoms: C_2  and  N_3
REMARK    3  A    between atoms: C_2  and  C_16
REMARK    4  A    between atoms: C_4  and  C_6
REMARK    5  A    between atoms: C_19  and  C_20
REMARK    6  A    between atoms: C_20  and  C_21
REMARK                            x       y       z     vdW  Elec       q    Type
REMARK                         _______ _______ _______ _____ _____    ______ ____
ROOT
ATOM      1  C   UNL     1      48.317  10.719  11.366  0.00  0.00    +0.000 C 
ATOM      2  C   UNL     1      48.960   9.508  12.049  0.00  0.00    +0.000 C 
ENDROOT
BRANCH   2   3
ATOM      3  C   UNL     1      50.250   9.125  11.334  0.00  0.00    +0.000 A 
ATOM      4  C   UNL     1      51.101  10.108  10.819  0.00  0.00    +0.000 A 
ATOM      5  C   UNL     1      52.304   9.752  10.199  0.00  0.00    +0.000 A 
ATOM      6  C   UNL     1      52.692   8.408  10.099  0.00  0.00    +0.000 A 
ATOM      7  C   UNL     1      51.840   7.423  10.609  0.00  0.00    +0.000 A 
ATOM      8  C   UNL     1      50.631   7.778  11.212  0.00  0.00    +0.000 A 
BRANCH   6   9
ATOM      9  C   UNL     1      54.009   8.021   9.463  0.00  0.00    +0.000 C 
BRANCH   9  10
ATOM     10  C   UNL     1      53.970   6.797   8.572  0.00  0.00    +0.000 A 
ATOM     11  C   UNL     1      52.970   6.636   7.612  0.00  0.00    +0.000 A 
ATOM     12  C   UNL     1      52.901   5.445   6.894  0.00  0.00    +0.000 A 
ATOM     13  C   UNL     1      53.827   4.442   7.148  0.00  0.00    +0.000 A 
ATOM     14  C   UNL     1      54.797   4.681   8.105  0.00  0.00    +0.000 A 
ATOM     15  N   UNL     1      54.888   5.825   8.818  0.00  0.00    +0.000 NA
ENDBRANCH   9  10
ENDBRANCH   6   9
ENDBRANCH   2   3
BRANCH   2  16
ATOM     16  N   UNL     1      48.089   8.344  12.083  0.00  0.00    +0.000 N 
ATOM     17  C   UNL     1      47.592   7.785  13.231  0.00  0.00    +0.000 C 
ATOM     18  O   UNL     1      47.802   8.250  14.347  0.00  0.00    +0.000 OA
ATOM     19  H   UNL     1      48.148   7.745  11.265  0.00  0.00    +0.000 HD
BRANCH  17  20
ATOM     20  C   UNL     1      46.713   6.622  13.044  0.00  0.00    +0.000 A 
ATOM     21  C   UNL     1      47.109   5.375  13.506  0.00  0.00    +0.000 A 
ATOM     22  S   UNL     1      45.944   4.154  13.254  0.00  0.00    +0.000 S 
ATOM     23  C   UNL     1      44.891   5.242  12.474  0.00  0.00    +0.000 A 
ATOM     24  N   UNL     1      43.696   4.825  11.977  0.00  0.00    +0.000 NA
ATOM     25  C   UNL     1      43.012   5.752  11.391  0.00  0.00    +0.000 A 
ATOM     26  N   UNL     1      43.415   7.055  11.256  0.00  0.00    +0.000 N 
ATOM     27  C   UNL     1      44.605   7.522  11.759  0.00  0.00    +0.000 A 
ATOM     28  O   UNL     1      44.926   8.701  11.652  0.00  0.00    +0.000 OA
ATOM     29  C   UNL     1      45.415   6.521  12.425  0.00  0.00    +0.000 A 
ATOM     30  H   UNL     1      42.829   7.734  10.793  0.00  0.00    +0.000 HD
ENDBRANCH  17  20
ENDBRANCH   2  16
TORSDOF 5
ENDMDL
