MODEL 1
REMARK VINA RESULT:    -7.830      0.000      0.000
REMARK INTER + INTRA:         -11.489
REMARK INTER:                 -10.805
REMARK INTRA:                  -0.684
REMARK UNBOUND:                -0.684
REMARK  Name = 
REMARK  7 active torsions:
REMARK  status: ('A' for Active; 'I' for Inactive)
REMARK    1  A    between atoms: N_1  and  C_2
REMARK    2  A    between atoms: C_2  and  C_3
REMARK    3  A    between atoms: C_3  and  C_4
REMARK    4  A    between atoms: C_7  and  C_8
REMARK    5  A    between atoms: C_8  and  O_9
REMARK    6  A    between atoms: O_9  and  C_10
REMARK    7  A    between atoms: C_12  and  C_13
REMARK                            x       y       z     vdW  Elec       q    Type
REMARK                         _______ _______ _______ _____ _____    ______ ____
ROOT
ATOM      1  C   UNL     1      43.504   4.761  10.179  0.00  0.00    +0.000 C 
ENDROOT
BRANCH   1   5
ATOM      2  C   UNL     1      46.176   2.192   7.942  0.00  0.00    +0.000 A 
ATOM      3  C   UNL     1      45.266   1.647   8.855  0.00  0.00    +0.000 A 
ATOM      4  C   UNL     1      44.415   2.474   9.593  0.00  0.00    +0.000 A 
ATOM      5  C   UNL     1      44.456   3.863   9.426  0.00  0.00    +0.000 A 
ATOM      6  C   UNL     1      45.373   4.410   8.518  0.00  0.00    +0.000 A 
ATOM      7  C   UNL     1      46.207   3.581   7.765  0.00  0.00    +0.000 A 
BRANCH   2   8
ATOM      8  C   UNL     1      47.133   1.293   7.192  0.00  0.00    +0.000 C 
BRANCH   8   9
ATOM      9  C   UNL     1      48.359   2.032   6.651  0.00  0.00    +0.000 C 
BRANCH   9  10
ATOM     10  N   UNL     1      48.377   2.018   5.183  0.00  0.00    +0.000 NA
ATOM     11  H   UNL     1      49.069   2.689   4.851  0.00  0.00    +0.000 HD
ATOM     12  H   UNL     1      47.478   2.337   4.824  0.00  0.00    +0.000 HD
ENDBRANCH   9  10
ENDBRANCH   8   9
ENDBRANCH   2   8
ENDBRANCH   1   5
BRANCH   1  13
ATOM     13  O   UNL     1      43.521   4.468  11.581  0.00  0.00    +0.000 OA
BRANCH  13  14
ATOM     14  C   UNL     1      44.594   5.074  12.205  0.00  0.00    +0.000 A 
ATOM     15  C   UNL     1      45.265   4.359  13.182  0.00  0.00    +0.000 A 
ATOM     16  C   UNL     1      46.362   4.974  13.793  0.00  0.00    +0.000 A 
ATOM     17  C   UNL     1      46.761   6.255  13.396  0.00  0.00    +0.000 A 
ATOM     18  C   UNL     1      46.024   6.877  12.411  0.00  0.00    +0.000 A 
ATOM     19  N   UNL     1      44.949   6.323  11.821  0.00  0.00    +0.000 NA
BRANCH  16  20
ATOM     20  C   UNL     1      47.154   4.280  14.838  0.00  0.00    +0.000 C 
ATOM     21  N   UNL     1      47.511   5.001  15.945  0.00  0.00    +0.000 N 
ATOM     22  O   UNL     1      47.503   3.113  14.707  0.00  0.00    +0.000 OA
ATOM     23  H   UNL     1      47.358   5.994  16.050  0.00  0.00    +0.000 HD
ATOM     24  H   UNL     1      48.080   4.533  16.640  0.00  0.00    +0.000 HD
ENDBRANCH  16  20
ENDBRANCH  13  14
ENDBRANCH   1  13
TORSDOF 7
ENDMDL
MODEL 2
REMARK VINA RESULT:    -7.508      1.691      2.432
REMARK INTER + INTRA:         -11.045
REMARK INTER:                 -10.411
REMARK INTRA:                  -0.634
REMARK UNBOUND:                -0.684
REMARK  Name = 
REMARK  7 active torsions:
REMARK  status: ('A' for Active; 'I' for Inactive)
REMARK    1  A    between atoms: N_1  and  C_2
REMARK    2  A    between atoms: C_2  and  C_3
REMARK    3  A    between atoms: C_3  and  C_4
REMARK    4  A    between atoms: C_7  and  C_8
REMARK    5  A    between atoms: C_8  and  O_9
REMARK    6  A    between atoms: O_9  and  C_10
REMARK    7  A    between atoms: C_12  and  C_13
REMARK                            x       y       z     vdW  Elec       q    Type
REMARK                         _______ _______ _______ _____ _____    ______ ____
ROOT
ATOM      1  C   UNL     1      43.645   4.723  10.409  0.00  0.00    +0.000 C 
ENDROOT
BRANCH   1   5
ATOM      2  C   UNL     1      46.205   2.310   7.885  0.00  0.00    +0.000 A 
ATOM      3  C   UNL     1      46.225   3.707   7.789  0.00  0.00    +0.000 A 
ATOM      4  C   UNL     1      45.386   4.488   8.588  0.00  0.00    +0.000 A 
ATOM      5  C   UNL     1      44.516   3.885   9.503  0.00  0.00    +0.000 A 
ATOM      6  C   UNL     1      44.489   2.488   9.594  0.00  0.00    +0.000 A 
ATOM      7  C   UNL     1      45.344   1.708   8.811  0.00  0.00    +0.000 A 
BRANCH   2   8
ATOM      8  C   UNL     1      47.074   1.472   6.975  0.00  0.00    +0.000 C 
BRANCH   8   9
ATOM      9  C   UNL     1      48.344   2.194   6.519  0.00  0.00    +0.000 C 
BRANCH   9  10
ATOM     10  N   UNL     1      48.275   2.531   5.092  0.00  0.00    +0.000 NA
ATOM     11  H   UNL     1      48.676   3.458   4.948  0.00  0.00    +0.000 HD
ATOM     12  H   UNL     1      47.302   2.595   4.800  0.00  0.00    +0.000 HD
ENDBRANCH   9  10
ENDBRANCH   8   9
ENDBRANCH   2   8
ENDBRANCH   1   5
BRANCH   1  13
ATOM     13  O   UNL     1      43.706   4.251  11.760  0.00  0.00    +0.000 OA
BRANCH  13  14
ATOM     14  C   UNL     1      44.872   4.656  12.379  0.00  0.00    +0.000 A 
ATOM     15  C   UNL     1      45.244   5.983  12.260  0.00  0.00    +0.000 A 
ATOM     16  C   UNL     1      46.416   6.386  12.909  0.00  0.00    +0.000 A 
ATOM     17  C   UNL     1      47.153   5.466  13.663  0.00  0.00    +0.000 A 
ATOM     18  C   UNL     1      46.691   4.168  13.718  0.00  0.00    +0.000 A 
ATOM     19  N   UNL     1      45.582   3.744  13.086  0.00  0.00    +0.000 NA
BRANCH  16  20
ATOM     20  C   UNL     1      46.886   7.792  12.853  0.00  0.00    +0.000 C 
ATOM     21  N   UNL     1      46.297   8.690  13.700  0.00  0.00    +0.000 N 
ATOM     22  O   UNL     1      47.748   8.146  12.059  0.00  0.00    +0.000 OA
ATOM     23  H   UNL     1      45.500   8.483  14.285  0.00  0.00    +0.000 HD
ATOM     24  H   UNL     1      46.597   9.656  13.634  0.00  0.00    +0.000 HD
ENDBRANCH  16  20
ENDBRANCH  13  14
ENDBRANCH   1  13
TORSDOF 7
ENDMDL
MODEL 3
REMARK VINA RESULT:    -6.871      2.462      6.868
REMARK INTER + INTRA:         -10.166
REMARK INTER:                  -9.614
REMARK INTRA:                  -0.552
REMARK UNBOUND:                -0.684
REMARK  Name = 
REMARK  7 active torsions:
REMARK  status: ('A' for Active; 'I' for Inactive)
REMARK    1  A    between atoms: N_1  and  C_2
REMARK    2  A    between atoms: C_2  and  C_3
REMARK    3  A    between atoms: C_3  and  C_4
REMARK    4  A    between atoms: C_7  and  C_8
REMARK    5  A    between atoms: C_8  and  O_9
REMARK    6  A    between atoms: O_9  and  C_10
REMARK    7  A    between atoms: C_12  and  C_13
REMARK                            x       y       z     vdW  Elec       q    Type
REMARK                         _______ _______ _______ _____ _____    ______ ____
ROOT
ATOM      1  C   UNL     1      43.733   4.571  10.506  0.00  0.00    +0.000 C 
ENDROOT
BRANCH   1   5
ATOM      2  C   UNL     1      46.941   6.087  12.990  0.00  0.00    +0.000 A 
ATOM      3  C   UNL     1      46.637   6.701  11.768  0.00  0.00    +0.000 A 
ATOM      4  C   UNL     1      45.616   6.202  10.955  0.00  0.00    +0.000 A 
ATOM      5  C   UNL     1      44.875   5.084  11.353  0.00  0.00    +0.000 A 
ATOM      6  C   UNL     1      45.183   4.464  12.571  0.00  0.00    +0.000 A 
ATOM      7  C   UNL     1      46.190   4.976  13.393  0.00  0.00    +0.000 A 
BRANCH   2   8
ATOM      8  C   UNL     1      48.086   6.598  13.833  0.00  0.00    +0.000 C 
BRANCH   8   9
ATOM      9  C   UNL     1      48.212   8.123  13.821  0.00  0.00    +0.000 C 
BRANCH   9  10
ATOM     10  N   UNL     1      47.200   8.742  14.686  0.00  0.00    +0.000 NA
ATOM     11  H   UNL     1      46.285   8.352  14.462  0.00  0.00    +0.000 HD
ATOM     12  H   UNL     1      47.140   9.740  14.487  0.00  0.00    +0.000 HD
ENDBRANCH   9  10
ENDBRANCH   8   9
ENDBRANCH   2   8
ENDBRANCH   1   5
BRANCH   1  13
ATOM     13  O   UNL     1      44.042   4.673   9.112  0.00  0.00    +0.000 OA
BRANCH  13  14
ATOM     14  C   UNL     1      44.767   3.580   8.678  0.00  0.00    +0.000 A 
ATOM     15  C   UNL     1      45.635   3.757   7.615  0.00  0.00    +0.000 A 
ATOM     16  C   UNL     1      46.379   2.649   7.198  0.00  0.00    +0.000 A 
ATOM     17  C   UNL     1      46.248   1.424   7.863  0.00  0.00    +0.000 A 
ATOM     18  C   UNL     1      45.356   1.358   8.911  0.00  0.00    +0.000 A 
ATOM     19  N   UNL     1      44.609   2.399   9.321  0.00  0.00    +0.000 NA
BRANCH  16  20
ATOM     20  C   UNL     1      47.347   2.745   6.078  0.00  0.00    +0.000 C 
ATOM     21  N   UNL     1      48.665   2.509   6.360  0.00  0.00    +0.000 N 
ATOM     22  O   UNL     1      46.990   3.053   4.949  0.00  0.00    +0.000 OA
ATOM     23  H   UNL     1      49.033   2.373   7.291  0.00  0.00    +0.000 HD
ATOM     24  H   UNL     1      49.328   2.610   5.600  0.00  0.00    +0.000 HD
ENDBRANCH  16  20
ENDBRANCH  13  14
ENDBRANCH   1  13
TORSDOF 7
ENDMDL
MODEL 4
REMARK VINA RESULT:    -6.786      2.035      3.105
REMARK INTER + INTRA:         -10.049
REMARK INTER:                  -9.448
REMARK INTRA:                  -0.601
REMARK UNBOUND:                -0.684
REMARK  Name = 
REMARK  7 active torsions:
REMARK  status: ('A' for Active; 'I' for Inactive)
REMARK    1  A    between atoms: N_1  and  C_2
REMARK    2  A    between atoms: C_2  and  C_3
REMARK    3  A    between atoms: C_3  and  C_4
REMARK    4  A    between atoms: C_7  and  C_8
REMARK    5  A    between atoms: C_8  and  O_9
REMARK    6  A    between atoms: O_9  and  C_10
REMARK    7  A    between atoms: C_12  and  C_13
REMARK                            x       y       z     vdW  Elec       q    Type
REMARK                         _______ _______ _______ _____ _____    ______ ____
ROOT
ATOM      1  C   UNL     1      43.743   5.121  10.728  0.00  0.00    +0.000 C 
ENDROOT
BRANCH   1   5
ATOM      2  C   UNL     1      45.926   2.437   8.124  0.00  0.00    +0.000 A 
ATOM      3  C   UNL     1      45.052   1.931   9.094  0.00  0.00    +0.000 A 
ATOM      4  C   UNL     1      44.360   2.793   9.948  0.00  0.00    +0.000 A 
ATOM      5  C   UNL     1      44.527   4.179   9.844  0.00  0.00    +0.000 A 
ATOM      6  C   UNL     1      45.408   4.685   8.880  0.00  0.00    +0.000 A 
ATOM      7  C   UNL     1      46.082   3.824   8.011  0.00  0.00    +0.000 A 
BRANCH   2   8
ATOM      8  C   UNL     1      46.714   1.494   7.244  0.00  0.00    +0.000 C 
BRANCH   8   9
ATOM      9  C   UNL     1      47.198   2.142   5.944  0.00  0.00    +0.000 C 
BRANCH   9  10
ATOM     10  N   UNL     1      48.612   1.835   5.697  0.00  0.00    +0.000 NA
ATOM     11  H   UNL     1      48.848   2.094   4.740  0.00  0.00    +0.000 HD
ATOM     12  H   UNL     1      48.764   0.830   5.764  0.00  0.00    +0.000 HD
ENDBRANCH   9  10
ENDBRANCH   8   9
ENDBRANCH   2   8
ENDBRANCH   1   5
BRANCH   1  13
ATOM     13  O   UNL     1      44.266   5.129  12.061  0.00  0.00    +0.000 OA
BRANCH  13  14
ATOM     14  C   UNL     1      45.277   6.061  12.196  0.00  0.00    +0.000 A 
ATOM     15  C   UNL     1      44.954   7.397  12.041  0.00  0.00    +0.000 A 
ATOM     16  C   UNL     1      45.982   8.332  12.201  0.00  0.00    +0.000 A 
ATOM     17  C   UNL     1      47.274   7.906  12.528  0.00  0.00    +0.000 A 
ATOM     18  C   UNL     1      47.486   6.551  12.662  0.00  0.00    +0.000 A 
ATOM     19  N   UNL     1      46.525   5.625  12.491  0.00  0.00    +0.000 NA
BRANCH  16  20
ATOM     20  C   UNL     1      45.729   9.788  12.071  0.00  0.00    +0.000 C 
ATOM     21  N   UNL     1      46.645  10.641  12.624  0.00  0.00    +0.000 N 
ATOM     22  O   UNL     1      44.724  10.215  11.517  0.00  0.00    +0.000 OA
ATOM     23  H   UNL     1      47.423  10.347  13.197  0.00  0.00    +0.000 HD
ATOM     24  H   UNL     1      46.451  11.633  12.563  0.00  0.00    +0.000 HD
ENDBRANCH  16  20
ENDBRANCH  13  14
ENDBRANCH   1  13
TORSDOF 7
ENDMDL
MODEL 5
REMARK VINA RESULT:    -6.527      2.264      7.021
REMARK INTER + INTRA:          -9.692
REMARK INTER:                  -9.254
REMARK INTRA:                  -0.438
REMARK UNBOUND:                -0.684
REMARK  Name = 
REMARK  7 active torsions:
REMARK  status: ('A' for Active; 'I' for Inactive)
REMARK    1  A    between atoms: N_1  and  C_2
REMARK    2  A    between atoms: C_2  and  C_3
REMARK    3  A    between atoms: C_3  and  C_4
REMARK    4  A    between atoms: C_7  and  C_8
REMARK    5  A    between atoms: C_8  and  O_9
REMARK    6  A    between atoms: O_9  and  C_10
REMARK    7  A    between atoms: C_12  and  C_13
REMARK                            x       y       z     vdW  Elec       q    Type
REMARK                         _______ _______ _______ _____ _____    ______ ____
ROOT
ATOM      1  C   UNL     1      45.756   5.847  10.220  0.00  0.00    +0.000 C 
ENDROOT
BRANCH   1   5
ATOM      2  C   UNL     1      47.079   5.236  14.298  0.00  0.00    +0.000 A 
ATOM      3  C   UNL     1      47.721   6.169  13.475  0.00  0.00    +0.000 A 
ATOM      4  C   UNL     1      47.309   6.355  12.153  0.00  0.00    +0.000 A 
ATOM      5  C   UNL     1      46.243   5.614  11.631  0.00  0.00    +0.000 A 
ATOM      6  C   UNL     1      45.605   4.674  12.451  0.00  0.00    +0.000 A 
ATOM      7  C   UNL     1      46.003   4.505  13.780  0.00  0.00    +0.000 A 
BRANCH   2   8
ATOM      8  C   UNL     1      47.570   5.000  15.708  0.00  0.00    +0.000 C 
BRANCH   8   9
ATOM      9  C   UNL     1      47.499   3.531  16.135  0.00  0.00    +0.000 C 
BRANCH   9  10
ATOM     10  N   UNL     1      46.730   3.380  17.376  0.00  0.00    +0.000 NA
ATOM     11  H   UNL     1      46.631   2.388  17.589  0.00  0.00    +0.000 HD
ATOM     12  H   UNL     1      45.785   3.737  17.242  0.00  0.00    +0.000 HD
ENDBRANCH   9  10
ENDBRANCH   8   9
ENDBRANCH   2   8
ENDBRANCH   1   5
BRANCH   1  13
ATOM     13  O   UNL     1      44.648   4.993   9.912  0.00  0.00    +0.000 OA
BRANCH  13  14
ATOM     14  C   UNL     1      45.063   3.856   9.246  0.00  0.00    +0.000 A 
ATOM     15  C   UNL     1      45.898   4.011   8.154  0.00  0.00    +0.000 A 
ATOM     16  C   UNL     1      46.328   2.852   7.501  0.00  0.00    +0.000 A 
ATOM     17  C   UNL     1      45.934   1.594   7.969  0.00  0.00    +0.000 A 
ATOM     18  C   UNL     1      45.102   1.552   9.068  0.00  0.00    +0.000 A 
ATOM     19  N   UNL     1      44.651   2.649   9.703  0.00  0.00    +0.000 NA
BRANCH  16  20
ATOM     20  C   UNL     1      47.238   2.917   6.331  0.00  0.00    +0.000 C 
ATOM     21  N   UNL     1      48.549   2.577   6.529  0.00  0.00    +0.000 N 
ATOM     22  O   UNL     1      46.843   3.289   5.234  0.00  0.00    +0.000 OA
ATOM     23  H   UNL     1      48.956   2.383   7.433  0.00  0.00    +0.000 HD
ATOM     24  H   UNL     1      49.174   2.656   5.736  0.00  0.00    +0.000 HD
ENDBRANCH  16  20
ENDBRANCH  13  14
ENDBRANCH   1  13
TORSDOF 7
ENDMDL
MODEL 6
REMARK VINA RESULT:    -6.490      1.893      2.823
REMARK INTER + INTRA:          -9.640
REMARK INTER:                  -9.133
REMARK INTRA:                  -0.506
REMARK UNBOUND:                -0.684
REMARK  Name = 
REMARK  7 active torsions:
REMARK  status: ('A' for Active; 'I' for Inactive)
REMARK    1  A    between atoms: N_1  and  C_2
REMARK    2  A    between atoms: C_2  and  C_3
REMARK    3  A    between atoms: C_3  and  C_4
REMARK    4  A    between atoms: C_7  and  C_8
REMARK    5  A    between atoms: C_8  and  O_9
REMARK    6  A    between atoms: O_9  and  C_10
REMARK    7  A    between atoms: C_12  and  C_13
REMARK                            x       y       z     vdW  Elec       q    Type
REMARK                         _______ _______ _______ _____ _____    ______ ____
ROOT
ATOM      1  C   UNL     1      44.481   4.573  11.765  0.00  0.00    +0.000 C 
ENDROOT
BRANCH   1   5
ATOM      2  C   UNL     1      45.822   3.171   7.894  0.00  0.00    +0.000 A 
ATOM      3  C   UNL     1      45.932   4.524   8.237  0.00  0.00    +0.000 A 
ATOM      4  C   UNL     1      45.483   4.983   9.477  0.00  0.00    +0.000 A 
ATOM      5  C   UNL     1      44.920   4.095  10.401  0.00  0.00    +0.000 A 
ATOM      6  C   UNL     1      44.802   2.743  10.056  0.00  0.00    +0.000 A 
ATOM      7  C   UNL     1      45.272   2.281   8.824  0.00  0.00    +0.000 A 
BRANCH   2   8
ATOM      8  C   UNL     1      46.256   2.695   6.527  0.00  0.00    +0.000 C 
BRANCH   8   9
ATOM      9  C   UNL     1      47.497   1.799   6.565  0.00  0.00    +0.000 C 
BRANCH   9  10
ATOM     10  N   UNL     1      48.718   2.579   6.327  0.00  0.00    +0.000 NA
ATOM     11  H   UNL     1      48.493   3.573   6.371  0.00  0.00    +0.000 HD
ATOM     12  H   UNL     1      49.058   2.407   5.382  0.00  0.00    +0.000 HD
ENDBRANCH   9  10
ENDBRANCH   8   9
ENDBRANCH   2   8
ENDBRANCH   1   5
BRANCH   1  13
ATOM     13  O   UNL     1      45.077   3.784  12.801  0.00  0.00    +0.000 OA
BRANCH  13  14
ATOM     14  C   UNL     1      46.048   4.497  13.478  0.00  0.00    +0.000 A 
ATOM     15  C   UNL     1      46.496   5.679  12.915  0.00  0.00    +0.000 A 
ATOM     16  C   UNL     1      47.464   6.403  13.618  0.00  0.00    +0.000 A 
ATOM     17  C   UNL     1      47.927   5.939  14.855  0.00  0.00    +0.000 A 
ATOM     18  C   UNL     1      47.412   4.751  15.326  0.00  0.00    +0.000 A 
ATOM     19  N   UNL     1      46.498   4.019  14.662  0.00  0.00    +0.000 NA
BRANCH  16  20
ATOM     20  C   UNL     1      47.993   7.689  13.103  0.00  0.00    +0.000 C 
ATOM     21  N   UNL     1      48.310   7.756  11.774  0.00  0.00    +0.000 N 
ATOM     22  O   UNL     1      48.169   8.650  13.842  0.00  0.00    +0.000 OA
ATOM     23  H   UNL     1      48.303   6.964  11.147  0.00  0.00    +0.000 HD
ATOM     24  H   UNL     1      48.703   8.626  11.433  0.00  0.00    +0.000 HD
ENDBRANCH  16  20
ENDBRANCH  13  14
ENDBRANCH   1  13
TORSDOF 7
ENDMDL
MODEL 7
REMARK VINA RESULT:    -6.474      1.457      1.999
REMARK INTER + INTRA:          -9.619
REMARK INTER:                  -9.222
REMARK INTRA:                  -0.396
REMARK UNBOUND:                -0.684
REMARK  Name = 
REMARK  7 active torsions:
REMARK  status: ('A' for Active; 'I' for Inactive)
REMARK    1  A    between atoms: N_1  and  C_2
REMARK    2  A    between atoms: C_2  and  C_3
REMARK    3  A    between atoms: C_3  and  C_4
REMARK    4  A    between atoms: C_7  and  C_8
REMARK    5  A    between atoms: C_8  and  O_9
REMARK    6  A    between atoms: O_9  and  C_10
REMARK    7  A    between atoms: C_12  and  C_13
REMARK                            x       y       z     vdW  Elec       q    Type
REMARK                         _______ _______ _______ _____ _____    ______ ____
ROOT
ATOM      1  C   UNL     1      44.668   4.891  11.502  0.00  0.00    +0.000 C 
ENDROOT
BRANCH   1   5
ATOM      2  C   UNL     1      45.901   3.164   7.728  0.00  0.00    +0.000 A 
ATOM      3  C   UNL     1      46.117   4.522   7.992  0.00  0.00    +0.000 A 
ATOM      4  C   UNL     1      45.703   5.087   9.201  0.00  0.00    +0.000 A 
ATOM      5  C   UNL     1      45.070   4.301  10.171  0.00  0.00    +0.000 A 
ATOM      6  C   UNL     1      44.846   2.945   9.904  0.00  0.00    +0.000 A 
ATOM      7  C   UNL     1      45.280   2.376   8.704  0.00  0.00    +0.000 A 
BRANCH   2   8
ATOM      8  C   UNL     1      46.299   2.576   6.394  0.00  0.00    +0.000 C 
BRANCH   8   9
ATOM      9  C   UNL     1      47.550   1.697   6.469  0.00  0.00    +0.000 C 
BRANCH   9  10
ATOM     10  N   UNL     1      48.767   2.493   6.266  0.00  0.00    +0.000 NA
ATOM     11  H   UNL     1      48.517   3.481   6.232  0.00  0.00    +0.000 HD
ATOM     12  H   UNL     1      49.175   2.273   5.359  0.00  0.00    +0.000 HD
ENDBRANCH   9  10
ENDBRANCH   8   9
ENDBRANCH   2   8
ENDBRANCH   1   5
BRANCH   1  13
ATOM     13  O   UNL     1      45.288   4.187  12.584  0.00  0.00    +0.000 OA
BRANCH  13  14
ATOM     14  C   UNL     1      46.266   4.955  13.186  0.00  0.00    +0.000 A 
ATOM     15  C   UNL     1      46.650   4.624  14.474  0.00  0.00    +0.000 A 
ATOM     16  C   UNL     1      47.656   5.394  15.065  0.00  0.00    +0.000 A 
ATOM     17  C   UNL     1      48.251   6.440  14.351  0.00  0.00    +0.000 A 
ATOM     18  C   UNL     1      47.795   6.683  13.074  0.00  0.00    +0.000 A 
ATOM     19  N   UNL     1      46.813   5.975  12.485  0.00  0.00    +0.000 NA
BRANCH  16  20
ATOM     20  C   UNL     1      48.145   5.106  16.436  0.00  0.00    +0.000 C 
ATOM     21  N   UNL     1      47.210   4.960  17.424  0.00  0.00    +0.000 N 
ATOM     22  O   UNL     1      49.342   5.029  16.684  0.00  0.00    +0.000 OA
ATOM     23  H   UNL     1      46.223   5.135  17.303  0.00  0.00    +0.000 HD
ATOM     24  H   UNL     1      47.551   4.798  18.364  0.00  0.00    +0.000 HD
ENDBRANCH  16  20
ENDBRANCH  13  14
ENDBRANCH   1  13
TORSDOF 7
ENDMDL
MODEL 8
REMARK VINA RESULT:    -6.161      2.289      3.735
REMARK INTER + INTRA:          -9.186
REMARK INTER:                  -8.941
REMARK INTRA:                  -0.245
REMARK UNBOUND:                -0.684
REMARK  Name = 
REMARK  7 active torsions:
REMARK  status: ('A' for Active; 'I' for Inactive)
REMARK    1  A    between atoms: N_1  and  C_2
REMARK    2  A    between atoms: C_2  and  C_3
REMARK    3  A    between atoms: C_3  and  C_4
REMARK    4  A    between atoms: C_7  and  C_8
REMARK    5  A    between atoms: C_8  and  O_9
REMARK    6  A    between atoms: O_9  and  C_10
REMARK    7  A    between atoms: C_12  and  C_13
REMARK                            x       y       z     vdW  Elec       q    Type
REMARK                         _______ _______ _______ _____ _____    ______ ____
ROOT
ATOM      1  C   UNL     1      45.990   5.385  13.457  0.00  0.00    +0.000 C 
ENDROOT
BRANCH   1   5
ATOM      2  C   UNL     1      45.061   4.033   9.450  0.00  0.00    +0.000 A 
ATOM      3  C   UNL     1      45.568   5.320   9.665  0.00  0.00    +0.000 A 
ATOM      4  C   UNL     1      45.850   5.767  10.959  0.00  0.00    +0.000 A 
ATOM      5  C   UNL     1      45.636   4.930  12.061  0.00  0.00    +0.000 A 
ATOM      6  C   UNL     1      45.122   3.645  11.846  0.00  0.00    +0.000 A 
ATOM      7  C   UNL     1      44.861   3.192  10.551  0.00  0.00    +0.000 A 
BRANCH   2   8
ATOM      8  C   UNL     1      44.703   3.580   8.053  0.00  0.00    +0.000 C 
BRANCH   8   9
ATOM      9  C   UNL     1      45.912   3.100   7.244  0.00  0.00    +0.000 C 
BRANCH   9  10
ATOM     10  N   UNL     1      46.840   4.206   6.979  0.00  0.00    +0.000 NA
ATOM     11  H   UNL     1      47.569   3.884   6.341  0.00  0.00    +0.000 HD
ATOM     12  H   UNL     1      47.314   4.473   7.840  0.00  0.00    +0.000 HD
ENDBRANCH   9  10
ENDBRANCH   8   9
ENDBRANCH   2   8
ENDBRANCH   1   5
BRANCH   1  13
ATOM     13  O   UNL     1      47.331   5.883  13.511  0.00  0.00    +0.000 OA
BRANCH  13  14
ATOM     14  C   UNL     1      47.880   5.710  14.767  0.00  0.00    +0.000 A 
ATOM     15  C   UNL     1      47.393   4.679  15.551  0.00  0.00    +0.000 A 
ATOM     16  C   UNL     1      47.970   4.500  16.812  0.00  0.00    +0.000 A 
ATOM     17  C   UNL     1      49.016   5.331  17.231  0.00  0.00    +0.000 A 
ATOM     18  C   UNL     1      49.426   6.326  16.370  0.00  0.00    +0.000 A 
ATOM     19  N   UNL     1      48.875   6.539  15.161  0.00  0.00    +0.000 NA
BRANCH  16  20
ATOM     20  C   UNL     1      47.527   3.412  17.717  0.00  0.00    +0.000 C 
ATOM     21  N   UNL     1      48.271   3.182  18.842  0.00  0.00    +0.000 N 
ATOM     22  O   UNL     1      46.549   2.722  17.457  0.00  0.00    +0.000 OA
ATOM     23  H   UNL     1      49.152   3.633  19.044  0.00  0.00    +0.000 HD
ATOM     24  H   UNL     1      47.985   2.415  19.440  0.00  0.00    +0.000 HD
ENDBRANCH  16  20
ENDBRANCH  13  14
ENDBRANCH   1  13
TORSDOF 7
ENDMDL
MODEL 9
REMARK VINA RESULT:    -5.931      2.545      4.387
REMARK INTER + INTRA:          -8.869
REMARK INTER:                  -8.475
REMARK INTRA:                  -0.394
REMARK UNBOUND:                -0.684
REMARK  Name = 
REMARK  7 active torsions:
REMARK  status: ('A' for Active; 'I' for Inactive)
REMARK    1  A    between atoms: N_1  and  C_2
REMARK    2  A    between atoms: C_2  and  C_3
REMARK    3  A    between atoms: C_3  and  C_4
REMARK    4  A    between atoms: C_7  and  C_8
REMARK    5  A    between atoms: C_8  and  O_9
REMARK    6  A    between atoms: O_9  and  C_10
REMARK    7  A    between atoms: C_12  and  C_13
REMARK                            x       y       z     vdW  Elec       q    Type
REMARK                         _______ _______ _______ _____ _____    ______ ____
ROOT
ATOM      1  C   UNL     1      46.092   4.866  13.885  0.00  0.00    +0.000 C 
ENDROOT
BRANCH   1   5
ATOM      2  C   UNL     1      45.030   4.231   9.736  0.00  0.00    +0.000 A 
ATOM      3  C   UNL     1      45.521   5.471  10.162  0.00  0.00    +0.000 A 
ATOM      4  C   UNL     1      45.847   5.685  11.503  0.00  0.00    +0.000 A 
ATOM      5  C   UNL     1      45.692   4.660  12.443  0.00  0.00    +0.000 A 
ATOM      6  C   UNL     1      45.192   3.422  12.020  0.00  0.00    +0.000 A 
ATOM      7  C   UNL     1      44.888   3.201  10.674  0.00  0.00    +0.000 A 
BRANCH   2   8
ATOM      8  C   UNL     1      44.625   4.027   8.294  0.00  0.00    +0.000 C 
BRANCH   8   9
ATOM      9  C   UNL     1      45.690   3.307   7.463  0.00  0.00    +0.000 C 
BRANCH   9  10
ATOM     10  N   UNL     1      46.762   4.230   7.068  0.00  0.00    +0.000 NA
ATOM     11  H   UNL     1      47.605   3.693   6.861  0.00  0.00    +0.000 HD
ATOM     12  H   UNL     1      46.998   4.839   7.849  0.00  0.00    +0.000 HD
ENDBRANCH   9  10
ENDBRANCH   8   9
ENDBRANCH   2   8
ENDBRANCH   1   5
BRANCH   1  13
ATOM     13  O   UNL     1      47.473   4.543  14.086  0.00  0.00    +0.000 OA
BRANCH  13  14
ATOM     14  C   UNL     1      47.712   4.155  15.390  0.00  0.00    +0.000 A 
ATOM     15  C   UNL     1      47.608   5.115  16.382  0.00  0.00    +0.000 A 
ATOM     16  C   UNL     1      47.832   4.706  17.700  0.00  0.00    +0.000 A 
ATOM     17  C   UNL     1      48.125   3.367  17.981  0.00  0.00    +0.000 A 
ATOM     18  C   UNL     1      48.201   2.493  16.918  0.00  0.00    +0.000 A 
ATOM     19  N   UNL     1      48.016   2.859  15.637  0.00  0.00    +0.000 NA
BRANCH  16  20
ATOM     20  C   UNL     1      47.727   5.659  18.833  0.00  0.00    +0.000 C 
ATOM     21  N   UNL     1      47.530   5.137  20.082  0.00  0.00    +0.000 N 
ATOM     22  O   UNL     1      47.784   6.869  18.657  0.00  0.00    +0.000 OA
ATOM     23  H   UNL     1      47.352   4.160  20.269  0.00  0.00    +0.000 HD
ATOM     24  H   UNL     1      47.424   5.792  20.847  0.00  0.00    +0.000 HD
ENDBRANCH  16  20
ENDBRANCH  13  14
ENDBRANCH   1  13
TORSDOF 7
ENDMDL
