MODEL 1
REMARK VINA RESULT:    -7.707      0.000      0.000
REMARK INTER + INTRA:         -10.420
REMARK INTER:                  -9.959
REMARK INTRA:                  -0.461
REMARK UNBOUND:                -0.461
REMARK  Name = 
REMARK  6 active torsions:
REMARK  status: ('A' for Active; 'I' for Inactive)
REMARK    1  A    between atoms: C_1  and  C_2
REMARK    2  A    between atoms: C_4  and  N_5
REMARK    3  A    between atoms: N_5  and  C_6
REMARK    4  A    between atoms: C_6  and  C_7
REMARK    5  A    between atoms: C_11  and  C_12
REMARK    6  A    between atoms: C_20  and  C_21
REMARK                            x       y       z     vdW  Elec       q    Type
REMARK                         _______ _______ _______ _____ _____    ______ ____
ROOT
ATOM      1  N   UNL     1      46.415   4.028  14.894  0.00  0.00    +0.000 N 
ATOM      2  H   UNL     1      46.114   3.104  14.611  0.00  0.00    +0.000 HD
ENDROOT
BRANCH   1   6
ATOM      3  C   UNL     1      47.652   5.720  19.393  0.00  0.00    +0.000 C 
ATOM      4  C   UNL     1      47.875   4.831  18.205  0.00  0.00    +0.000 A 
ATOM      5  C   UNL     1      47.027   4.876  17.094  0.00  0.00    +0.000 A 
ATOM      6  C   UNL     1      47.250   4.051  15.987  0.00  0.00    +0.000 A 
ATOM      7  N   UNL     1      48.286   3.188  15.957  0.00  0.00    +0.000 NA
ATOM      8  C   UNL     1      49.102   3.145  17.054  0.00  0.00    +0.000 A 
ATOM      9  C   UNL     1      48.937   3.935  18.184  0.00  0.00    +0.000 A 
BRANCH   8  10
ATOM     10  C   UNL     1      50.239   2.165  17.024  0.00  0.00    +0.000 C 
ATOM     11  N   UNL     1      51.075   2.171  18.106  0.00  0.00    +0.000 N 
ATOM     12  O   UNL     1      50.428   1.394  16.086  0.00  0.00    +0.000 OA
ATOM     13  H   UNL     1      50.909   2.817  18.869  0.00  0.00    +0.000 HD
ATOM     14  H   UNL     1      51.860   1.537  18.137  0.00  0.00    +0.000 HD
ENDBRANCH   8  10
ENDBRANCH   1   6
BRANCH   1  15
ATOM     15  C   UNL     1      46.259   5.137  13.970  0.00  0.00    +0.000 C 
BRANCH  15  16
ATOM     16  C   UNL     1      45.217   4.876  12.895  0.00  0.00    +0.000 A 
ATOM     17  C   UNL     1      43.892   5.257  13.090  0.00  0.00    +0.000 A 
ATOM     18  C   UNL     1      42.981   5.073  12.055  0.00  0.00    +0.000 A 
ATOM     19  C   UNL     1      43.414   4.516  10.856  0.00  0.00    +0.000 A 
ATOM     20  C   UNL     1      44.753   4.158  10.713  0.00  0.00    +0.000 A 
ATOM     21  N   UNL     1      45.642   4.316  11.731  0.00  0.00    +0.000 NA
BRANCH  20  22
ATOM     22  C   UNL     1      45.303   3.623   9.455  0.00  0.00    +0.000 A 
ATOM     23  C   UNL     1      45.437   2.246   9.229  0.00  0.00    +0.000 A 
ATOM     24  C   UNL     1      45.980   1.770   8.037  0.00  0.00    +0.000 A 
ATOM     25  C   UNL     1      46.384   2.689   7.086  0.00  0.00    +0.000 A 
ATOM     26  N   UNL     1      46.277   4.023   7.246  0.00  0.00    +0.000 NA
ATOM     27  C   UNL     1      45.747   4.450   8.420  0.00  0.00    +0.000 A 
ENDBRANCH  20  22
ENDBRANCH  15  16
ENDBRANCH   1  15
TORSDOF 5
ENDMDL
MODEL 2
REMARK VINA RESULT:    -7.643      1.880      2.169
REMARK INTER + INTRA:         -10.338
REMARK INTER:                  -9.674
REMARK INTRA:                  -0.664
REMARK UNBOUND:                -0.461
REMARK  Name = 
REMARK  6 active torsions:
REMARK  status: ('A' for Active; 'I' for Inactive)
REMARK    1  A    between atoms: C_1  and  C_2
REMARK    2  A    between atoms: C_4  and  N_5
REMARK    3  A    between atoms: N_5  and  C_6
REMARK    4  A    between atoms: C_6  and  C_7
REMARK    5  A    between atoms: C_11  and  C_12
REMARK    6  A    between atoms: C_20  and  C_21
REMARK                            x       y       z     vdW  Elec       q    Type
REMARK                         _______ _______ _______ _____ _____    ______ ____
ROOT
ATOM      1  N   UNL     1      47.328   6.528  13.142  0.00  0.00    +0.000 N 
ATOM      2  H   UNL     1      48.007   6.680  12.408  0.00  0.00    +0.000 HD
ENDROOT
BRANCH   1   6
ATOM      3  C   UNL     1      50.031   7.790  17.110  0.00  0.00    +0.000 C 
ATOM      4  C   UNL     1      49.161   6.831  16.351  0.00  0.00    +0.000 A 
ATOM      5  C   UNL     1      48.671   7.146  15.079  0.00  0.00    +0.000 A 
ATOM      6  C   UNL     1      47.870   6.242  14.375  0.00  0.00    +0.000 A 
ATOM      7  N   UNL     1      47.544   5.042  14.899  0.00  0.00    +0.000 NA
ATOM      8  C   UNL     1      48.018   4.751  16.148  0.00  0.00    +0.000 A 
ATOM      9  C   UNL     1      48.817   5.602  16.900  0.00  0.00    +0.000 A 
BRANCH   8  10
ATOM     10  C   UNL     1      47.632   3.424  16.735  0.00  0.00    +0.000 C 
ATOM     11  N   UNL     1      48.558   2.423  16.634  0.00  0.00    +0.000 N 
ATOM     12  O   UNL     1      46.548   3.228  17.279  0.00  0.00    +0.000 OA
ATOM     13  H   UNL     1      49.446   2.599  16.177  0.00  0.00    +0.000 HD
ATOM     14  H   UNL     1      48.350   1.508  17.007  0.00  0.00    +0.000 HD
ENDBRANCH   8  10
ENDBRANCH   1   6
BRANCH   1  15
ATOM     15  C   UNL     1      45.958   6.960  12.940  0.00  0.00    +0.000 C 
BRANCH  15  16
ATOM     16  C   UNL     1      45.084   5.893  12.301  0.00  0.00    +0.000 A 
ATOM     17  C   UNL     1      43.805   5.641  12.790  0.00  0.00    +0.000 A 
ATOM     18  C   UNL     1      43.006   4.713  12.132  0.00  0.00    +0.000 A 
ATOM     19  C   UNL     1      43.500   4.061  11.007  0.00  0.00    +0.000 A 
ATOM     20  C   UNL     1      44.785   4.355  10.557  0.00  0.00    +0.000 A 
ATOM     21  N   UNL     1      45.579   5.247  11.211  0.00  0.00    +0.000 NA
BRANCH  20  22
ATOM     22  C   UNL     1      45.358   3.757   9.339  0.00  0.00    +0.000 A 
ATOM     23  C   UNL     1      45.433   2.369   9.158  0.00  0.00    +0.000 A 
ATOM     24  C   UNL     1      46.000   1.831   8.003  0.00  0.00    +0.000 A 
ATOM     25  C   UNL     1      46.485   2.701   7.043  0.00  0.00    +0.000 A 
ATOM     26  N   UNL     1      46.435   4.043   7.160  0.00  0.00    +0.000 NA
ATOM     27  C   UNL     1      45.882   4.530   8.299  0.00  0.00    +0.000 A 
ENDBRANCH  20  22
ENDBRANCH  15  16
ENDBRANCH   1  15
TORSDOF 5
ENDMDL
MODEL 3
REMARK VINA RESULT:    -7.483      2.780      3.928
REMARK INTER + INTRA:         -10.131
REMARK INTER:                  -9.354
REMARK INTRA:                  -0.777
REMARK UNBOUND:                -0.461
REMARK  Name = 
REMARK  6 active torsions:
REMARK  status: ('A' for Active; 'I' for Inactive)
REMARK    1  A    between atoms: C_1  and  C_2
REMARK    2  A    between atoms: C_4  and  N_5
REMARK    3  A    between atoms: N_5  and  C_6
REMARK    4  A    between atoms: C_6  and  C_7
REMARK    5  A    between atoms: C_11  and  C_12
REMARK    6  A    between atoms: C_20  and  C_21
REMARK                            x       y       z     vdW  Elec       q    Type
REMARK                         _______ _______ _______ _____ _____    ______ ____
ROOT
ATOM      1  N   UNL     1      48.615   6.767  16.423  0.00  0.00    +0.000 N 
ATOM      2  H   UNL     1      47.701   7.195  16.488  0.00  0.00    +0.000 HD
ENDROOT
BRANCH   1   6
ATOM      3  C   UNL     1      48.499   4.774  20.967  0.00  0.00    +0.000 C 
ATOM      4  C   UNL     1      48.747   4.688  19.490  0.00  0.00    +0.000 A 
ATOM      5  C   UNL     1      48.574   5.800  18.658  0.00  0.00    +0.000 A 
ATOM      6  C   UNL     1      48.818   5.713  17.284  0.00  0.00    +0.000 A 
ATOM      7  N   UNL     1      49.227   4.558  16.719  0.00  0.00    +0.000 NA
ATOM      8  C   UNL     1      49.382   3.476  17.540  0.00  0.00    +0.000 A 
ATOM      9  C   UNL     1      49.156   3.493  18.910  0.00  0.00    +0.000 A 
BRANCH   8  10
ATOM     10  C   UNL     1      49.815   2.188  16.901  0.00  0.00    +0.000 C 
ATOM     11  N   UNL     1      50.826   1.511  17.524  0.00  0.00    +0.000 N 
ATOM     12  O   UNL     1      49.302   1.750  15.874  0.00  0.00    +0.000 OA
ATOM     13  H   UNL     1      51.243   1.888  18.368  0.00  0.00    +0.000 HD
ATOM     14  H   UNL     1      51.161   0.641  17.135  0.00  0.00    +0.000 HD
ENDBRANCH   8  10
ENDBRANCH   1   6
BRANCH   1  15
ATOM     15  C   UNL     1      49.440   7.031  15.258  0.00  0.00    +0.000 C 
BRANCH  15  16
ATOM     16  C   UNL     1      48.653   7.033  13.958  0.00  0.00    +0.000 A 
ATOM     17  C   UNL     1      49.149   7.690  12.834  0.00  0.00    +0.000 A 
ATOM     18  C   UNL     1      48.440   7.605  11.641  0.00  0.00    +0.000 A 
ATOM     19  C   UNL     1      47.259   6.871  11.598  0.00  0.00    +0.000 A 
ATOM     20  C   UNL     1      46.812   6.229  12.751  0.00  0.00    +0.000 A 
ATOM     21  N   UNL     1      47.491   6.327  13.926  0.00  0.00    +0.000 NA
BRANCH  20  22
ATOM     22  C   UNL     1      45.608   5.381  12.772  0.00  0.00    +0.000 A 
ATOM     23  C   UNL     1      44.318   5.924  12.839  0.00  0.00    +0.000 A 
ATOM     24  C   UNL     1      43.197   5.095  12.879  0.00  0.00    +0.000 A 
ATOM     25  C   UNL     1      43.391   3.726  12.852  0.00  0.00    +0.000 A 
ATOM     26  N   UNL     1      44.607   3.147  12.783  0.00  0.00    +0.000 NA
ATOM     27  C   UNL     1      45.674   3.985  12.750  0.00  0.00    +0.000 A 
ENDBRANCH  20  22
ENDBRANCH  15  16
ENDBRANCH   1  15
TORSDOF 5
ENDMDL
MODEL 4
REMARK VINA RESULT:    -7.466      3.840      5.364
REMARK INTER + INTRA:         -10.110
REMARK INTER:                  -9.500
REMARK INTRA:                  -0.610
REMARK UNBOUND:                -0.461
REMARK  Name = 
REMARK  6 active torsions:
REMARK  status: ('A' for Active; 'I' for Inactive)
REMARK    1  A    between atoms: C_1  and  C_2
REMARK    2  A    between atoms: C_4  and  N_5
REMARK    3  A    between atoms: N_5  and  C_6
REMARK    4  A    between atoms: C_6  and  C_7
REMARK    5  A    between atoms: C_11  and  C_12
REMARK    6  A    between atoms: C_20  and  C_21
REMARK                            x       y       z     vdW  Elec       q    Type
REMARK                         _______ _______ _______ _____ _____    ______ ____
ROOT
ATOM      1  N   UNL     1      47.319   5.449  13.462  0.00  0.00    +0.000 N 
ATOM      2  H   UNL     1      47.931   4.676  13.232  0.00  0.00    +0.000 HD
ENDROOT
BRANCH   1   6
ATOM      3  C   UNL     1      50.775   8.451  11.544  0.00  0.00    +0.000 C 
ATOM      4  C   UNL     1      49.370   8.159  11.982  0.00  0.00    +0.000 A 
ATOM      5  C   UNL     1      49.024   6.923  12.539  0.00  0.00    +0.000 A 
ATOM      6  C   UNL     1      47.714   6.665  12.953  0.00  0.00    +0.000 A 
ATOM      7  N   UNL     1      46.746   7.595  12.828  0.00  0.00    +0.000 NA
ATOM      8  C   UNL     1      47.093   8.795  12.272  0.00  0.00    +0.000 A 
ATOM      9  C   UNL     1      48.373   9.116  11.840  0.00  0.00    +0.000 A 
BRANCH   8  10
ATOM     10  C   UNL     1      46.005   9.818  12.114  0.00  0.00    +0.000 C 
ATOM     11  N   UNL     1      44.865   9.608  12.840  0.00  0.00    +0.000 N 
ATOM     12  O   UNL     1      46.113  10.795  11.377  0.00  0.00    +0.000 OA
ATOM     13  H   UNL     1      44.789   8.794  13.439  0.00  0.00    +0.000 HD
ATOM     14  H   UNL     1      44.099  10.262  12.768  0.00  0.00    +0.000 HD
ENDBRANCH   8  10
ENDBRANCH   1   6
BRANCH   1  15
ATOM     15  C   UNL     1      45.982   5.172  13.953  0.00  0.00    +0.000 C 
BRANCH  15  16
ATOM     16  C   UNL     1      44.988   4.876  12.841  0.00  0.00    +0.000 A 
ATOM     17  C   UNL     1      43.644   5.207  12.990  0.00  0.00    +0.000 A 
ATOM     18  C   UNL     1      42.778   4.993  11.923  0.00  0.00    +0.000 A 
ATOM     19  C   UNL     1      43.273   4.457  10.739  0.00  0.00    +0.000 A 
ATOM     20  C   UNL     1      44.628   4.150  10.642  0.00  0.00    +0.000 A 
ATOM     21  N   UNL     1      45.475   4.337  11.691  0.00  0.00    +0.000 NA
BRANCH  20  22
ATOM     22  C   UNL     1      45.242   3.641   9.403  0.00  0.00    +0.000 A 
ATOM     23  C   UNL     1      45.435   2.270   9.179  0.00  0.00    +0.000 A 
ATOM     24  C   UNL     1      46.037   1.819   8.005  0.00  0.00    +0.000 A 
ATOM     25  C   UNL     1      46.440   2.756   7.071  0.00  0.00    +0.000 A 
ATOM     26  N   UNL     1      46.276   4.085   7.230  0.00  0.00    +0.000 NA
ATOM     27  C   UNL     1      45.690   4.487   8.386  0.00  0.00    +0.000 A 
ENDBRANCH  20  22
ENDBRANCH  15  16
ENDBRANCH   1  15
TORSDOF 5
ENDMDL
MODEL 5
REMARK VINA RESULT:    -7.389      2.866      8.477
REMARK INTER + INTRA:         -10.009
REMARK INTER:                  -9.384
REMARK INTRA:                  -0.625
REMARK UNBOUND:                -0.461
REMARK  Name = 
REMARK  6 active torsions:
REMARK  status: ('A' for Active; 'I' for Inactive)
REMARK    1  A    between atoms: C_1  and  C_2
REMARK    2  A    between atoms: C_4  and  N_5
REMARK    3  A    between atoms: N_5  and  C_6
REMARK    4  A    between atoms: C_6  and  C_7
REMARK    5  A    between atoms: C_11  and  C_12
REMARK    6  A    between atoms: C_20  and  C_21
REMARK                            x       y       z     vdW  Elec       q    Type
REMARK                         _______ _______ _______ _____ _____    ______ ____
ROOT
ATOM      1  N   UNL     1      47.124   3.575  14.932  0.00  0.00    +0.000 N 
ATOM      2  H   UNL     1      47.326   2.593  14.801  0.00  0.00    +0.000 HD
ENDROOT
BRANCH   1   6
ATOM      3  C   UNL     1      46.744   7.480  11.892  0.00  0.00    +0.000 C 
ATOM      4  C   UNL     1      46.386   6.082  12.302  0.00  0.00    +0.000 A 
ATOM      5  C   UNL     1      46.928   5.502  13.454  0.00  0.00    +0.000 A 
ATOM      6  C   UNL     1      46.580   4.202  13.834  0.00  0.00    +0.000 A 
ATOM      7  N   UNL     1      45.715   3.468  13.104  0.00  0.00    +0.000 NA
ATOM      8  C   UNL     1      45.202   4.042  11.974  0.00  0.00    +0.000 A 
ATOM      9  C   UNL     1      45.505   5.325  11.540  0.00  0.00    +0.000 A 
BRANCH   8  10
ATOM     10  C   UNL     1      44.258   3.211  11.153  0.00  0.00    +0.000 C 
ATOM     11  N   UNL     1      44.824   2.419  10.193  0.00  0.00    +0.000 N 
ATOM     12  O   UNL     1      43.041   3.230  11.317  0.00  0.00    +0.000 OA
ATOM     13  H   UNL     1      45.830   2.419  10.065  0.00  0.00    +0.000 HD
ATOM     14  H   UNL     1      44.236   1.844   9.607  0.00  0.00    +0.000 HD
ENDBRANCH   8  10
ENDBRANCH   1   6
BRANCH   1  15
ATOM     15  C   UNL     1      47.075   4.115  16.279  0.00  0.00    +0.000 C 
BRANCH  15  16
ATOM     16  C   UNL     1      48.421   4.627  16.765  0.00  0.00    +0.000 A 
ATOM     17  C   UNL     1      48.601   5.978  17.050  0.00  0.00    +0.000 A 
ATOM     18  C   UNL     1      49.822   6.399  17.566  0.00  0.00    +0.000 A 
ATOM     19  C   UNL     1      50.829   5.465  17.784  0.00  0.00    +0.000 A 
ATOM     20  C   UNL     1      50.594   4.124  17.487  0.00  0.00    +0.000 A 
ATOM     21  N   UNL     1      49.408   3.712  16.962  0.00  0.00    +0.000 NA
BRANCH  20  22
ATOM     22  C   UNL     1      51.584   3.066  17.749  0.00  0.00    +0.000 A 
ATOM     23  C   UNL     1      51.359   1.731  17.386  0.00  0.00    +0.000 A 
ATOM     24  C   UNL     1      52.306   0.747  17.666  0.00  0.00    +0.000 A 
ATOM     25  C   UNL     1      53.471   1.122  18.311  0.00  0.00    +0.000 A 
ATOM     26  N   UNL     1      53.744   2.389  18.680  0.00  0.00    +0.000 NA
ATOM     27  C   UNL     1      52.798   3.318  18.395  0.00  0.00    +0.000 A 
ENDBRANCH  20  22
ENDBRANCH  15  16
ENDBRANCH   1  15
TORSDOF 5
ENDMDL
MODEL 6
REMARK VINA RESULT:    -7.183      2.890      7.923
REMARK INTER + INTRA:          -9.743
REMARK INTER:                  -8.999
REMARK INTRA:                  -0.744
REMARK UNBOUND:                -0.461
REMARK  Name = 
REMARK  6 active torsions:
REMARK  status: ('A' for Active; 'I' for Inactive)
REMARK    1  A    between atoms: C_1  and  C_2
REMARK    2  A    between atoms: C_4  and  N_5
REMARK    3  A    between atoms: N_5  and  C_6
REMARK    4  A    between atoms: C_6  and  C_7
REMARK    5  A    between atoms: C_11  and  C_12
REMARK    6  A    between atoms: C_20  and  C_21
REMARK                            x       y       z     vdW  Elec       q    Type
REMARK                         _______ _______ _______ _____ _____    ______ ____
ROOT
ATOM      1  N   UNL     1      46.394   6.874  11.600  0.00  0.00    +0.000 N 
ATOM      2  H   UNL     1      45.813   7.696  11.699  0.00  0.00    +0.000 HD
ENDROOT
BRANCH   1   6
ATOM      3  C   UNL     1      45.575   3.991   7.643  0.00  0.00    +0.000 C 
ATOM      4  C   UNL     1      45.371   4.349   9.086  0.00  0.00    +0.000 A 
ATOM      5  C   UNL     1      45.982   5.474   9.649  0.00  0.00    +0.000 A 
ATOM      6  C   UNL     1      45.777   5.805  10.992  0.00  0.00    +0.000 A 
ATOM      7  N   UNL     1      44.986   5.051  11.785  0.00  0.00    +0.000 NA
ATOM      8  C   UNL     1      44.404   3.948  11.226  0.00  0.00    +0.000 A 
ATOM      9  C   UNL     1      44.566   3.563   9.901  0.00  0.00    +0.000 A 
BRANCH   8  10
ATOM     10  C   UNL     1      43.545   3.100  12.119  0.00  0.00    +0.000 C 
ATOM     11  N   UNL     1      43.474   3.479  13.431  0.00  0.00    +0.000 N 
ATOM     12  O   UNL     1      42.932   2.116  11.713  0.00  0.00    +0.000 OA
ATOM     13  H   UNL     1      43.991   4.290  13.752  0.00  0.00    +0.000 HD
ATOM     14  H   UNL     1      42.915   2.942  14.078  0.00  0.00    +0.000 HD
ENDBRANCH   8  10
ENDBRANCH   1   6
BRANCH   1  15
ATOM     15  C   UNL     1      47.832   7.001  11.750  0.00  0.00    +0.000 C 
BRANCH  15  16
ATOM     16  C   UNL     1      48.264   7.217  13.191  0.00  0.00    +0.000 A 
ATOM     17  C   UNL     1      48.700   8.469  13.617  0.00  0.00    +0.000 A 
ATOM     18  C   UNL     1      49.013   8.650  14.960  0.00  0.00    +0.000 A 
ATOM     19  C   UNL     1      48.884   7.581  15.841  0.00  0.00    +0.000 A 
ATOM     20  C   UNL     1      48.437   6.351  15.363  0.00  0.00    +0.000 A 
ATOM     21  N   UNL     1      48.150   6.164  14.046  0.00  0.00    +0.000 NA
BRANCH  20  22
ATOM     22  C   UNL     1      48.212   5.191  16.241  0.00  0.00    +0.000 A 
ATOM     23  C   UNL     1      49.146   4.801  17.211  0.00  0.00    +0.000 A 
ATOM     24  C   UNL     1      48.916   3.684  18.014  0.00  0.00    +0.000 A 
ATOM     25  C   UNL     1      47.744   2.973  17.829  0.00  0.00    +0.000 A 
ATOM     26  N   UNL     1      46.808   3.303  16.916  0.00  0.00    +0.000 NA
ATOM     27  C   UNL     1      47.069   4.392  16.150  0.00  0.00    +0.000 A 
ENDBRANCH  20  22
ENDBRANCH  15  16
ENDBRANCH   1  15
TORSDOF 5
ENDMDL
MODEL 7
REMARK VINA RESULT:    -7.170      2.286      3.039
REMARK INTER + INTRA:          -9.726
REMARK INTER:                  -9.010
REMARK INTRA:                  -0.716
REMARK UNBOUND:                -0.461
REMARK  Name = 
REMARK  6 active torsions:
REMARK  status: ('A' for Active; 'I' for Inactive)
REMARK    1  A    between atoms: C_1  and  C_2
REMARK    2  A    between atoms: C_4  and  N_5
REMARK    3  A    between atoms: N_5  and  C_6
REMARK    4  A    between atoms: C_6  and  C_7
REMARK    5  A    between atoms: C_11  and  C_12
REMARK    6  A    between atoms: C_20  and  C_21
REMARK                            x       y       z     vdW  Elec       q    Type
REMARK                         _______ _______ _______ _____ _____    ______ ____
ROOT
ATOM      1  N   UNL     1      48.981   7.529  15.037  0.00  0.00    +0.000 N 
ATOM      2  H   UNL     1      48.989   8.526  15.208  0.00  0.00    +0.000 HD
ENDROOT
BRANCH   1   6
ATOM      3  C   UNL     1      48.326   7.018  19.930  0.00  0.00    +0.000 C 
ATOM      4  C   UNL     1      48.355   6.470  18.534  0.00  0.00    +0.000 A 
ATOM      5  C   UNL     1      48.679   7.281  17.442  0.00  0.00    +0.000 A 
ATOM      6  C   UNL     1      48.714   6.758  16.146  0.00  0.00    +0.000 A 
ATOM      7  N   UNL     1      48.437   5.459  15.908  0.00  0.00    +0.000 NA
ATOM      8  C   UNL     1      48.110   4.679  16.983  0.00  0.00    +0.000 A 
ATOM      9  C   UNL     1      48.056   5.134  18.293  0.00  0.00    +0.000 A 
BRANCH   8  10
ATOM     10  C   UNL     1      47.779   3.240  16.709  0.00  0.00    +0.000 C 
ATOM     11  N   UNL     1      46.885   2.650  17.559  0.00  0.00    +0.000 N 
ATOM     12  O   UNL     1      48.275   2.609  15.779  0.00  0.00    +0.000 OA
ATOM     13  H   UNL     1      46.489   3.183  18.325  0.00  0.00    +0.000 HD
ATOM     14  H   UNL     1      46.630   1.683  17.425  0.00  0.00    +0.000 HD
ENDBRANCH   8  10
ENDBRANCH   1   6
BRANCH   1  15
ATOM     15  C   UNL     1      48.887   7.045  13.672  0.00  0.00    +0.000 C 
BRANCH  15  16
ATOM     16  C   UNL     1      47.496   7.197  13.080  0.00  0.00    +0.000 A 
ATOM     17  C   UNL     1      46.778   8.377  13.258  0.00  0.00    +0.000 A 
ATOM     18  C   UNL     1      45.541   8.510  12.638  0.00  0.00    +0.000 A 
ATOM     19  C   UNL     1      45.053   7.467  11.857  0.00  0.00    +0.000 A 
ATOM     20  C   UNL     1      45.815   6.311  11.707  0.00  0.00    +0.000 A 
ATOM     21  N   UNL     1      47.017   6.168  12.331  0.00  0.00    +0.000 NA
BRANCH  20  22
ATOM     22  C   UNL     1      45.399   5.190  10.848  0.00  0.00    +0.000 A 
ATOM     23  C   UNL     1      45.640   5.183   9.467  0.00  0.00    +0.000 A 
ATOM     24  C   UNL     1      45.215   4.117   8.675  0.00  0.00    +0.000 A 
ATOM     25  C   UNL     1      44.551   3.068   9.286  0.00  0.00    +0.000 A 
ATOM     26  N   UNL     1      44.296   3.018  10.609  0.00  0.00    +0.000 NA
ATOM     27  C   UNL     1      44.719   4.075  11.346  0.00  0.00    +0.000 A 
ENDBRANCH  20  22
ENDBRANCH  15  16
ENDBRANCH   1  15
TORSDOF 5
ENDMDL
MODEL 8
REMARK VINA RESULT:    -6.958      1.964      2.284
REMARK INTER + INTRA:          -9.452
REMARK INTER:                  -8.974
REMARK INTRA:                  -0.478
REMARK UNBOUND:                -0.461
REMARK  Name = 
REMARK  6 active torsions:
REMARK  status: ('A' for Active; 'I' for Inactive)
REMARK    1  A    between atoms: C_1  and  C_2
REMARK    2  A    between atoms: C_4  and  N_5
REMARK    3  A    between atoms: N_5  and  C_6
REMARK    4  A    between atoms: C_6  and  C_7
REMARK    5  A    between atoms: C_11  and  C_12
REMARK    6  A    between atoms: C_20  and  C_21
REMARK                            x       y       z     vdW  Elec       q    Type
REMARK                         _______ _______ _______ _____ _____    ______ ____
ROOT
ATOM      1  N   UNL     1      46.493   4.587  14.532  0.00  0.00    +0.000 N 
ATOM      2  H   UNL     1      46.383   3.631  14.221  0.00  0.00    +0.000 HD
ENDROOT
BRANCH   1   6
ATOM      3  C   UNL     1      48.411   3.226  18.903  0.00  0.00    +0.000 C 
ATOM      4  C   UNL     1      48.380   4.104  17.687  0.00  0.00    +0.000 A 
ATOM      5  C   UNL     1      47.418   3.926  16.686  0.00  0.00    +0.000 A 
ATOM      6  C   UNL     1      47.391   4.756  15.562  0.00  0.00    +0.000 A 
ATOM      7  N   UNL     1      48.287   5.752  15.407  0.00  0.00    +0.000 NA
ATOM      8  C   UNL     1      49.229   5.909  16.385  0.00  0.00    +0.000 A 
ATOM      9  C   UNL     1      49.313   5.120  17.525  0.00  0.00    +0.000 A 
BRANCH   8  10
ATOM     10  C   UNL     1      50.239   7.004  16.194  0.00  0.00    +0.000 C 
ATOM     11  N   UNL     1      49.770   8.285  16.290  0.00  0.00    +0.000 N 
ATOM     12  O   UNL     1      51.425   6.782  15.963  0.00  0.00    +0.000 OA
ATOM     13  H   UNL     1      48.788   8.452  16.476  0.00  0.00    +0.000 HD
ATOM     14  H   UNL     1      50.404   9.061  16.165  0.00  0.00    +0.000 HD
ENDBRANCH   8  10
ENDBRANCH   1   6
BRANCH   1  15
ATOM     15  C   UNL     1      46.019   5.667  13.686  0.00  0.00    +0.000 C 
BRANCH  15  16
ATOM     16  C   UNL     1      45.015   5.208  12.641  0.00  0.00    +0.000 A 
ATOM     17  C   UNL     1      43.658   5.473  12.802  0.00  0.00    +0.000 A 
ATOM     18  C   UNL     1      42.778   5.107  11.789  0.00  0.00    +0.000 A 
ATOM     19  C   UNL     1      43.273   4.490  10.644  0.00  0.00    +0.000 A 
ATOM     20  C   UNL     1      44.641   4.255  10.533  0.00  0.00    +0.000 A 
ATOM     21  N   UNL     1      45.503   4.591  11.531  0.00  0.00    +0.000 NA
BRANCH  20  22
ATOM     22  C   UNL     1      45.251   3.665   9.328  0.00  0.00    +0.000 A 
ATOM     23  C   UNL     1      45.395   2.280   9.170  0.00  0.00    +0.000 A 
ATOM     24  C   UNL     1      45.995   1.752   8.028  0.00  0.00    +0.000 A 
ATOM     25  C   UNL     1      46.445   2.629   7.057  0.00  0.00    +0.000 A 
ATOM     26  N   UNL     1      46.330   3.968   7.152  0.00  0.00    +0.000 NA
ATOM     27  C   UNL     1      45.744   4.446   8.279  0.00  0.00    +0.000 A 
ENDBRANCH  20  22
ENDBRANCH  15  16
ENDBRANCH   1  15
TORSDOF 5
ENDMDL
MODEL 9
REMARK VINA RESULT:    -6.898      3.114      8.386
REMARK INTER + INTRA:          -9.376
REMARK INTER:                  -8.701
REMARK INTRA:                  -0.675
REMARK UNBOUND:                -0.461
REMARK  Name = 
REMARK  6 active torsions:
REMARK  status: ('A' for Active; 'I' for Inactive)
REMARK    1  A    between atoms: C_1  and  C_2
REMARK    2  A    between atoms: C_4  and  N_5
REMARK    3  A    between atoms: N_5  and  C_6
REMARK    4  A    between atoms: C_6  and  C_7
REMARK    5  A    between atoms: C_11  and  C_12
REMARK    6  A    between atoms: C_20  and  C_21
REMARK                            x       y       z     vdW  Elec       q    Type
REMARK                         _______ _______ _______ _____ _____    ______ ____
ROOT
ATOM      1  N   UNL     1      45.696   6.035   9.592  0.00  0.00    +0.000 N 
ATOM      2  H   UNL     1      46.165   6.714   9.006  0.00  0.00    +0.000 HD
ENDROOT
BRANCH   1   6
ATOM      3  C   UNL     1      43.965   1.384   9.590  0.00  0.00    +0.000 C 
ATOM      4  C   UNL     1      44.828   2.475   9.029  0.00  0.00    +0.000 A 
ATOM      5  C   UNL     1      44.857   3.749   9.608  0.00  0.00    +0.000 A 
ATOM      6  C   UNL     1      45.672   4.757   9.084  0.00  0.00    +0.000 A 
ATOM      7  N   UNL     1      46.453   4.534   8.007  0.00  0.00    +0.000 NA
ATOM      8  C   UNL     1      46.407   3.289   7.443  0.00  0.00    +0.000 A 
ATOM      9  C   UNL     1      45.621   2.245   7.912  0.00  0.00    +0.000 A 
BRANCH   8  10
ATOM     10  C   UNL     1      47.261   3.055   6.230  0.00  0.00    +0.000 C 
ATOM     11  N   UNL     1      48.600   2.886   6.453  0.00  0.00    +0.000 N 
ATOM     12  O   UNL     1      46.803   3.016   5.091  0.00  0.00    +0.000 OA
ATOM     13  H   UNL     1      48.964   2.926   7.399  0.00  0.00    +0.000 HD
ATOM     14  H   UNL     1      49.222   2.731   5.674  0.00  0.00    +0.000 HD
ENDBRANCH   8  10
ENDBRANCH   1   6
BRANCH   1  15
ATOM     15  C   UNL     1      45.439   6.359  10.983  0.00  0.00    +0.000 C 
BRANCH  15  16
ATOM     16  C   UNL     1      46.708   6.542  11.798  0.00  0.00    +0.000 A 
ATOM     17  C   UNL     1      47.721   7.384  11.347  0.00  0.00    +0.000 A 
ATOM     18  C   UNL     1      48.835   7.587  12.155  0.00  0.00    +0.000 A 
ATOM     19  C   UNL     1      48.909   6.948  13.389  0.00  0.00    +0.000 A 
ATOM     20  C   UNL     1      47.864   6.121  13.793  0.00  0.00    +0.000 A 
ATOM     21  N   UNL     1      46.783   5.902  12.996  0.00  0.00    +0.000 NA
BRANCH  20  22
ATOM     22  C   UNL     1      47.837   5.461  15.110  0.00  0.00    +0.000 A 
ATOM     23  C   UNL     1      48.584   5.938  16.196  0.00  0.00    +0.000 A 
ATOM     24  C   UNL     1      48.554   5.279  17.424  0.00  0.00    +0.000 A 
ATOM     25  C   UNL     1      47.772   4.144  17.543  0.00  0.00    +0.000 A 
ATOM     26  N   UNL     1      47.030   3.642  16.536  0.00  0.00    +0.000 NA
ATOM     27  C   UNL     1      47.087   4.307  15.354  0.00  0.00    +0.000 A 
ENDBRANCH  20  22
ENDBRANCH  15  16
ENDBRANCH   1  15
TORSDOF 5
ENDMDL
