MODEL 1
REMARK VINA RESULT:    -7.712      0.000      0.000
REMARK INTER + INTRA:         -10.856
REMARK INTER:                 -10.191
REMARK INTRA:                  -0.665
REMARK UNBOUND:                -0.665
REMARK  Name = 
REMARK  7 active torsions:
REMARK  status: ('A' for Active; 'I' for Inactive)
REMARK    1  A    between atoms: C_1  and  O_2
REMARK    2  A    between atoms: O_2  and  C_3
REMARK    3  A    between atoms: N_9  and  C_10
REMARK    4  A    between atoms: C_10  and  C_11
REMARK    5  A    between atoms: C_14  and  C_15
REMARK    6  A    between atoms: C_15  and  C_16
REMARK    7  A    between atoms: C_16  and  N_17
REMARK                            x       y       z     vdW  Elec       q    Type
REMARK                         _______ _______ _______ _____ _____    ______ ____
ROOT
ATOM      1  C   UNL     1      43.988   4.781  10.825  0.00  0.00    +0.000 C 
ENDROOT
BRANCH   1   8
ATOM      2  C   UNL     1      47.094   4.278  14.129  0.00  0.00    +0.000 A 
ATOM      3  C   UNL     1      47.506   5.537  14.556  0.00  0.00    +0.000 A 
ATOM      4  N   UNL     1      47.128   6.719  14.018  0.00  0.00    +0.000 NA
ATOM      5  C   UNL     1      46.273   6.620  12.972  0.00  0.00    +0.000 A 
ATOM      6  C   UNL     1      45.689   7.659  12.214  0.00  0.00    +0.000 A 
ATOM      7  C   UNL     1      44.862   7.075  11.281  0.00  0.00    +0.000 A 
ATOM      8  N   UNL     1      44.921   5.709  11.452  0.00  0.00    +0.000 N 
ATOM      9  C   UNL     1      45.802   5.406  12.472  0.00  0.00    +0.000 A 
ATOM     10  C   UNL     1      46.224   4.197  13.042  0.00  0.00    +0.000 A 
BRANCH   2  12
ATOM     11  C   UNL     1      47.867   3.105  16.030  0.00  0.00    +0.000 C 
ATOM     12  O   UNL     1      47.483   3.080  14.660  0.00  0.00    +0.000 OA
ENDBRANCH   2  12
ENDBRANCH   1   8
BRANCH   1  13
ATOM     13  C   UNL     1      44.586   3.935   9.739  0.00  0.00    +0.000 A 
ATOM     14  C   UNL     1      45.347   4.495   8.711  0.00  0.00    +0.000 A 
ATOM     15  C   UNL     1      46.058   3.669   7.845  0.00  0.00    +0.000 A 
ATOM     16  C   UNL     1      45.991   2.290   8.013  0.00  0.00    +0.000 A 
ATOM     17  N   UNL     1      45.194   1.721   8.950  0.00  0.00    +0.000 NA
ATOM     18  C   UNL     1      44.510   2.546   9.778  0.00  0.00    +0.000 A 
BRANCH  16  19
ATOM     19  C   UNL     1      46.925   1.384   7.246  0.00  0.00    +0.000 C 
BRANCH  19  20
ATOM     20  C   UNL     1      48.219   2.070   6.811  0.00  0.00    +0.000 C 
BRANCH  20  21
ATOM     21  N   UNL     1      48.426   1.911   5.367  0.00  0.00    +0.000 NA
ATOM     22  H   UNL     1      49.198   2.499   5.059  0.00  0.00    +0.000 HD
ATOM     23  H   UNL     1      47.598   2.241   4.871  0.00  0.00    +0.000 HD
ENDBRANCH  20  21
ENDBRANCH  19  20
ENDBRANCH  16  19
ENDBRANCH   1  13
TORSDOF 6
ENDMDL
MODEL 2
REMARK VINA RESULT:    -7.526      2.059      3.374
REMARK INTER + INTRA:         -10.611
REMARK INTER:                  -9.948
REMARK INTRA:                  -0.663
REMARK UNBOUND:                -0.665
REMARK  Name = 
REMARK  7 active torsions:
REMARK  status: ('A' for Active; 'I' for Inactive)
REMARK    1  A    between atoms: C_1  and  O_2
REMARK    2  A    between atoms: O_2  and  C_3
REMARK    3  A    between atoms: N_9  and  C_10
REMARK    4  A    between atoms: C_10  and  C_11
REMARK    5  A    between atoms: C_14  and  C_15
REMARK    6  A    between atoms: C_15  and  C_16
REMARK    7  A    between atoms: C_16  and  N_17
REMARK                            x       y       z     vdW  Elec       q    Type
REMARK                         _______ _______ _______ _____ _____    ______ ____
ROOT
ATOM      1  C   UNL     1      43.695   4.402  10.755  0.00  0.00    +0.000 C 
ENDROOT
BRANCH   1   8
ATOM      2  C   UNL     1      45.131   8.601  11.812  0.00  0.00    +0.000 A 
ATOM      3  C   UNL     1      46.159   8.505  12.744  0.00  0.00    +0.000 A 
ATOM      4  N   UNL     1      46.600   7.365  13.322  0.00  0.00    +0.000 NA
ATOM      5  C   UNL     1      45.953   6.241  12.931  0.00  0.00    +0.000 A 
ATOM      6  C   UNL     1      46.185   4.908  13.334  0.00  0.00    +0.000 A 
ATOM      7  C   UNL     1      45.305   4.107  12.641  0.00  0.00    +0.000 A 
ATOM      8  N   UNL     1      44.546   4.914  11.822  0.00  0.00    +0.000 N 
ATOM      9  C   UNL     1      44.912   6.234  12.002  0.00  0.00    +0.000 A 
ATOM     10  C   UNL     1      44.469   7.435  11.431  0.00  0.00    +0.000 A 
BRANCH   2  12
ATOM     11  C   UNL     1      43.364   9.687  10.675  0.00  0.00    +0.000 C 
ATOM     12  O   UNL     1      44.672   9.753  11.234  0.00  0.00    +0.000 OA
ENDBRANCH   2  12
ENDBRANCH   1   8
BRANCH   1  13
ATOM     13  C   UNL     1      44.429   3.661   9.675  0.00  0.00    +0.000 A 
ATOM     14  C   UNL     1      45.244   4.327   8.756  0.00  0.00    +0.000 A 
ATOM     15  C   UNL     1      46.070   3.597   7.907  0.00  0.00    +0.000 A 
ATOM     16  C   UNL     1      46.064   2.207   7.980  0.00  0.00    +0.000 A 
ATOM     17  N   UNL     1      45.221   1.539   8.804  0.00  0.00    +0.000 NA
ATOM     18  C   UNL     1      44.426   2.271   9.619  0.00  0.00    +0.000 A 
BRANCH  16  19
ATOM     19  C   UNL     1      47.108   1.402   7.243  0.00  0.00    +0.000 C 
BRANCH  19  20
ATOM     20  C   UNL     1      48.248   2.250   6.682  0.00  0.00    +0.000 C 
BRANCH  20  21
ATOM     21  N   UNL     1      48.395   2.026   5.239  0.00  0.00    +0.000 NA
ATOM     22  H   UNL     1      49.168   1.386   5.064  0.00  0.00    +0.000 HD
ATOM     23  H   UNL     1      48.642   2.905   4.786  0.00  0.00    +0.000 HD
ENDBRANCH  20  21
ENDBRANCH  19  20
ENDBRANCH  16  19
ENDBRANCH   1  13
TORSDOF 6
ENDMDL
MODEL 3
REMARK VINA RESULT:    -7.238      1.761      2.496
REMARK INTER + INTRA:         -10.230
REMARK INTER:                  -9.538
REMARK INTRA:                  -0.692
REMARK UNBOUND:                -0.665
REMARK  Name = 
REMARK  7 active torsions:
REMARK  status: ('A' for Active; 'I' for Inactive)
REMARK    1  A    between atoms: C_1  and  O_2
REMARK    2  A    between atoms: O_2  and  C_3
REMARK    3  A    between atoms: N_9  and  C_10
REMARK    4  A    between atoms: C_10  and  C_11
REMARK    5  A    between atoms: C_14  and  C_15
REMARK    6  A    between atoms: C_15  and  C_16
REMARK    7  A    between atoms: C_16  and  N_17
REMARK                            x       y       z     vdW  Elec       q    Type
REMARK                         _______ _______ _______ _____ _____    ______ ____
ROOT
ATOM      1  C   UNL     1      43.724   4.700  10.304  0.00  0.00    +0.000 C 
ENDROOT
BRANCH   1   8
ATOM      2  C   UNL     1      47.413   6.730  12.061  0.00  0.00    +0.000 A 
ATOM      3  C   UNL     1      47.653   6.210  13.329  0.00  0.00    +0.000 A 
ATOM      4  N   UNL     1      46.871   5.321  13.982  0.00  0.00    +0.000 NA
ATOM      5  C   UNL     1      45.764   4.932  13.304  0.00  0.00    +0.000 A 
ATOM      6  C   UNL     1      44.768   4.014  13.703  0.00  0.00    +0.000 A 
ATOM      7  C   UNL     1      43.862   3.913  12.670  0.00  0.00    +0.000 A 
ATOM      8  N   UNL     1      44.281   4.740  11.651  0.00  0.00    +0.000 N 
ATOM      9  C   UNL     1      45.438   5.394  12.029  0.00  0.00    +0.000 A 
ATOM     10  C   UNL     1      46.263   6.327  11.385  0.00  0.00    +0.000 A 
BRANCH   2  12
ATOM     11  C   UNL     1      49.594   7.545  11.643  0.00  0.00    +0.000 C 
ATOM     12  O   UNL     1      48.193   7.639  11.401  0.00  0.00    +0.000 OA
ENDBRANCH   2  12
ENDBRANCH   1   8
BRANCH   1  13
ATOM     13  C   UNL     1      44.487   3.838   9.340  0.00  0.00    +0.000 A 
ATOM     14  C   UNL     1      45.326   4.392   8.371  0.00  0.00    +0.000 A 
ATOM     15  C   UNL     1      46.176   3.569   7.637  0.00  0.00    +0.000 A 
ATOM     16  C   UNL     1      46.167   2.198   7.875  0.00  0.00    +0.000 A 
ATOM     17  N   UNL     1      45.302   1.629   8.749  0.00  0.00    +0.000 NA
ATOM     18  C   UNL     1      44.485   2.452   9.449  0.00  0.00    +0.000 A 
BRANCH  16  19
ATOM     19  C   UNL     1      47.230   1.314   7.267  0.00  0.00    +0.000 C 
BRANCH  19  20
ATOM     20  C   UNL     1      48.392   2.092   6.652  0.00  0.00    +0.000 C 
BRANCH  20  21
ATOM     21  N   UNL     1      48.403   1.934   5.193  0.00  0.00    +0.000 NA
ATOM     22  H   UNL     1      47.458   2.028   4.826  0.00  0.00    +0.000 HD
ATOM     23  H   UNL     1      48.710   0.990   4.960  0.00  0.00    +0.000 HD
ENDBRANCH  20  21
ENDBRANCH  19  20
ENDBRANCH  16  19
ENDBRANCH   1  13
TORSDOF 6
ENDMDL
MODEL 4
REMARK VINA RESULT:    -6.612      2.564      6.817
REMARK INTER + INTRA:          -9.403
REMARK INTER:                  -8.685
REMARK INTRA:                  -0.718
REMARK UNBOUND:                -0.665
REMARK  Name = 
REMARK  7 active torsions:
REMARK  status: ('A' for Active; 'I' for Inactive)
REMARK    1  A    between atoms: C_1  and  O_2
REMARK    2  A    between atoms: O_2  and  C_3
REMARK    3  A    between atoms: N_9  and  C_10
REMARK    4  A    between atoms: C_10  and  C_11
REMARK    5  A    between atoms: C_14  and  C_15
REMARK    6  A    between atoms: C_15  and  C_16
REMARK    7  A    between atoms: C_16  and  N_17
REMARK                            x       y       z     vdW  Elec       q    Type
REMARK                         _______ _______ _______ _____ _____    ______ ____
ROOT
ATOM      1  C   UNL     1      44.639   6.419  12.010  0.00  0.00    +0.000 C 
ENDROOT
BRANCH   1   8
ATOM      2  C   UNL     1      45.509   3.866   8.330  0.00  0.00    +0.000 A 
ATOM      3  C   UNL     1      44.842   2.651   8.456  0.00  0.00    +0.000 A 
ATOM      4  N   UNL     1      44.132   2.245   9.533  0.00  0.00    +0.000 NA
ATOM      5  C   UNL     1      44.095   3.131  10.558  0.00  0.00    +0.000 A 
ATOM      6  C   UNL     1      43.433   3.011  11.799  0.00  0.00    +0.000 A 
ATOM      7  C   UNL     1      43.652   4.177  12.498  0.00  0.00    +0.000 A 
ATOM      8  N   UNL     1      44.425   5.007  11.716  0.00  0.00    +0.000 N 
ATOM      9  C   UNL     1      44.729   4.373  10.526  0.00  0.00    +0.000 A 
ATOM     10  C   UNL     1      45.470   4.759   9.400  0.00  0.00    +0.000 A 
BRANCH   2  12
ATOM     11  C   UNL     1      46.678   3.245   6.371  0.00  0.00    +0.000 C 
ATOM     12  O   UNL     1      46.239   4.276   7.250  0.00  0.00    +0.000 OA
ENDBRANCH   2  12
ENDBRANCH   1   8
BRANCH   1  13
ATOM     13  C   UNL     1      45.980   6.734  12.605  0.00  0.00    +0.000 A 
ATOM     14  C   UNL     1      46.318   8.031  13.000  0.00  0.00    +0.000 A 
ATOM     15  C   UNL     1      47.479   8.252  13.736  0.00  0.00    +0.000 A 
ATOM     16  C   UNL     1      48.293   7.172  14.061  0.00  0.00    +0.000 A 
ATOM     17  N   UNL     1      48.030   5.918  13.618  0.00  0.00    +0.000 NA
ATOM     18  C   UNL     1      46.896   5.730  12.901  0.00  0.00    +0.000 A 
BRANCH  16  19
ATOM     19  C   UNL     1      49.425   7.342  15.047  0.00  0.00    +0.000 C 
BRANCH  19  20
ATOM     20  C   UNL     1      49.378   6.350  16.207  0.00  0.00    +0.000 C 
BRANCH  20  21
ATOM     21  N   UNL     1      47.989   6.012  16.540  0.00  0.00    +0.000 NA
ATOM     22  H   UNL     1      47.936   5.055  16.882  0.00  0.00    +0.000 HD
ATOM     23  H   UNL     1      47.423   6.047  15.693  0.00  0.00    +0.000 HD
ENDBRANCH  20  21
ENDBRANCH  19  20
ENDBRANCH  16  19
ENDBRANCH   1  13
TORSDOF 6
ENDMDL
MODEL 5
REMARK VINA RESULT:    -5.965      2.383      2.778
REMARK INTER + INTRA:          -8.548
REMARK INTER:                  -7.789
REMARK INTRA:                  -0.760
REMARK UNBOUND:                -0.665
REMARK  Name = 
REMARK  7 active torsions:
REMARK  status: ('A' for Active; 'I' for Inactive)
REMARK    1  A    between atoms: C_1  and  O_2
REMARK    2  A    between atoms: O_2  and  C_3
REMARK    3  A    between atoms: N_9  and  C_10
REMARK    4  A    between atoms: C_10  and  C_11
REMARK    5  A    between atoms: C_14  and  C_15
REMARK    6  A    between atoms: C_15  and  C_16
REMARK    7  A    between atoms: C_16  and  N_17
REMARK                            x       y       z     vdW  Elec       q    Type
REMARK                         _______ _______ _______ _____ _____    ______ ____
ROOT
ATOM      1  C   UNL     1      44.785   4.870  11.414  0.00  0.00    +0.000 C 
ENDROOT
BRANCH   1   8
ATOM      2  C   UNL     1      47.962   7.972  12.465  0.00  0.00    +0.000 A 
ATOM      3  C   UNL     1      47.365   9.227  12.519  0.00  0.00    +0.000 A 
ATOM      4  N   UNL     1      46.078   9.507  12.214  0.00  0.00    +0.000 NA
ATOM      5  C   UNL     1      45.341   8.439  11.824  0.00  0.00    +0.000 A 
ATOM      6  C   UNL     1      43.978   8.399  11.459  0.00  0.00    +0.000 A 
ATOM      7  C   UNL     1      43.663   7.089  11.176  0.00  0.00    +0.000 A 
ATOM      8  N   UNL     1      44.797   6.327  11.364  0.00  0.00    +0.000 N 
ATOM      9  C   UNL     1      45.847   7.142  11.740  0.00  0.00    +0.000 A 
ATOM     10  C   UNL     1      47.190   6.887  12.050  0.00  0.00    +0.000 A 
BRANCH   2  12
ATOM     11  C   UNL     1      50.153   7.622  11.647  0.00  0.00    +0.000 C 
ATOM     12  O   UNL     1      49.266   7.685  12.759  0.00  0.00    +0.000 OA
ENDBRANCH   2  12
ENDBRANCH   1   8
BRANCH   1  13
ATOM     13  C   UNL     1      45.045   4.199  10.097  0.00  0.00    +0.000 A 
ATOM     14  C   UNL     1      45.616   4.890   9.025  0.00  0.00    +0.000 A 
ATOM     15  C   UNL     1      46.036   4.192   7.896  0.00  0.00    +0.000 A 
ATOM     16  C   UNL     1      45.870   2.811   7.849  0.00  0.00    +0.000 A 
ATOM     17  N   UNL     1      45.243   2.132   8.840  0.00  0.00    +0.000 NA
ATOM     18  C   UNL     1      44.842   2.834   9.926  0.00  0.00    +0.000 A 
BRANCH  16  19
ATOM     19  C   UNL     1      46.519   2.004   6.750  0.00  0.00    +0.000 C 
BRANCH  19  20
ATOM     20  C   UNL     1      47.529   0.978   7.261  0.00  0.00    +0.000 C 
BRANCH  20  21
ATOM     21  N   UNL     1      46.844  -0.241   7.705  0.00  0.00    +0.000 NA
ATOM     22  H   UNL     1      45.962  -0.000   8.155  0.00  0.00    +0.000 HD
ATOM     23  H   UNL     1      47.411  -0.706   8.414  0.00  0.00    +0.000 HD
ENDBRANCH  20  21
ENDBRANCH  19  20
ENDBRANCH  16  19
ENDBRANCH   1  13
TORSDOF 6
ENDMDL
MODEL 6
REMARK VINA RESULT:    -5.736      2.569      4.033
REMARK INTER + INTRA:          -8.245
REMARK INTER:                  -7.555
REMARK INTRA:                  -0.690
REMARK UNBOUND:                -0.665
REMARK  Name = 
REMARK  7 active torsions:
REMARK  status: ('A' for Active; 'I' for Inactive)
REMARK    1  A    between atoms: C_1  and  O_2
REMARK    2  A    between atoms: O_2  and  C_3
REMARK    3  A    between atoms: N_9  and  C_10
REMARK    4  A    between atoms: C_10  and  C_11
REMARK    5  A    between atoms: C_14  and  C_15
REMARK    6  A    between atoms: C_15  and  C_16
REMARK    7  A    between atoms: C_16  and  N_17
REMARK                            x       y       z     vdW  Elec       q    Type
REMARK                         _______ _______ _______ _____ _____    ______ ____
ROOT
ATOM      1  C   UNL     1      44.745   5.436  13.116  0.00  0.00    +0.000 C 
ENDROOT
BRANCH   1   8
ATOM      2  C   UNL     1      46.034   9.687  12.076  0.00  0.00    +0.000 A 
ATOM      3  C   UNL     1      47.422   9.760  12.116  0.00  0.00    +0.000 A 
ATOM      4  N   UNL     1      48.257   8.767  12.498  0.00  0.00    +0.000 NA
ATOM      5  C   UNL     1      47.642   7.617  12.866  0.00  0.00    +0.000 A 
ATOM      6  C   UNL     1      48.229   6.406  13.294  0.00  0.00    +0.000 A 
ATOM      7  C   UNL     1      47.207   5.511  13.523  0.00  0.00    +0.000 A 
ATOM      8  N   UNL     1      46.015   6.141  13.241  0.00  0.00    +0.000 N 
ATOM      9  C   UNL     1      46.258   7.445  12.857  0.00  0.00    +0.000 A 
ATOM     10  C   UNL     1      45.419   8.500  12.470  0.00  0.00    +0.000 A 
BRANCH   2  12
ATOM     11  C   UNL     1      43.818  10.323  11.549  0.00  0.00    +0.000 C 
ATOM     12  O   UNL     1      45.184  10.692  11.704  0.00  0.00    +0.000 OA
ENDBRANCH   2  12
ENDBRANCH   1   8
BRANCH   1  13
ATOM     13  C   UNL     1      44.559   4.715  11.813  0.00  0.00    +0.000 A 
ATOM     14  C   UNL     1      44.058   5.365  10.682  0.00  0.00    +0.000 A 
ATOM     15  C   UNL     1      44.096   4.730   9.444  0.00  0.00    +0.000 A 
ATOM     16  C   UNL     1      44.627   3.447   9.353  0.00  0.00    +0.000 A 
ATOM     17  N   UNL     1      45.040   2.765  10.449  0.00  0.00    +0.000 NA
ATOM     18  C   UNL     1      44.991   3.404  11.642  0.00  0.00    +0.000 A 
BRANCH  16  19
ATOM     19  C   UNL     1      44.893   2.828   8.002  0.00  0.00    +0.000 C 
BRANCH  19  20
ATOM     20  C   UNL     1      46.359   2.900   7.576  0.00  0.00    +0.000 C 
BRANCH  20  21
ATOM     21  N   UNL     1      46.721   4.273   7.209  0.00  0.00    +0.000 NA
ATOM     22  H   UNL     1      45.880   4.830   7.068  0.00  0.00    +0.000 HD
ATOM     23  H   UNL     1      47.212   4.263   6.315  0.00  0.00    +0.000 HD
ENDBRANCH  20  21
ENDBRANCH  19  20
ENDBRANCH  16  19
ENDBRANCH   1  13
TORSDOF 6
ENDMDL
MODEL 7
REMARK VINA RESULT:    -5.630      2.467      6.612
REMARK INTER + INTRA:          -8.105
REMARK INTER:                  -7.538
REMARK INTRA:                  -0.567
REMARK UNBOUND:                -0.665
REMARK  Name = 
REMARK  7 active torsions:
REMARK  status: ('A' for Active; 'I' for Inactive)
REMARK    1  A    between atoms: C_1  and  O_2
REMARK    2  A    between atoms: O_2  and  C_3
REMARK    3  A    between atoms: N_9  and  C_10
REMARK    4  A    between atoms: C_10  and  C_11
REMARK    5  A    between atoms: C_14  and  C_15
REMARK    6  A    between atoms: C_15  and  C_16
REMARK    7  A    between atoms: C_16  and  N_17
REMARK                            x       y       z     vdW  Elec       q    Type
REMARK                         _______ _______ _______ _____ _____    ______ ____
ROOT
ATOM      1  C   UNL     1      45.251   4.136  13.515  0.00  0.00    +0.000 C 
ENDROOT
BRANCH   1   8
ATOM      2  C   UNL     1      45.231   2.576   9.227  0.00  0.00    +0.000 A 
ATOM      3  C   UNL     1      44.453   3.423   8.443  0.00  0.00    +0.000 A 
ATOM      4  N   UNL     1      43.736   4.479   8.889  0.00  0.00    +0.000 NA
ATOM      5  C   UNL     1      43.810   4.694  10.225  0.00  0.00    +0.000 A 
ATOM      6  C   UNL     1      43.196   5.713  10.985  0.00  0.00    +0.000 A 
ATOM      7  C   UNL     1      43.591   5.547  12.294  0.00  0.00    +0.000 A 
ATOM      8  N   UNL     1      44.433   4.457  12.352  0.00  0.00    +0.000 N 
ATOM      9  C   UNL     1      44.563   3.903  11.093  0.00  0.00    +0.000 A 
ATOM     10  C   UNL     1      45.284   2.806  10.601  0.00  0.00    +0.000 A 
BRANCH   2  12
ATOM     11  C   UNL     1      46.728   1.713   7.613  0.00  0.00    +0.000 C 
ATOM     12  O   UNL     1      45.947   1.499   8.784  0.00  0.00    +0.000 OA
ENDBRANCH   2  12
ENDBRANCH   1   8
BRANCH   1  13
ATOM     13  C   UNL     1      46.495   4.965  13.650  0.00  0.00    +0.000 A 
ATOM     14  C   UNL     1      46.897   5.849  12.647  0.00  0.00    +0.000 A 
ATOM     15  C   UNL     1      47.929   6.751  12.890  0.00  0.00    +0.000 A 
ATOM     16  C   UNL     1      48.553   6.750  14.133  0.00  0.00    +0.000 A 
ATOM     17  N   UNL     1      48.237   5.846  15.092  0.00  0.00    +0.000 NA
ATOM     18  C   UNL     1      47.232   4.978  14.830  0.00  0.00    +0.000 A 
BRANCH  16  19
ATOM     19  C   UNL     1      49.509   7.860  14.505  0.00  0.00    +0.000 C 
BRANCH  19  20
ATOM     20  C   UNL     1      48.951   8.818  15.555  0.00  0.00    +0.000 C 
BRANCH  20  21
ATOM     21  N   UNL     1      47.495   8.941  15.419  0.00  0.00    +0.000 NA
ATOM     22  H   UNL     1      47.200   9.881  15.676  0.00  0.00    +0.000 HD
ATOM     23  H   UNL     1      47.042   8.308  16.077  0.00  0.00    +0.000 HD
ENDBRANCH  20  21
ENDBRANCH  19  20
ENDBRANCH  16  19
ENDBRANCH   1  13
TORSDOF 6
ENDMDL
MODEL 8
REMARK VINA RESULT:    -5.473      3.511      5.295
REMARK INTER + INTRA:          -7.898
REMARK INTER:                  -7.154
REMARK INTRA:                  -0.744
REMARK UNBOUND:                -0.665
REMARK  Name = 
REMARK  7 active torsions:
REMARK  status: ('A' for Active; 'I' for Inactive)
REMARK    1  A    between atoms: C_1  and  O_2
REMARK    2  A    between atoms: O_2  and  C_3
REMARK    3  A    between atoms: N_9  and  C_10
REMARK    4  A    between atoms: C_10  and  C_11
REMARK    5  A    between atoms: C_14  and  C_15
REMARK    6  A    between atoms: C_15  and  C_16
REMARK    7  A    between atoms: C_16  and  N_17
REMARK                            x       y       z     vdW  Elec       q    Type
REMARK                         _______ _______ _______ _____ _____    ______ ____
ROOT
ATOM      1  C   UNL     1      48.414   6.412  13.549  0.00  0.00    +0.000 C 
ENDROOT
BRANCH   1   8
ATOM      2  C   UNL     1      48.655   5.277  17.962  0.00  0.00    +0.000 A 
ATOM      3  C   UNL     1      48.712   6.440  18.724  0.00  0.00    +0.000 A 
ATOM      4  N   UNL     1      48.786   7.700  18.241  0.00  0.00    +0.000 NA
ATOM      5  C   UNL     1      48.804   7.792  16.889  0.00  0.00    +0.000 A 
ATOM      6  C   UNL     1      48.860   8.954  16.089  0.00  0.00    +0.000 A 
ATOM      7  C   UNL     1      48.820   8.551  14.773  0.00  0.00    +0.000 A 
ATOM      8  N   UNL     1      48.737   7.175  14.749  0.00  0.00    +0.000 N 
ATOM      9  C   UNL     1      48.749   6.687  16.040  0.00  0.00    +0.000 A 
ATOM     10  C   UNL     1      48.688   5.391  16.573  0.00  0.00    +0.000 A 
BRANCH   2  12
ATOM     11  C   UNL     1      47.769   3.098  17.712  0.00  0.00    +0.000 C 
ATOM     12  O   UNL     1      48.594   3.999  18.444  0.00  0.00    +0.000 OA
ENDBRANCH   2  12
ENDBRANCH   1   8
BRANCH   1  13
ATOM     13  C   UNL     1      46.969   6.023  13.429  0.00  0.00    +0.000 A 
ATOM     14  C   UNL     1      46.009   6.917  12.951  0.00  0.00    +0.000 A 
ATOM     15  C   UNL     1      44.727   6.464  12.653  0.00  0.00    +0.000 A 
ATOM     16  C   UNL     1      44.418   5.121  12.847  0.00  0.00    +0.000 A 
ATOM     17  N   UNL     1      45.308   4.254  13.389  0.00  0.00    +0.000 NA
ATOM     18  C   UNL     1      46.547   4.720  13.671  0.00  0.00    +0.000 A 
BRANCH  16  19
ATOM     19  C   UNL     1      43.120   4.556  12.321  0.00  0.00    +0.000 C 
BRANCH  19  20
ATOM     20  C   UNL     1      43.312   3.506  11.227  0.00  0.00    +0.000 C 
BRANCH  20  21
ATOM     21  N   UNL     1      43.080   2.159  11.760  0.00  0.00    +0.000 NA
ATOM     22  H   UNL     1      43.372   1.460  11.079  0.00  0.00    +0.000 HD
ATOM     23  H   UNL     1      42.080   2.022  11.903  0.00  0.00    +0.000 HD
ENDBRANCH  20  21
ENDBRANCH  19  20
ENDBRANCH  16  19
ENDBRANCH   1  13
TORSDOF 6
ENDMDL
MODEL 9
REMARK VINA RESULT:    -5.386      3.080      7.085
REMARK INTER + INTRA:          -7.782
REMARK INTER:                  -6.937
REMARK INTRA:                  -0.845
REMARK UNBOUND:                -0.665
REMARK  Name = 
REMARK  7 active torsions:
REMARK  status: ('A' for Active; 'I' for Inactive)
REMARK    1  A    between atoms: C_1  and  O_2
REMARK    2  A    between atoms: O_2  and  C_3
REMARK    3  A    between atoms: N_9  and  C_10
REMARK    4  A    between atoms: C_10  and  C_11
REMARK    5  A    between atoms: C_14  and  C_15
REMARK    6  A    between atoms: C_15  and  C_16
REMARK    7  A    between atoms: C_16  and  N_17
REMARK                            x       y       z     vdW  Elec       q    Type
REMARK                         _______ _______ _______ _____ _____    ______ ____
ROOT
ATOM      1  C   UNL     1      47.649   5.916  13.218  0.00  0.00    +0.000 C 
ENDROOT
BRANCH   1   8
ATOM      2  C   UNL     1      44.105   4.033  11.048  0.00  0.00    +0.000 A 
ATOM      3  C   UNL     1      43.211   5.036  10.690  0.00  0.00    +0.000 A 
ATOM      4  N   UNL     1      43.317   6.345  11.015  0.00  0.00    +0.000 NA
ATOM      5  C   UNL     1      44.405   6.661  11.757  0.00  0.00    +0.000 A 
ATOM      6  C   UNL     1      44.803   7.927  12.237  0.00  0.00    +0.000 A 
ATOM      7  C   UNL     1      45.993   7.759  12.910  0.00  0.00    +0.000 A 
ATOM      8  N   UNL     1      46.334   6.426  12.849  0.00  0.00    +0.000 N 
ATOM      9  C   UNL     1      45.359   5.728  12.163  0.00  0.00    +0.000 A 
ATOM     10  C   UNL     1      45.213   4.376  11.822  0.00  0.00    +0.000 A 
BRANCH   2  12
ATOM     11  C   UNL     1      44.595   2.310   9.504  0.00  0.00    +0.000 C 
ATOM     12  O   UNL     1      43.997   2.706  10.734  0.00  0.00    +0.000 OA
ENDBRANCH   2  12
ENDBRANCH   1   8
BRANCH   1  13
ATOM     13  C   UNL     1      47.799   5.575  14.672  0.00  0.00    +0.000 A 
ATOM     14  C   UNL     1      47.198   4.440  15.222  0.00  0.00    +0.000 A 
ATOM     15  C   UNL     1      47.527   4.039  16.514  0.00  0.00    +0.000 A 
ATOM     16  C   UNL     1      48.446   4.786  17.245  0.00  0.00    +0.000 A 
ATOM     17  N   UNL     1      48.977   5.936  16.763  0.00  0.00    +0.000 NA
ATOM     18  C   UNL     1      48.640   6.305  15.505  0.00  0.00    +0.000 A 
BRANCH  16  19
ATOM     19  C   UNL     1      48.993   4.253  18.548  0.00  0.00    +0.000 C 
BRANCH  19  20
ATOM     20  C   UNL     1      50.520   4.245  18.610  0.00  0.00    +0.000 C 
BRANCH  20  21
ATOM     21  N   UNL     1      51.084   3.774  17.340  0.00  0.00    +0.000 NA
ATOM     22  H   UNL     1      50.334   3.545  16.689  0.00  0.00    +0.000 HD
ATOM     23  H   UNL     1      51.599   2.909  17.501  0.00  0.00    +0.000 HD
ENDBRANCH  20  21
ENDBRANCH  19  20
ENDBRANCH  16  19
ENDBRANCH   1  13
TORSDOF 6
ENDMDL
