MODEL 1
REMARK VINA RESULT:    -8.110      0.000      0.000
REMARK INTER + INTRA:         -11.705
REMARK INTER:                 -10.717
REMARK INTRA:                  -0.988
REMARK UNBOUND:                -0.988
REMARK  Name = 
REMARK  7 active torsions:
REMARK  status: ('A' for Active; 'I' for Inactive)
REMARK    1  A    between atoms: C_1  and  C_2
REMARK    2  A    between atoms: C_2  and  C_3
REMARK    3  A    between atoms: C_7  and  C_8
REMARK    4  A    between atoms: C_8  and  C_9
REMARK    5  A    between atoms: C_9  and  N_10
REMARK    6  A    between atoms: C_14  and  C_15
REMARK    7  A    between atoms: C_23  and  O_24
REMARK                            x       y       z     vdW  Elec       q    Type
REMARK                         _______ _______ _______ _____ _____    ______ ____
ROOT
ATOM      1  C   UNL     1      46.951   6.553  13.008  0.00  0.00    +0.000 A 
ATOM      2  C   UNL     1      47.449   5.447  13.712  0.00  0.00    +0.000 A 
ATOM      3  C   UNL     1      46.673   4.300  13.898  0.00  0.00    +0.000 A 
ATOM      4  C   UNL     1      45.370   4.237  13.397  0.00  0.00    +0.000 A 
ATOM      5  C   UNL     1      44.839   5.315  12.685  0.00  0.00    +0.000 A 
ATOM      6  C   UNL     1      45.660   6.438  12.477  0.00  0.00    +0.000 A 
ENDROOT
BRANCH   1   8
ATOM      7  C   UNL     1      48.248   8.173  14.354  0.00  0.00    +0.000 C 
ATOM      8  C   UNL     1      47.741   7.878  12.921  0.00  0.00    +0.000 C 
ATOM      9  C   UNL     1      48.927   7.730  11.931  0.00  0.00    +0.000 C 
ATOM     10  C   UNL     1      49.716   9.025  11.727  0.00  0.00    +0.000 C 
ATOM     11  C   UNL     1      48.822  10.187  11.303  0.00  0.00    +0.000 C 
ATOM     12  C   UNL     1      47.649  10.382  12.254  0.00  0.00    +0.000 C 
ATOM     13  C   UNL     1      46.871   9.085  12.443  0.00  0.00    +0.000 C 
BRANCH  11  14
ATOM     14  O   UNL     1      49.591  11.384  11.248  0.00  0.00    +0.000 OA
ATOM     15  H   UNL     1      49.030  12.084  10.871  0.00  0.00    +0.000 HD
ENDBRANCH  11  14
ENDBRANCH   1   8
BRANCH   5  16
ATOM     16  C   UNL     1      43.390   5.289  12.215  0.00  0.00    +0.000 C 
BRANCH  16  17
ATOM     17  C   UNL     1      43.195   4.559  10.877  0.00  0.00    +0.000 C 
BRANCH  17  18
ATOM     18  N   UNL     1      44.020   5.089   9.785  0.00  0.00    +0.000 N 
ATOM     19  C   UNL     1      44.786   4.052   9.193  0.00  0.00    +0.000 A 
ATOM     20  C   UNL     1      45.648   4.333   8.124  0.00  0.00    +0.000 A 
ATOM     21  N   UNL     1      46.418   3.401   7.490  0.00  0.00    +0.000 NA
ATOM     22  C   UNL     1      46.277   2.137   7.977  0.00  0.00    +0.000 A 
ATOM     23  C   UNL     1      45.428   1.836   9.027  0.00  0.00    +0.000 A 
ATOM     24  N   UNL     1      44.673   2.783   9.641  0.00  0.00    +0.000 NA
ATOM     25  H   UNL     1      44.655   5.814  10.112  0.00  0.00    +0.000 HD
BRANCH  22  26
ATOM     26  C   UNL     1      47.075   1.044   7.354  0.00  0.00    +0.000 C 
ATOM     27  N   UNL     1      46.734  -0.233   7.700  0.00  0.00    +0.000 N 
ATOM     28  O   UNL     1      47.987   1.272   6.571  0.00  0.00    +0.000 OA
ATOM     29  H   UNL     1      45.981  -0.407   8.358  0.00  0.00    +0.000 HD
ATOM     30  H   UNL     1      47.254  -1.004   7.304  0.00  0.00    +0.000 HD
ENDBRANCH  22  26
ENDBRANCH  17  18
ENDBRANCH  16  17
ENDBRANCH   5  16
TORSDOF 6
ENDMDL
MODEL 2
REMARK VINA RESULT:    -8.044      3.730      7.382
REMARK INTER + INTRA:         -11.618
REMARK INTER:                 -10.905
REMARK INTRA:                  -0.713
REMARK UNBOUND:                -0.988
REMARK  Name = 
REMARK  7 active torsions:
REMARK  status: ('A' for Active; 'I' for Inactive)
REMARK    1  A    between atoms: C_1  and  C_2
REMARK    2  A    between atoms: C_2  and  C_3
REMARK    3  A    between atoms: C_7  and  C_8
REMARK    4  A    between atoms: C_8  and  C_9
REMARK    5  A    between atoms: C_9  and  N_10
REMARK    6  A    between atoms: C_14  and  C_15
REMARK    7  A    between atoms: C_23  and  O_24
REMARK                            x       y       z     vdW  Elec       q    Type
REMARK                         _______ _______ _______ _____ _____    ______ ____
ROOT
ATOM      1  C   UNL     1      44.930   4.370   9.470  0.00  0.00    +0.000 A 
ATOM      2  C   UNL     1      43.773   3.970  10.153  0.00  0.00    +0.000 A 
ATOM      3  C   UNL     1      43.337   4.648  11.294  0.00  0.00    +0.000 A 
ATOM      4  C   UNL     1      44.059   5.736  11.791  0.00  0.00    +0.000 A 
ATOM      5  C   UNL     1      45.215   6.170  11.137  0.00  0.00    +0.000 A 
ATOM      6  C   UNL     1      45.603   5.495   9.966  0.00  0.00    +0.000 A 
ENDROOT
BRANCH   1   8
ATOM      7  C   UNL     1      44.314   3.275   7.340  0.00  0.00    +0.000 C 
ATOM      8  C   UNL     1      45.502   3.544   8.296  0.00  0.00    +0.000 C 
ATOM      9  C   UNL     1      46.624   4.339   7.578  0.00  0.00    +0.000 C 
ATOM     10  C   UNL     1      47.299   3.557   6.449  0.00  0.00    +0.000 C 
ATOM     11  C   UNL     1      47.832   2.206   6.917  0.00  0.00    +0.000 C 
ATOM     12  C   UNL     1      46.760   1.381   7.617  0.00  0.00    +0.000 C 
ATOM     13  C   UNL     1      46.102   2.172   8.742  0.00  0.00    +0.000 C 
BRANCH  11  14
ATOM     14  O   UNL     1      48.336   1.480   5.802  0.00  0.00    +0.000 OA
ATOM     15  H   UNL     1      49.247   1.207   6.008  0.00  0.00    +0.000 HD
ENDBRANCH  11  14
ENDBRANCH   1   8
BRANCH   5  16
ATOM     16  C   UNL     1      46.055   7.297  11.723  0.00  0.00    +0.000 C 
BRANCH  16  17
ATOM     17  C   UNL     1      47.554   6.966  11.798  0.00  0.00    +0.000 C 
BRANCH  17  18
ATOM     18  N   UNL     1      48.181   7.332  13.073  0.00  0.00    +0.000 N 
ATOM     19  C   UNL     1      48.017   6.292  14.024  0.00  0.00    +0.000 A 
ATOM     20  C   UNL     1      48.542   6.427  15.316  0.00  0.00    +0.000 A 
ATOM     21  N   UNL     1      48.439   5.479  16.293  0.00  0.00    +0.000 NA
ATOM     22  C   UNL     1      47.778   4.352  15.908  0.00  0.00    +0.000 A 
ATOM     23  C   UNL     1      47.257   4.195  14.636  0.00  0.00    +0.000 A 
ATOM     24  N   UNL     1      47.374   5.155  13.683  0.00  0.00    +0.000 NA
ATOM     25  H   UNL     1      47.782   8.186  13.456  0.00  0.00    +0.000 HD
BRANCH  22  26
ATOM     26  C   UNL     1      47.609   3.256  16.901  0.00  0.00    +0.000 C 
ATOM     27  N   UNL     1      48.732   2.551  17.228  0.00  0.00    +0.000 N 
ATOM     28  O   UNL     1      46.523   2.997  17.405  0.00  0.00    +0.000 OA
ATOM     29  H   UNL     1      49.624   2.770  16.797  0.00  0.00    +0.000 HD
ATOM     30  H   UNL     1      48.660   1.794  17.895  0.00  0.00    +0.000 HD
ENDBRANCH  22  26
ENDBRANCH  17  18
ENDBRANCH  16  17
ENDBRANCH   5  16
TORSDOF 6
ENDMDL
MODEL 3
REMARK VINA RESULT:    -7.648      4.605      7.720
REMARK INTER + INTRA:         -11.095
REMARK INTER:                  -9.913
REMARK INTRA:                  -1.182
REMARK UNBOUND:                -0.988
REMARK  Name = 
REMARK  7 active torsions:
REMARK  status: ('A' for Active; 'I' for Inactive)
REMARK    1  A    between atoms: C_1  and  C_2
REMARK    2  A    between atoms: C_2  and  C_3
REMARK    3  A    between atoms: C_7  and  C_8
REMARK    4  A    between atoms: C_8  and  C_9
REMARK    5  A    between atoms: C_9  and  N_10
REMARK    6  A    between atoms: C_14  and  C_15
REMARK    7  A    between atoms: C_23  and  O_24
REMARK                            x       y       z     vdW  Elec       q    Type
REMARK                         _______ _______ _______ _____ _____    ______ ____
ROOT
ATOM      1  C   UNL     1      45.463   7.139  11.605  0.00  0.00    +0.000 A 
ATOM      2  C   UNL     1      44.578   8.205  11.384  0.00  0.00    +0.000 A 
ATOM      3  C   UNL     1      44.934   9.517  11.706  0.00  0.00    +0.000 A 
ATOM      4  C   UNL     1      46.180   9.795  12.274  0.00  0.00    +0.000 A 
ATOM      5  C   UNL     1      47.092   8.762  12.505  0.00  0.00    +0.000 A 
ATOM      6  C   UNL     1      46.722   7.458  12.129  0.00  0.00    +0.000 A 
ENDROOT
BRANCH   1   8
ATOM      7  C   UNL     1      45.502   5.288   9.965  0.00  0.00    +0.000 C 
ATOM      8  C   UNL     1      45.030   5.672  11.389  0.00  0.00    +0.000 C 
ATOM      9  C   UNL     1      45.686   4.757  12.457  0.00  0.00    +0.000 C 
ATOM     10  C   UNL     1      45.246   3.295  12.362  0.00  0.00    +0.000 C 
ATOM     11  C   UNL     1      43.728   3.143  12.404  0.00  0.00    +0.000 C 
ATOM     12  C   UNL     1      43.038   4.013  11.360  0.00  0.00    +0.000 C 
ATOM     13  C   UNL     1      43.483   5.466  11.472  0.00  0.00    +0.000 C 
BRANCH  11  14
ATOM     14  O   UNL     1      43.379   1.780  12.189  0.00  0.00    +0.000 OA
ATOM     15  H   UNL     1      43.299   1.638  11.229  0.00  0.00    +0.000 HD
ENDBRANCH  11  14
ENDBRANCH   1   8
BRANCH   5  16
ATOM     16  C   UNL     1      48.414   9.045  13.206  0.00  0.00    +0.000 C 
BRANCH  16  17
ATOM     17  C   UNL     1      49.210   7.775  13.546  0.00  0.00    +0.000 C 
BRANCH  17  18
ATOM     18  N   UNL     1      49.709   7.737  14.926  0.00  0.00    +0.000 N 
ATOM     19  C   UNL     1      49.135   6.648  15.631  0.00  0.00    +0.000 A 
ATOM     20  C   UNL     1      49.474   6.419  16.972  0.00  0.00    +0.000 A 
ATOM     21  N   UNL     1      48.979   5.395  17.727  0.00  0.00    +0.000 NA
ATOM     22  C   UNL     1      48.114   4.580  17.063  0.00  0.00    +0.000 A 
ATOM     23  C   UNL     1      47.771   4.784  15.739  0.00  0.00    +0.000 A 
ATOM     24  N   UNL     1      48.278   5.811  15.009  0.00  0.00    +0.000 NA
ATOM     25  H   UNL     1      49.492   8.597  15.426  0.00  0.00    +0.000 HD
BRANCH  22  26
ATOM     26  C   UNL     1      47.515   3.431  17.798  0.00  0.00    +0.000 C 
ATOM     27  N   UNL     1      48.200   2.985  18.892  0.00  0.00    +0.000 N 
ATOM     28  O   UNL     1      46.463   2.913  17.448  0.00  0.00    +0.000 OA
ATOM     29  H   UNL     1      49.076   3.417  19.167  0.00  0.00    +0.000 HD
ATOM     30  H   UNL     1      47.831   2.203  19.416  0.00  0.00    +0.000 HD
ENDBRANCH  22  26
ENDBRANCH  17  18
ENDBRANCH  16  17
ENDBRANCH   5  16
TORSDOF 6
ENDMDL
MODEL 4
REMARK VINA RESULT:    -6.994      1.783      2.905
REMARK INTER + INTRA:         -10.231
REMARK INTER:                  -9.401
REMARK INTRA:                  -0.830
REMARK UNBOUND:                -0.988
REMARK  Name = 
REMARK  7 active torsions:
REMARK  status: ('A' for Active; 'I' for Inactive)
REMARK    1  A    between atoms: C_1  and  C_2
REMARK    2  A    between atoms: C_2  and  C_3
REMARK    3  A    between atoms: C_7  and  C_8
REMARK    4  A    between atoms: C_8  and  C_9
REMARK    5  A    between atoms: C_9  and  N_10
REMARK    6  A    between atoms: C_14  and  C_15
REMARK    7  A    between atoms: C_23  and  O_24
REMARK                            x       y       z     vdW  Elec       q    Type
REMARK                         _______ _______ _______ _____ _____    ______ ____
ROOT
ATOM      1  C   UNL     1      46.863   7.823  12.784  0.00  0.00    +0.000 A 
ATOM      2  C   UNL     1      46.249   8.877  12.092  0.00  0.00    +0.000 A 
ATOM      3  C   UNL     1      44.983   8.726  11.523  0.00  0.00    +0.000 A 
ATOM      4  C   UNL     1      44.304   7.508  11.617  0.00  0.00    +0.000 A 
ATOM      5  C   UNL     1      44.879   6.435  12.302  0.00  0.00    +0.000 A 
ATOM      6  C   UNL     1      46.135   6.632  12.903  0.00  0.00    +0.000 A 
ENDROOT
BRANCH   1   8
ATOM      7  C   UNL     1      49.216   7.413  12.140  0.00  0.00    +0.000 C 
ATOM      8  C   UNL     1      48.319   7.929  13.292  0.00  0.00    +0.000 C 
ATOM      9  C   UNL     1      48.658   9.402  13.643  0.00  0.00    +0.000 C 
ATOM     10  C   UNL     1      50.060   9.582  14.230  0.00  0.00    +0.000 C 
ATOM     11  C   UNL     1      50.301   8.686  15.442  0.00  0.00    +0.000 C 
ATOM     12  C   UNL     1      49.995   7.224  15.141  0.00  0.00    +0.000 C 
ATOM     13  C   UNL     1      48.594   7.062  14.562  0.00  0.00    +0.000 C 
BRANCH  11  14
ATOM     14  O   UNL     1      51.654   8.809  15.864  0.00  0.00    +0.000 OA
ATOM     15  H   UNL     1      52.212   8.871  15.069  0.00  0.00    +0.000 HD
ENDBRANCH  11  14
ENDBRANCH   1   8
BRANCH   5  16
ATOM     16  C   UNL     1      44.185   5.079  12.332  0.00  0.00    +0.000 C 
BRANCH  16  17
ATOM     17  C   UNL     1      43.623   4.651  10.968  0.00  0.00    +0.000 C 
BRANCH  17  18
ATOM     18  N   UNL     1      43.804   3.226  10.670  0.00  0.00    +0.000 N 
ATOM     19  C   UNL     1      44.714   3.054   9.595  0.00  0.00    +0.000 A 
ATOM     20  C   UNL     1      45.038   1.768   9.142  0.00  0.00    +0.000 A 
ATOM     21  N   UNL     1      45.905   1.507   8.120  0.00  0.00    +0.000 NA
ATOM     22  C   UNL     1      46.460   2.618   7.562  0.00  0.00    +0.000 A 
ATOM     23  C   UNL     1      46.159   3.896   7.997  0.00  0.00    +0.000 A 
ATOM     24  N   UNL     1      45.292   4.129   9.016  0.00  0.00    +0.000 NA
ATOM     25  H   UNL     1      42.924   2.779  10.422  0.00  0.00    +0.000 HD
BRANCH  22  26
ATOM     26  C   UNL     1      47.420   2.443   6.437  0.00  0.00    +0.000 C 
ATOM     27  N   UNL     1      47.247   3.259   5.355  0.00  0.00    +0.000 N 
ATOM     28  O   UNL     1      48.322   1.616   6.476  0.00  0.00    +0.000 OA
ATOM     29  H   UNL     1      46.491   3.934   5.332  0.00  0.00    +0.000 HD
ATOM     30  H   UNL     1      47.875   3.168   4.568  0.00  0.00    +0.000 HD
ENDBRANCH  22  26
ENDBRANCH  17  18
ENDBRANCH  16  17
ENDBRANCH   5  16
TORSDOF 6
ENDMDL
MODEL 5
REMARK VINA RESULT:    -6.926      3.060      7.391
REMARK INTER + INTRA:         -10.140
REMARK INTER:                  -9.339
REMARK INTRA:                  -0.801
REMARK UNBOUND:                -0.988
REMARK  Name = 
REMARK  7 active torsions:
REMARK  status: ('A' for Active; 'I' for Inactive)
REMARK    1  A    between atoms: C_1  and  C_2
REMARK    2  A    between atoms: C_2  and  C_3
REMARK    3  A    between atoms: C_7  and  C_8
REMARK    4  A    between atoms: C_8  and  C_9
REMARK    5  A    between atoms: C_9  and  N_10
REMARK    6  A    between atoms: C_14  and  C_15
REMARK    7  A    between atoms: C_23  and  O_24
REMARK                            x       y       z     vdW  Elec       q    Type
REMARK                         _______ _______ _______ _____ _____    ______ ____
ROOT
ATOM      1  C   UNL     1      44.777   3.686   9.582  0.00  0.00    +0.000 A 
ATOM      2  C   UNL     1      44.110   2.850  10.490  0.00  0.00    +0.000 A 
ATOM      3  C   UNL     1      43.619   3.345  11.700  0.00  0.00    +0.000 A 
ATOM      4  C   UNL     1      43.798   4.688  12.042  0.00  0.00    +0.000 A 
ATOM      5  C   UNL     1      44.452   5.555  11.163  0.00  0.00    +0.000 A 
ATOM      6  C   UNL     1      44.895   5.037   9.933  0.00  0.00    +0.000 A 
ENDROOT
BRANCH   1   8
ATOM      7  C   UNL     1      44.329   3.001   7.248  0.00  0.00    +0.000 C 
ATOM      8  C   UNL     1      45.450   3.123   8.310  0.00  0.00    +0.000 C 
ATOM      9  C   UNL     1      46.570   4.082   7.828  0.00  0.00    +0.000 C 
ATOM     10  C   UNL     1      47.342   3.558   6.614  0.00  0.00    +0.000 C 
ATOM     11  C   UNL     1      47.912   2.162   6.849  0.00  0.00    +0.000 C 
ATOM     12  C   UNL     1      46.844   1.179   7.310  0.00  0.00    +0.000 C 
ATOM     13  C   UNL     1      46.089   1.713   8.522  0.00  0.00    +0.000 C 
BRANCH  11  14
ATOM     14  O   UNL     1      48.509   1.683   5.649  0.00  0.00    +0.000 OA
ATOM     15  H   UNL     1      48.827   2.452   5.144  0.00  0.00    +0.000 HD
ENDBRANCH  11  14
ENDBRANCH   1   8
BRANCH   5  16
ATOM     16  C   UNL     1      44.730   6.997  11.567  0.00  0.00    +0.000 C 
BRANCH  16  17
ATOM     17  C   UNL     1      45.545   7.123  12.863  0.00  0.00    +0.000 C 
BRANCH  17  18
ATOM     18  N   UNL     1      46.123   8.454  13.076  0.00  0.00    +0.000 N 
ATOM     19  C   UNL     1      47.509   8.448  12.771  0.00  0.00    +0.000 A 
ATOM     20  C   UNL     1      48.266   9.621  12.902  0.00  0.00    +0.000 A 
ATOM     21  N   UNL     1      49.600   9.712  12.626  0.00  0.00    +0.000 NA
ATOM     22  C   UNL     1      50.159   8.549  12.191  0.00  0.00    +0.000 A 
ATOM     23  C   UNL     1      49.430   7.383  12.048  0.00  0.00    +0.000 A 
ATOM     24  N   UNL     1      48.103   7.319  12.330  0.00  0.00    +0.000 NA
ATOM     25  H   UNL     1      46.006   8.764  14.038  0.00  0.00    +0.000 HD
BRANCH  22  26
ATOM     26  C   UNL     1      51.612   8.541  11.863  0.00  0.00    +0.000 C 
ATOM     27  N   UNL     1      52.070   7.468  11.152  0.00  0.00    +0.000 N 
ATOM     28  O   UNL     1      52.361   9.446  12.207  0.00  0.00    +0.000 OA
ATOM     29  H   UNL     1      51.441   6.720  10.881  0.00  0.00    +0.000 HD
ATOM     30  H   UNL     1      53.052   7.420  10.914  0.00  0.00    +0.000 HD
ENDBRANCH  22  26
ENDBRANCH  17  18
ENDBRANCH  16  17
ENDBRANCH   5  16
TORSDOF 6
ENDMDL
MODEL 6
REMARK VINA RESULT:    -6.621      4.347      6.598
REMARK INTER + INTRA:          -9.738
REMARK INTER:                  -8.749
REMARK INTRA:                  -0.989
REMARK UNBOUND:                -0.988
REMARK  Name = 
REMARK  7 active torsions:
REMARK  status: ('A' for Active; 'I' for Inactive)
REMARK    1  A    between atoms: C_1  and  C_2
REMARK    2  A    between atoms: C_2  and  C_3
REMARK    3  A    between atoms: C_7  and  C_8
REMARK    4  A    between atoms: C_8  and  C_9
REMARK    5  A    between atoms: C_9  and  N_10
REMARK    6  A    between atoms: C_14  and  C_15
REMARK    7  A    between atoms: C_23  and  O_24
REMARK                            x       y       z     vdW  Elec       q    Type
REMARK                         _______ _______ _______ _____ _____    ______ ____
ROOT
ATOM      1  C   UNL     1      48.954   6.381  17.292  0.00  0.00    +0.000 A 
ATOM      2  C   UNL     1      48.557   7.375  18.198  0.00  0.00    +0.000 A 
ATOM      3  C   UNL     1      48.236   8.662  17.762  0.00  0.00    +0.000 A 
ATOM      4  C   UNL     1      48.320   8.994  16.407  0.00  0.00    +0.000 A 
ATOM      5  C   UNL     1      48.707   8.031  15.472  0.00  0.00    +0.000 A 
ATOM      6  C   UNL     1      48.981   6.732  15.936  0.00  0.00    +0.000 A 
ENDROOT
BRANCH   1   8
ATOM      7  C   UNL     1      49.212   4.966  19.304  0.00  0.00    +0.000 C 
ATOM      8  C   UNL     1      49.450   4.999  17.775  0.00  0.00    +0.000 C 
ATOM      9  C   UNL     1      48.660   3.868  17.064  0.00  0.00    +0.000 C 
ATOM     10  C   UNL     1      49.145   2.463  17.428  0.00  0.00    +0.000 C 
ATOM     11  C   UNL     1      50.642   2.287  17.189  0.00  0.00    +0.000 C 
ATOM     12  C   UNL     1      51.463   3.368  17.880  0.00  0.00    +0.000 C 
ATOM     13  C   UNL     1      50.970   4.760  17.503  0.00  0.00    +0.000 C 
BRANCH  11  14
ATOM     14  O   UNL     1      51.052   1.008  17.659  0.00  0.00    +0.000 OA
ATOM     15  H   UNL     1      50.883   0.971  18.617  0.00  0.00    +0.000 HD
ENDBRANCH  11  14
ENDBRANCH   1   8
BRANCH   5  16
ATOM     16  C   UNL     1      48.888   8.409  14.008  0.00  0.00    +0.000 C 
BRANCH  16  17
ATOM     17  C   UNL     1      48.858   7.202  13.057  0.00  0.00    +0.000 C 
BRANCH  17  18
ATOM     18  N   UNL     1      47.967   7.375  11.904  0.00  0.00    +0.000 N 
ATOM     19  C   UNL     1      46.940   6.396  11.918  0.00  0.00    +0.000 A 
ATOM     20  C   UNL     1      45.971   6.374  10.906  0.00  0.00    +0.000 A 
ATOM     21  N   UNL     1      44.945   5.476  10.840  0.00  0.00    +0.000 NA
ATOM     22  C   UNL     1      44.923   4.580  11.866  0.00  0.00    +0.000 A 
ATOM     23  C   UNL     1      45.865   4.587  12.878  0.00  0.00    +0.000 A 
ATOM     24  N   UNL     1      46.877   5.492  12.919  0.00  0.00    +0.000 NA
ATOM     25  H   UNL     1      48.473   7.300  11.024  0.00  0.00    +0.000 HD
BRANCH  22  26
ATOM     26  C   UNL     1      43.843   3.554  11.888  0.00  0.00    +0.000 C 
ATOM     27  N   UNL     1      44.100   2.414  12.595  0.00  0.00    +0.000 N 
ATOM     28  O   UNL     1      42.778   3.720  11.308  0.00  0.00    +0.000 OA
ATOM     29  H   UNL     1      44.991   2.285  13.064  0.00  0.00    +0.000 HD
ATOM     30  H   UNL     1      43.396   1.690  12.630  0.00  0.00    +0.000 HD
ENDBRANCH  22  26
ENDBRANCH  17  18
ENDBRANCH  16  17
ENDBRANCH   5  16
TORSDOF 6
ENDMDL
MODEL 7
REMARK VINA RESULT:    -6.614      5.231      8.143
REMARK INTER + INTRA:          -9.728
REMARK INTER:                  -8.901
REMARK INTRA:                  -0.827
REMARK UNBOUND:                -0.988
REMARK  Name = 
REMARK  7 active torsions:
REMARK  status: ('A' for Active; 'I' for Inactive)
REMARK    1  A    between atoms: C_1  and  C_2
REMARK    2  A    between atoms: C_2  and  C_3
REMARK    3  A    between atoms: C_7  and  C_8
REMARK    4  A    between atoms: C_8  and  C_9
REMARK    5  A    between atoms: C_9  and  N_10
REMARK    6  A    between atoms: C_14  and  C_15
REMARK    7  A    between atoms: C_23  and  O_24
REMARK                            x       y       z     vdW  Elec       q    Type
REMARK                         _______ _______ _______ _____ _____    ______ ____
ROOT
ATOM      1  C   UNL     1      45.990   7.032  11.885  0.00  0.00    +0.000 A 
ATOM      2  C   UNL     1      45.347   8.273  11.783  0.00  0.00    +0.000 A 
ATOM      3  C   UNL     1      45.942   9.437  12.276  0.00  0.00    +0.000 A 
ATOM      4  C   UNL     1      47.191   9.386  12.900  0.00  0.00    +0.000 A 
ATOM      5  C   UNL     1      47.867   8.169  13.017  0.00  0.00    +0.000 A 
ATOM      6  C   UNL     1      47.262   7.022  12.471  0.00  0.00    +0.000 A 
ENDROOT
BRANCH   1   8
ATOM      7  C   UNL     1      45.642   5.483   9.989  0.00  0.00    +0.000 C 
ATOM      8  C   UNL     1      45.283   5.720  11.477  0.00  0.00    +0.000 C 
ATOM      9  C   UNL     1      45.779   4.546  12.362  0.00  0.00    +0.000 C 
ATOM     10  C   UNL     1      45.068   3.222  12.074  0.00  0.00    +0.000 C 
ATOM     11  C   UNL     1      43.550   3.345  12.170  0.00  0.00    +0.000 C 
ATOM     12  C   UNL     1      43.013   4.478  11.304  0.00  0.00    +0.000 C 
ATOM     13  C   UNL     1      43.728   5.790  11.607  0.00  0.00    +0.000 C 
BRANCH  11  14
ATOM     14  O   UNL     1      42.946   2.120  11.774  0.00  0.00    +0.000 OA
ATOM     15  H   UNL     1      42.996   2.060  10.803  0.00  0.00    +0.000 HD
ENDBRANCH  11  14
ENDBRANCH   1   8
BRANCH   5  16
ATOM     16  C   UNL     1      49.186   8.090  13.774  0.00  0.00    +0.000 C 
BRANCH  16  17
ATOM     17  C   UNL     1      49.015   8.092  15.301  0.00  0.00    +0.000 C 
BRANCH  17  18
ATOM     18  N   UNL     1      48.271   6.938  15.818  0.00  0.00    +0.000 N 
ATOM     19  C   UNL     1      49.157   5.994  16.397  0.00  0.00    +0.000 A 
ATOM     20  C   UNL     1      48.660   4.809  16.957  0.00  0.00    +0.000 A 
ATOM     21  N   UNL     1      49.434   3.848  17.540  0.00  0.00    +0.000 NA
ATOM     22  C   UNL     1      50.766   4.135  17.550  0.00  0.00    +0.000 A 
ATOM     23  C   UNL     1      51.277   5.300  17.008  0.00  0.00    +0.000 A 
ATOM     24  N   UNL     1      50.484   6.240  16.433  0.00  0.00    +0.000 NA
ATOM     25  H   UNL     1      47.740   6.475  15.083  0.00  0.00    +0.000 HD
BRANCH  22  26
ATOM     26  C   UNL     1      51.699   3.149  18.162  0.00  0.00    +0.000 C 
ATOM     27  N   UNL     1      52.381   3.564  19.271  0.00  0.00    +0.000 N 
ATOM     28  O   UNL     1      51.849   2.024  17.703  0.00  0.00    +0.000 OA
ATOM     29  H   UNL     1      52.255   4.502  19.636  0.00  0.00    +0.000 HD
ATOM     30  H   UNL     1      53.030   2.927  19.714  0.00  0.00    +0.000 HD
ENDBRANCH  22  26
ENDBRANCH  17  18
ENDBRANCH  16  17
ENDBRANCH   5  16
TORSDOF 6
ENDMDL
MODEL 8
REMARK VINA RESULT:    -6.256      4.855      7.607
REMARK INTER + INTRA:          -9.255
REMARK INTER:                  -8.113
REMARK INTRA:                  -1.142
REMARK UNBOUND:                -0.988
REMARK  Name = 
REMARK  7 active torsions:
REMARK  status: ('A' for Active; 'I' for Inactive)
REMARK    1  A    between atoms: C_1  and  C_2
REMARK    2  A    between atoms: C_2  and  C_3
REMARK    3  A    between atoms: C_7  and  C_8
REMARK    4  A    between atoms: C_8  and  C_9
REMARK    5  A    between atoms: C_9  and  N_10
REMARK    6  A    between atoms: C_14  and  C_15
REMARK    7  A    between atoms: C_23  and  O_24
REMARK                            x       y       z     vdW  Elec       q    Type
REMARK                         _______ _______ _______ _____ _____    ______ ____
ROOT
ATOM      1  C   UNL     1      47.758   7.389  12.489  0.00  0.00    +0.000 A 
ATOM      2  C   UNL     1      48.635   7.436  11.396  0.00  0.00    +0.000 A 
ATOM      3  C   UNL     1      49.822   8.171  11.454  0.00  0.00    +0.000 A 
ATOM      4  C   UNL     1      50.154   8.892  12.604  0.00  0.00    +0.000 A 
ATOM      5  C   UNL     1      49.310   8.868  13.716  0.00  0.00    +0.000 A 
ATOM      6  C   UNL     1      48.145   8.083  13.643  0.00  0.00    +0.000 A 
ENDROOT
BRANCH   1   8
ATOM      7  C   UNL     1      45.329   7.793  12.711  0.00  0.00    +0.000 C 
ATOM      8  C   UNL     1      46.378   6.702  12.389  0.00  0.00    +0.000 C 
ATOM      9  C   UNL     1      46.167   6.130  10.963  0.00  0.00    +0.000 C 
ATOM     10  C   UNL     1      44.853   5.362  10.801  0.00  0.00    +0.000 C 
ATOM     11  C   UNL     1      44.699   4.252  11.838  0.00  0.00    +0.000 C 
ATOM     12  C   UNL     1      44.884   4.769  13.259  0.00  0.00    +0.000 C 
ATOM     13  C   UNL     1      46.199   5.526  13.404  0.00  0.00    +0.000 C 
BRANCH  11  14
ATOM     14  O   UNL     1      43.412   3.659  11.714  0.00  0.00    +0.000 OA
ATOM     15  H   UNL     1      43.101   3.802  10.802  0.00  0.00    +0.000 HD
ENDBRANCH  11  14
ENDBRANCH   1   8
BRANCH   5  16
ATOM     16  C   UNL     1      49.620   9.723  14.938  0.00  0.00    +0.000 C 
BRANCH  16  17
ATOM     17  C   UNL     1      49.383   8.994  16.270  0.00  0.00    +0.000 C 
BRANCH  17  18
ATOM     18  N   UNL     1      50.450   8.055  16.633  0.00  0.00    +0.000 N 
ATOM     19  C   UNL     1      49.942   6.733  16.713  0.00  0.00    +0.000 A 
ATOM     20  C   UNL     1      50.792   5.669  17.045  0.00  0.00    +0.000 A 
ATOM     21  N   UNL     1      50.395   4.366  17.139  0.00  0.00    +0.000 NA
ATOM     22  C   UNL     1      49.075   4.165  16.869  0.00  0.00    +0.000 A 
ATOM     23  C   UNL     1      48.221   5.199  16.533  0.00  0.00    +0.000 A 
ATOM     24  N   UNL     1      48.642   6.487  16.447  0.00  0.00    +0.000 NA
ATOM     25  H   UNL     1      50.871   8.294  17.528  0.00  0.00    +0.000 HD
BRANCH  22  26
ATOM     26  C   UNL     1      48.540   2.777  16.945  0.00  0.00    +0.000 C 
ATOM     27  N   UNL     1      47.501   2.572  17.809  0.00  0.00    +0.000 N 
ATOM     28  O   UNL     1      48.998   1.866  16.269  0.00  0.00    +0.000 OA
ATOM     29  H   UNL     1      47.136   3.334  18.370  0.00  0.00    +0.000 HD
ATOM     30  H   UNL     1      47.112   1.642  17.895  0.00  0.00    +0.000 HD
ENDBRANCH  22  26
ENDBRANCH  17  18
ENDBRANCH  16  17
ENDBRANCH   5  16
TORSDOF 6
ENDMDL
MODEL 9
REMARK VINA RESULT:    -6.078      3.953      5.892
REMARK INTER + INTRA:          -9.020
REMARK INTER:                  -8.679
REMARK INTRA:                  -0.340
REMARK UNBOUND:                -0.988
REMARK  Name = 
REMARK  7 active torsions:
REMARK  status: ('A' for Active; 'I' for Inactive)
REMARK    1  A    between atoms: C_1  and  C_2
REMARK    2  A    between atoms: C_2  and  C_3
REMARK    3  A    between atoms: C_7  and  C_8
REMARK    4  A    between atoms: C_8  and  C_9
REMARK    5  A    between atoms: C_9  and  N_10
REMARK    6  A    between atoms: C_14  and  C_15
REMARK    7  A    between atoms: C_23  and  O_24
REMARK                            x       y       z     vdW  Elec       q    Type
REMARK                         _______ _______ _______ _____ _____    ______ ____
ROOT
ATOM      1  C   UNL     1      49.923   6.746  15.911  0.00  0.00    +0.000 A 
ATOM      2  C   UNL     1      51.020   7.590  15.686  0.00  0.00    +0.000 A 
ATOM      3  C   UNL     1      51.102   8.376  14.534  0.00  0.00    +0.000 A 
ATOM      4  C   UNL     1      50.094   8.326  13.567  0.00  0.00    +0.000 A 
ATOM      5  C   UNL     1      48.982   7.501  13.756  0.00  0.00    +0.000 A 
ATOM      6  C   UNL     1      48.907   6.756  14.946  0.00  0.00    +0.000 A 
ENDROOT
BRANCH   1   8
ATOM      7  C   UNL     1      51.340   5.262  17.290  0.00  0.00    +0.000 C 
ATOM      8  C   UNL     1      49.888   5.767  17.105  0.00  0.00    +0.000 C 
ATOM      9  C   UNL     1      49.385   6.494  18.380  0.00  0.00    +0.000 C 
ATOM     10  C   UNL     1      49.246   5.572  19.594  0.00  0.00    +0.000 C 
ATOM     11  C   UNL     1      48.367   4.359  19.302  0.00  0.00    +0.000 C 
ATOM     12  C   UNL     1      48.831   3.602  18.064  0.00  0.00    +0.000 C 
ATOM     13  C   UNL     1      48.960   4.533  16.864  0.00  0.00    +0.000 C 
BRANCH  11  14
ATOM     14  O   UNL     1      48.377   3.483  20.424  0.00  0.00    +0.000 OA
ATOM     15  H   UNL     1      49.089   2.833  20.291  0.00  0.00    +0.000 HD
ENDBRANCH  11  14
ENDBRANCH   1   8
BRANCH   5  16
ATOM     16  C   UNL     1      47.925   7.373  12.667  0.00  0.00    +0.000 C 
BRANCH  16  17
ATOM     17  C   UNL     1      46.490   7.302  13.212  0.00  0.00    +0.000 C 
BRANCH  17  18
ATOM     18  N   UNL     1      46.068   5.952  13.603  0.00  0.00    +0.000 N 
ATOM     19  C   UNL     1      45.693   5.199  12.460  0.00  0.00    +0.000 A 
ATOM     20  C   UNL     1      45.256   3.875  12.600  0.00  0.00    +0.000 A 
ATOM     21  N   UNL     1      44.881   3.073  11.561  0.00  0.00    +0.000 NA
ATOM     22  C   UNL     1      44.976   3.666  10.338  0.00  0.00    +0.000 A 
ATOM     23  C   UNL     1      45.411   4.969  10.177  0.00  0.00    +0.000 A 
ATOM     24  N   UNL     1      45.777   5.745  11.229  0.00  0.00    +0.000 NA
ATOM     25  H   UNL     1      45.279   5.978  14.246  0.00  0.00    +0.000 HD
BRANCH  22  26
ATOM     26  C   UNL     1      44.590   2.876   9.136  0.00  0.00    +0.000 C 
ATOM     27  N   UNL     1      44.280   3.589   8.012  0.00  0.00    +0.000 N 
ATOM     28  O   UNL     1      44.553   1.653   9.146  0.00  0.00    +0.000 OA
ATOM     29  H   UNL     1      44.306   4.603   8.019  0.00  0.00    +0.000 HD
ATOM     30  H   UNL     1      44.007   3.092   7.175  0.00  0.00    +0.000 HD
ENDBRANCH  22  26
ENDBRANCH  17  18
ENDBRANCH  16  17
ENDBRANCH   5  16
TORSDOF 6
ENDMDL
