MODEL 1
REMARK VINA RESULT:    -7.687      0.000      0.000
REMARK INTER + INTRA:         -11.883
REMARK INTER:                 -10.832
REMARK INTRA:                  -1.051
REMARK UNBOUND:                -1.051
REMARK  Name = 
REMARK  8 active torsions:
REMARK  status: ('A' for Active; 'I' for Inactive)
REMARK    1  A    between atoms: C_1  and  O_2
REMARK    2  A    between atoms: O_2  and  C_3
REMARK    3  A    between atoms: C_7  and  C_8
REMARK    4  A    between atoms: N_10  and  C_11
REMARK    5  A    between atoms: C_11  and  C_12
REMARK    6  A    between atoms: C_15  and  C_16
REMARK    7  A    between atoms: C_16  and  N_17
REMARK    8  A    between atoms: C_18  and  C_20
REMARK                            x       y       z     vdW  Elec       q    Type
REMARK                         _______ _______ _______ _____ _____    ______ ____
ROOT
ATOM      1  C   UNL     1      45.187   6.519  11.434  0.00  0.00    +0.000 A 
ATOM      2  C   UNL     1      44.825   7.785  11.889  0.00  0.00    +0.000 A 
ATOM      3  C   UNL     1      45.653   8.446  12.799  0.00  0.00    +0.000 A 
ATOM      4  C   UNL     1      46.840   7.845  13.223  0.00  0.00    +0.000 A 
ATOM      5  C   UNL     1      47.116   6.578  12.719  0.00  0.00    +0.000 A 
ATOM      6  N   UNL     1      46.331   5.908  11.839  0.00  0.00    +0.000 NA
ENDROOT
BRANCH   1   7
ATOM      7  C   UNL     1      44.304   5.783  10.450  0.00  0.00    +0.000 C 
BRANCH   7  10
ATOM      8  C   UNL     1      44.779   3.669   9.236  0.00  0.00    +0.000 C 
ATOM      9  O   UNL     1      43.883   3.041   9.800  0.00  0.00    +0.000 OA
ATOM     10  N   UNL     1      45.059   4.995   9.499  0.00  0.00    +0.000 N 
ATOM     11  H   UNL     1      45.740   5.451   8.905  0.00  0.00    +0.000 HD
BRANCH   8  16
ATOM     12  C   UNL     1      46.805   1.137   7.558  0.00  0.00    +0.000 A 
ATOM     13  C   UNL     1      47.199   1.724   6.365  0.00  0.00    +0.000 A 
ATOM     14  C   UNL     1      46.793   3.032   6.108  0.00  0.00    +0.000 A 
ATOM     15  C   UNL     1      46.006   3.698   7.047  0.00  0.00    +0.000 A 
ATOM     16  C   UNL     1      45.658   3.022   8.211  0.00  0.00    +0.000 A 
ATOM     17  N   UNL     1      46.048   1.755   8.490  0.00  0.00    +0.000 NA
BRANCH  12  19
ATOM     18  C   UNL     1      46.394  -1.103   7.076  0.00  0.00    +0.000 C 
ATOM     19  O   UNL     1      47.206  -0.165   7.781  0.00  0.00    +0.000 OA
ENDBRANCH  12  19
ENDBRANCH   8  16
ENDBRANCH   7  10
ENDBRANCH   1   7
BRANCH   4  20
ATOM     20  C   UNL     1      47.779   8.513  14.189  0.00  0.00    +0.000 C 
BRANCH  20  21
ATOM     21  N   UNL     1      48.077   7.670  15.319  0.00  0.00    +0.000 N 
ATOM     22  C   UNL     1      49.262   6.981  15.417  0.00  0.00    +0.000 C 
ATOM     23  O   UNL     1      50.143   7.071  14.567  0.00  0.00    +0.000 OA
ATOM     24  H   UNL     1      47.291   7.365  15.884  0.00  0.00    +0.000 HD
BRANCH  22  25
ATOM     25  C   UNL     1      49.444   6.177  16.634  0.00  0.00    +0.000 A 
ATOM     26  C   UNL     1      50.422   6.523  17.559  0.00  0.00    +0.000 A 
ATOM     27  S   UNL     1      50.450   5.509  18.932  0.00  0.00    +0.000 S 
ATOM     28  C   UNL     1      49.194   4.542  18.314  0.00  0.00    +0.000 A 
ATOM     29  N   UNL     1      48.741   3.457  18.999  0.00  0.00    +0.000 NA
ATOM     30  C   UNL     1      47.807   2.799  18.398  0.00  0.00    +0.000 A 
ATOM     31  N   UNL     1      47.276   3.132  17.180  0.00  0.00    +0.000 N 
ATOM     32  C   UNL     1      47.674   4.239  16.472  0.00  0.00    +0.000 A 
ATOM     33  O   UNL     1      47.137   4.546  15.412  0.00  0.00    +0.000 OA
ATOM     34  C   UNL     1      48.741   5.001  17.091  0.00  0.00    +0.000 A 
ATOM     35  H   UNL     1      46.530   2.586  16.771  0.00  0.00    +0.000 HD
ENDBRANCH  22  25
ENDBRANCH  20  21
ENDBRANCH   4  20
TORSDOF 7
ENDMDL
MODEL 2
REMARK VINA RESULT:    -7.563      3.218      4.940
REMARK INTER + INTRA:         -11.708
REMARK INTER:                 -10.823
REMARK INTRA:                  -0.885
REMARK UNBOUND:                -1.051
REMARK  Name = 
REMARK  8 active torsions:
REMARK  status: ('A' for Active; 'I' for Inactive)
REMARK    1  A    between atoms: C_1  and  O_2
REMARK    2  A    between atoms: O_2  and  C_3
REMARK    3  A    between atoms: C_7  and  C_8
REMARK    4  A    between atoms: N_10  and  C_11
REMARK    5  A    between atoms: C_11  and  C_12
REMARK    6  A    between atoms: C_15  and  C_16
REMARK    7  A    between atoms: C_16  and  N_17
REMARK    8  A    between atoms: C_18  and  C_20
REMARK                            x       y       z     vdW  Elec       q    Type
REMARK                         _______ _______ _______ _____ _____    ______ ____
ROOT
ATOM      1  C   UNL     1      47.426   5.657  14.502  0.00  0.00    +0.000 A 
ATOM      2  C   UNL     1      48.305   6.174  15.451  0.00  0.00    +0.000 A 
ATOM      3  C   UNL     1      48.580   5.433  16.602  0.00  0.00    +0.000 A 
ATOM      4  C   UNL     1      47.992   4.179  16.779  0.00  0.00    +0.000 A 
ATOM      5  C   UNL     1      47.124   3.747  15.781  0.00  0.00    +0.000 A 
ATOM      6  N   UNL     1      46.833   4.445  14.654  0.00  0.00    +0.000 NA
ENDROOT
BRANCH   1   7
ATOM      7  C   UNL     1      47.113   6.443  13.247  0.00  0.00    +0.000 C 
BRANCH   7  10
ATOM      8  C   UNL     1      45.644   5.969  11.301  0.00  0.00    +0.000 C 
ATOM      9  O   UNL     1      45.016   7.021  11.406  0.00  0.00    +0.000 OA
ATOM     10  N   UNL     1      46.666   5.604  12.156  0.00  0.00    +0.000 N 
ATOM     11  H   UNL     1      47.194   4.774  11.919  0.00  0.00    +0.000 HD
BRANCH   8  16
ATOM     12  C   UNL     1      45.758   4.250   8.081  0.00  0.00    +0.000 A 
ATOM     13  C   UNL     1      44.892   3.176   8.216  0.00  0.00    +0.000 A 
ATOM     14  C   UNL     1      44.219   3.019   9.426  0.00  0.00    +0.000 A 
ATOM     15  C   UNL     1      44.441   3.936  10.453  0.00  0.00    +0.000 A 
ATOM     16  C   UNL     1      45.332   4.978  10.223  0.00  0.00    +0.000 A 
ATOM     17  N   UNL     1      45.991   5.159   9.053  0.00  0.00    +0.000 NA
BRANCH  12  19
ATOM     18  C   UNL     1      46.678   3.106   6.276  0.00  0.00    +0.000 C 
ATOM     19  O   UNL     1      46.425   4.374   6.879  0.00  0.00    +0.000 OA
ENDBRANCH  12  19
ENDBRANCH   8  16
ENDBRANCH   7  10
ENDBRANCH   1   7
BRANCH   4  20
ATOM     20  C   UNL     1      48.260   3.329  17.990  0.00  0.00    +0.000 C 
BRANCH  20  21
ATOM     21  N   UNL     1      49.664   3.046  18.150  0.00  0.00    +0.000 N 
ATOM     22  C   UNL     1      50.341   2.226  17.279  0.00  0.00    +0.000 C 
ATOM     23  O   UNL     1      49.798   1.718  16.302  0.00  0.00    +0.000 OA
ATOM     24  H   UNL     1      50.065   3.217  19.065  0.00  0.00    +0.000 HD
BRANCH  22  25
ATOM     25  C   UNL     1      51.774   2.042  17.547  0.00  0.00    +0.000 A 
ATOM     26  C   UNL     1      52.301   0.763  17.677  0.00  0.00    +0.000 A 
ATOM     27  S   UNL     1      53.989   0.744  17.932  0.00  0.00    +0.000 S 
ATOM     28  C   UNL     1      54.066   2.444  17.930  0.00  0.00    +0.000 A 
ATOM     29  N   UNL     1      55.244   3.094  18.131  0.00  0.00    +0.000 NA
ATOM     30  C   UNL     1      55.149   4.382  18.133  0.00  0.00    +0.000 A 
ATOM     31  N   UNL     1      53.985   5.080  17.945  0.00  0.00    +0.000 N 
ATOM     32  C   UNL     1      52.781   4.467  17.702  0.00  0.00    +0.000 A 
ATOM     33  O   UNL     1      51.767   5.120  17.476  0.00  0.00    +0.000 OA
ATOM     34  C   UNL     1      52.827   3.018  17.712  0.00  0.00    +0.000 A 
ATOM     35  H   UNL     1      53.981   6.090  17.939  0.00  0.00    +0.000 HD
ENDBRANCH  22  25
ENDBRANCH  20  21
ENDBRANCH   4  20
TORSDOF 7
ENDMDL
MODEL 3
REMARK VINA RESULT:    -7.350      1.914      2.525
REMARK INTER + INTRA:         -11.409
REMARK INTER:                 -10.271
REMARK INTRA:                  -1.138
REMARK UNBOUND:                -1.051
REMARK  Name = 
REMARK  8 active torsions:
REMARK  status: ('A' for Active; 'I' for Inactive)
REMARK    1  A    between atoms: C_1  and  O_2
REMARK    2  A    between atoms: O_2  and  C_3
REMARK    3  A    between atoms: C_7  and  C_8
REMARK    4  A    between atoms: N_10  and  C_11
REMARK    5  A    between atoms: C_11  and  C_12
REMARK    6  A    between atoms: C_15  and  C_16
REMARK    7  A    between atoms: C_16  and  N_17
REMARK    8  A    between atoms: C_18  and  C_20
REMARK                            x       y       z     vdW  Elec       q    Type
REMARK                         _______ _______ _______ _____ _____    ______ ____
ROOT
ATOM      1  C   UNL     1      45.945   7.432  12.440  0.00  0.00    +0.000 A 
ATOM      2  C   UNL     1      46.864   6.451  12.806  0.00  0.00    +0.000 A 
ATOM      3  C   UNL     1      47.874   6.768  13.716  0.00  0.00    +0.000 A 
ATOM      4  C   UNL     1      47.939   8.050  14.266  0.00  0.00    +0.000 A 
ATOM      5  C   UNL     1      46.981   8.964  13.838  0.00  0.00    +0.000 A 
ATOM      6  N   UNL     1      45.991   8.689  12.952  0.00  0.00    +0.000 NA
ENDROOT
BRANCH   1   7
ATOM      7  C   UNL     1      44.843   7.111  11.454  0.00  0.00    +0.000 C 
BRANCH   7  10
ATOM      8  C   UNL     1      44.402   4.900  10.414  0.00  0.00    +0.000 C 
ATOM      9  O   UNL     1      43.360   4.713  11.041  0.00  0.00    +0.000 OA
ATOM     10  N   UNL     1      45.187   6.026  10.561  0.00  0.00    +0.000 N 
ATOM     11  H   UNL     1      45.963   6.137   9.920  0.00  0.00    +0.000 HD
BRANCH   8  16
ATOM     12  C   UNL     1      45.968   3.508   7.423  0.00  0.00    +0.000 A 
ATOM     13  C   UNL     1      45.948   2.135   7.612  0.00  0.00    +0.000 A 
ATOM     14  C   UNL     1      45.370   1.637   8.779  0.00  0.00    +0.000 A 
ATOM     15  C   UNL     1      44.841   2.530   9.711  0.00  0.00    +0.000 A 
ATOM     16  C   UNL     1      44.913   3.891   9.432  0.00  0.00    +0.000 A 
ATOM     17  N   UNL     1      45.460   4.399   8.301  0.00  0.00    +0.000 NA
BRANCH  12  19
ATOM     18  C   UNL     1      47.151   2.922   5.507  0.00  0.00    +0.000 C 
ATOM     19  O   UNL     1      46.560   3.975   6.267  0.00  0.00    +0.000 OA
ENDBRANCH  12  19
ENDBRANCH   8  16
ENDBRANCH   7  10
ENDBRANCH   1   7
BRANCH   4  20
ATOM     20  C   UNL     1      48.994   8.447  15.261  0.00  0.00    +0.000 C 
BRANCH  20  21
ATOM     21  N   UNL     1      49.780   7.318  15.691  0.00  0.00    +0.000 N 
ATOM     22  C   UNL     1      50.127   7.137  17.008  0.00  0.00    +0.000 C 
ATOM     23  O   UNL     1      49.760   7.904  17.893  0.00  0.00    +0.000 OA
ATOM     24  H   UNL     1      50.315   6.832  14.978  0.00  0.00    +0.000 HD
BRANCH  22  25
ATOM     25  C   UNL     1      50.912   5.931  17.310  0.00  0.00    +0.000 A 
ATOM     26  C   UNL     1      52.234   6.044  17.720  0.00  0.00    +0.000 A 
ATOM     27  S   UNL     1      52.968   4.544  18.076  0.00  0.00    +0.000 S 
ATOM     28  C   UNL     1      51.561   3.689  17.645  0.00  0.00    +0.000 A 
ATOM     29  N   UNL     1      51.522   2.330  17.694  0.00  0.00    +0.000 NA
ATOM     30  C   UNL     1      50.402   1.814  17.311  0.00  0.00    +0.000 A 
ATOM     31  N   UNL     1      49.314   2.533  16.891  0.00  0.00    +0.000 N 
ATOM     32  C   UNL     1      49.295   3.906  16.861  0.00  0.00    +0.000 A 
ATOM     33  O   UNL     1      48.284   4.523  16.539  0.00  0.00    +0.000 OA
ATOM     34  C   UNL     1      50.538   4.536  17.259  0.00  0.00    +0.000 A 
ATOM     35  H   UNL     1      48.457   2.070  16.622  0.00  0.00    +0.000 HD
ENDBRANCH  22  25
ENDBRANCH  20  21
ENDBRANCH   4  20
TORSDOF 7
ENDMDL
MODEL 4
REMARK VINA RESULT:    -7.158      5.240     10.102
REMARK INTER + INTRA:         -11.138
REMARK INTER:                 -10.206
REMARK INTRA:                  -0.932
REMARK UNBOUND:                -1.051
REMARK  Name = 
REMARK  8 active torsions:
REMARK  status: ('A' for Active; 'I' for Inactive)
REMARK    1  A    between atoms: C_1  and  O_2
REMARK    2  A    between atoms: O_2  and  C_3
REMARK    3  A    between atoms: C_7  and  C_8
REMARK    4  A    between atoms: N_10  and  C_11
REMARK    5  A    between atoms: C_11  and  C_12
REMARK    6  A    between atoms: C_15  and  C_16
REMARK    7  A    between atoms: C_16  and  N_17
REMARK    8  A    between atoms: C_18  and  C_20
REMARK                            x       y       z     vdW  Elec       q    Type
REMARK                         _______ _______ _______ _____ _____    ______ ____
ROOT
ATOM      1  C   UNL     1      51.370   3.048  17.748  0.00  0.00    +0.000 A 
ATOM      2  C   UNL     1      50.699   4.185  18.193  0.00  0.00    +0.000 A 
ATOM      3  C   UNL     1      49.336   4.322  17.921  0.00  0.00    +0.000 A 
ATOM      4  C   UNL     1      48.659   3.315  17.231  0.00  0.00    +0.000 A 
ATOM      5  C   UNL     1      49.413   2.219  16.822  0.00  0.00    +0.000 A 
ATOM      6  N   UNL     1      50.738   2.058  17.066  0.00  0.00    +0.000 NA
ENDROOT
BRANCH   1   7
ATOM      7  C   UNL     1      52.847   2.878  18.031  0.00  0.00    +0.000 C 
BRANCH   7  10
ATOM      8  C   UNL     1      54.122   0.777  17.670  0.00  0.00    +0.000 C 
ATOM      9  O   UNL     1      54.706   1.199  16.672  0.00  0.00    +0.000 OA
ATOM     10  N   UNL     1      53.199   1.518  18.380  0.00  0.00    +0.000 N 
ATOM     11  H   UNL     1      52.859   1.125  19.249  0.00  0.00    +0.000 HD
BRANCH   8  16
ATOM     12  C   UNL     1      53.619  -2.337  19.509  0.00  0.00    +0.000 A 
ATOM     13  C   UNL     1      54.679  -3.149  19.138  0.00  0.00    +0.000 A 
ATOM     14  C   UNL     1      55.623  -2.638  18.250  0.00  0.00    +0.000 A 
ATOM     15  C   UNL     1      55.468  -1.340  17.763  0.00  0.00    +0.000 A 
ATOM     16  C   UNL     1      54.368  -0.605  18.191  0.00  0.00    +0.000 A 
ATOM     17  N   UNL     1      53.442  -1.075  19.061  0.00  0.00    +0.000 NA
BRANCH  12  19
ATOM     18  C   UNL     1      52.993  -4.225  20.716  0.00  0.00    +0.000 C 
ATOM     19  O   UNL     1      52.689  -2.873  20.377  0.00  0.00    +0.000 OA
ENDBRANCH  12  19
ENDBRANCH   8  16
ENDBRANCH   7  10
ENDBRANCH   1   7
BRANCH   4  20
ATOM     20  C   UNL     1      47.190   3.400  16.920  0.00  0.00    +0.000 C 
BRANCH  20  21
ATOM     21  N   UNL     1      46.905   4.416  15.940  0.00  0.00    +0.000 N 
ATOM     22  C   UNL     1      46.990   4.165  14.591  0.00  0.00    +0.000 C 
ATOM     23  O   UNL     1      47.279   3.057  14.148  0.00  0.00    +0.000 OA
ATOM     24  H   UNL     1      46.932   5.380  16.255  0.00  0.00    +0.000 HD
BRANCH  22  25
ATOM     25  C   UNL     1      46.649   5.285  13.702  0.00  0.00    +0.000 A 
ATOM     26  C   UNL     1      47.559   6.315  13.498  0.00  0.00    +0.000 A 
ATOM     27  S   UNL     1      47.013   7.499  12.396  0.00  0.00    +0.000 S 
ATOM     28  C   UNL     1      45.522   6.705  12.194  0.00  0.00    +0.000 A 
ATOM     29  N   UNL     1      44.557   7.217  11.383  0.00  0.00    +0.000 NA
ATOM     30  C   UNL     1      43.467   6.526  11.348  0.00  0.00    +0.000 A 
ATOM     31  N   UNL     1      43.257   5.364  12.043  0.00  0.00    +0.000 N 
ATOM     32  C   UNL     1      44.214   4.790  12.842  0.00  0.00    +0.000 A 
ATOM     33  O   UNL     1      44.018   3.716  13.403  0.00  0.00    +0.000 OA
ATOM     34  C   UNL     1      45.452   5.540  12.936  0.00  0.00    +0.000 A 
ATOM     35  H   UNL     1      42.386   4.859  11.957  0.00  0.00    +0.000 HD
ENDBRANCH  22  25
ENDBRANCH  20  21
ENDBRANCH   4  20
TORSDOF 7
ENDMDL
MODEL 5
REMARK VINA RESULT:    -7.094      2.500      3.515
REMARK INTER + INTRA:         -11.048
REMARK INTER:                  -9.990
REMARK INTRA:                  -1.058
REMARK UNBOUND:                -1.051
REMARK  Name = 
REMARK  8 active torsions:
REMARK  status: ('A' for Active; 'I' for Inactive)
REMARK    1  A    between atoms: C_1  and  O_2
REMARK    2  A    between atoms: O_2  and  C_3
REMARK    3  A    between atoms: C_7  and  C_8
REMARK    4  A    between atoms: N_10  and  C_11
REMARK    5  A    between atoms: C_11  and  C_12
REMARK    6  A    between atoms: C_15  and  C_16
REMARK    7  A    between atoms: C_16  and  N_17
REMARK    8  A    between atoms: C_18  and  C_20
REMARK                            x       y       z     vdW  Elec       q    Type
REMARK                         _______ _______ _______ _____ _____    ______ ____
ROOT
ATOM      1  C   UNL     1      46.330   7.313  12.588  0.00  0.00    +0.000 A 
ATOM      2  C   UNL     1      47.223   6.275  12.844  0.00  0.00    +0.000 A 
ATOM      3  C   UNL     1      48.203   6.445  13.824  0.00  0.00    +0.000 A 
ATOM      4  C   UNL     1      48.264   7.636  14.549  0.00  0.00    +0.000 A 
ATOM      5  C   UNL     1      47.334   8.618  14.221  0.00  0.00    +0.000 A 
ATOM      6  N   UNL     1      46.374   8.486  13.271  0.00  0.00    +0.000 NA
ENDROOT
BRANCH   1   7
ATOM      7  C   UNL     1      45.260   7.153  11.530  0.00  0.00    +0.000 C 
BRANCH   7  10
ATOM      8  C   UNL     1      44.622   5.037  10.396  0.00  0.00    +0.000 C 
ATOM      9  O   UNL     1      43.527   4.965  10.954  0.00  0.00    +0.000 OA
ATOM     10  N   UNL     1      45.527   6.054  10.625  0.00  0.00    +0.000 N 
ATOM     11  H   UNL     1      46.349   6.084  10.035  0.00  0.00    +0.000 HD
BRANCH   8  16
ATOM     12  C   UNL     1      46.053   3.546   7.386  0.00  0.00    +0.000 A 
ATOM     13  C   UNL     1      45.986   2.177   7.596  0.00  0.00    +0.000 A 
ATOM     14  C   UNL     1      45.420   1.718   8.783  0.00  0.00    +0.000 A 
ATOM     15  C   UNL     1      44.950   2.643   9.716  0.00  0.00    +0.000 A 
ATOM     16  C   UNL     1      45.067   3.996   9.417  0.00  0.00    +0.000 A 
ATOM     17  N   UNL     1      45.604   4.467   8.265  0.00  0.00    +0.000 NA
BRANCH  12  19
ATOM     18  C   UNL     1      47.084   2.884   5.408  0.00  0.00    +0.000 C 
ATOM     19  O   UNL     1      46.633   3.975   6.209  0.00  0.00    +0.000 OA
ENDBRANCH  12  19
ENDBRANCH   8  16
ENDBRANCH   7  10
ENDBRANCH   1   7
BRANCH   4  20
ATOM     20  C   UNL     1      49.287   7.872  15.625  0.00  0.00    +0.000 C 
BRANCH  20  21
ATOM     21  N   UNL     1      49.967   6.657  15.997  0.00  0.00    +0.000 N 
ATOM     22  C   UNL     1      49.576   5.910  17.082  0.00  0.00    +0.000 C 
ATOM     23  O   UNL     1      48.608   6.217  17.773  0.00  0.00    +0.000 OA
ATOM     24  H   UNL     1      50.905   6.525  15.631  0.00  0.00    +0.000 HD
BRANCH  22  25
ATOM     25  C   UNL     1      50.344   4.683  17.333  0.00  0.00    +0.000 A 
ATOM     26  C   UNL     1      49.715   3.445  17.289  0.00  0.00    +0.000 A 
ATOM     27  S   UNL     1      50.774   2.132  17.551  0.00  0.00    +0.000 S 
ATOM     28  C   UNL     1      52.099   3.173  17.785  0.00  0.00    +0.000 A 
ATOM     29  N   UNL     1      53.333   2.685  18.082  0.00  0.00    +0.000 NA
ATOM     30  C   UNL     1      54.236   3.589  18.262  0.00  0.00    +0.000 A 
ATOM     31  N   UNL     1      54.020   4.939  18.163  0.00  0.00    +0.000 N 
ATOM     32  C   UNL     1      52.802   5.475  17.829  0.00  0.00    +0.000 A 
ATOM     33  O   UNL     1      52.655   6.686  17.688  0.00  0.00    +0.000 OA
ATOM     34  C   UNL     1      51.744   4.502  17.639  0.00  0.00    +0.000 A 
ATOM     35  H   UNL     1      54.776   5.596  18.297  0.00  0.00    +0.000 HD
ENDBRANCH  22  25
ENDBRANCH  20  21
ENDBRANCH   4  20
TORSDOF 7
ENDMDL
MODEL 6
REMARK VINA RESULT:    -7.069      3.160      8.840
REMARK INTER + INTRA:         -11.013
REMARK INTER:                  -9.950
REMARK INTRA:                  -1.063
REMARK UNBOUND:                -1.051
REMARK  Name = 
REMARK  8 active torsions:
REMARK  status: ('A' for Active; 'I' for Inactive)
REMARK    1  A    between atoms: C_1  and  O_2
REMARK    2  A    between atoms: O_2  and  C_3
REMARK    3  A    between atoms: C_7  and  C_8
REMARK    4  A    between atoms: N_10  and  C_11
REMARK    5  A    between atoms: C_11  and  C_12
REMARK    6  A    between atoms: C_15  and  C_16
REMARK    7  A    between atoms: C_16  and  N_17
REMARK    8  A    between atoms: C_18  and  C_20
REMARK                            x       y       z     vdW  Elec       q    Type
REMARK                         _______ _______ _______ _____ _____    ______ ____
ROOT
ATOM      1  C   UNL     1      50.482   7.971  14.466  0.00  0.00    +0.000 A 
ATOM      2  C   UNL     1      50.304   9.132  13.717  0.00  0.00    +0.000 A 
ATOM      3  C   UNL     1      49.226   9.216  12.833  0.00  0.00    +0.000 A 
ATOM      4  C   UNL     1      48.330   8.150  12.726  0.00  0.00    +0.000 A 
ATOM      5  C   UNL     1      48.591   7.030  13.509  0.00  0.00    +0.000 A 
ATOM      6  N   UNL     1      49.631   6.917  14.373  0.00  0.00    +0.000 NA
ENDROOT
BRANCH   1   7
ATOM      7  C   UNL     1      51.644   7.858  15.429  0.00  0.00    +0.000 C 
BRANCH   7  10
ATOM      8  C   UNL     1      51.620   6.151  17.233  0.00  0.00    +0.000 C 
ATOM      9  O   UNL     1      51.263   6.946  18.102  0.00  0.00    +0.000 OA
ATOM     10  N   UNL     1      51.839   6.510  15.917  0.00  0.00    +0.000 N 
ATOM     11  H   UNL     1      52.020   5.764  15.258  0.00  0.00    +0.000 HD
BRANCH   8  16
ATOM     12  C   UNL     1      51.105   2.539  17.380  0.00  0.00    +0.000 A 
ATOM     13  C   UNL     1      52.239   2.039  18.002  0.00  0.00    +0.000 A 
ATOM     14  C   UNL     1      53.218   2.941  18.414  0.00  0.00    +0.000 A 
ATOM     15  C   UNL     1      53.029   4.304  18.183  0.00  0.00    +0.000 A 
ATOM     16  C   UNL     1      51.860   4.706  17.547  0.00  0.00    +0.000 A 
ATOM     17  N   UNL     1      50.888   3.851  17.147  0.00  0.00    +0.000 NA
BRANCH  12  19
ATOM     18  C   UNL     1      48.868   2.215  16.827  0.00  0.00    +0.000 C 
ATOM     19  O   UNL     1      50.158   1.623  16.968  0.00  0.00    +0.000 OA
ENDBRANCH  12  19
ENDBRANCH   8  16
ENDBRANCH   7  10
ENDBRANCH   1   7
BRANCH   4  20
ATOM     20  C   UNL     1      47.144   8.186  11.803  0.00  0.00    +0.000 C 
BRANCH  20  21
ATOM     21  N   UNL     1      46.526   6.891  11.669  0.00  0.00    +0.000 N 
ATOM     22  C   UNL     1      45.167   6.748  11.523  0.00  0.00    +0.000 C 
ATOM     23  O   UNL     1      44.410   7.713  11.464  0.00  0.00    +0.000 OA
ATOM     24  H   UNL     1      47.067   6.090  11.979  0.00  0.00    +0.000 HD
BRANCH  22  25
ATOM     25  C   UNL     1      44.674   5.372  11.374  0.00  0.00    +0.000 A 
ATOM     26  C   UNL     1      43.917   4.789  12.383  0.00  0.00    +0.000 A 
ATOM     27  S   UNL     1      43.389   3.209  12.012  0.00  0.00    +0.000 S 
ATOM     28  C   UNL     1      44.196   3.229  10.514  0.00  0.00    +0.000 A 
ATOM     29  N   UNL     1      44.172   2.148   9.689  0.00  0.00    +0.000 NA
ATOM     30  C   UNL     1      44.852   2.292   8.600  0.00  0.00    +0.000 A 
ATOM     31  N   UNL     1      45.546   3.423   8.257  0.00  0.00    +0.000 N 
ATOM     32  C   UNL     1      45.567   4.550   9.041  0.00  0.00    +0.000 A 
ATOM     33  O   UNL     1      46.147   5.569   8.677  0.00  0.00    +0.000 OA
ATOM     34  C   UNL     1      44.838   4.433  10.288  0.00  0.00    +0.000 A 
ATOM     35  H   UNL     1      46.043   3.480   7.380  0.00  0.00    +0.000 HD
ENDBRANCH  22  25
ENDBRANCH  20  21
ENDBRANCH   4  20
TORSDOF 7
ENDMDL
MODEL 7
REMARK VINA RESULT:    -6.654      3.870      8.922
REMARK INTER + INTRA:         -10.427
REMARK INTER:                  -9.510
REMARK INTRA:                  -0.918
REMARK UNBOUND:                -1.051
REMARK  Name = 
REMARK  8 active torsions:
REMARK  status: ('A' for Active; 'I' for Inactive)
REMARK    1  A    between atoms: C_1  and  O_2
REMARK    2  A    between atoms: O_2  and  C_3
REMARK    3  A    between atoms: C_7  and  C_8
REMARK    4  A    between atoms: N_10  and  C_11
REMARK    5  A    between atoms: C_11  and  C_12
REMARK    6  A    between atoms: C_15  and  C_16
REMARK    7  A    between atoms: C_16  and  N_17
REMARK    8  A    between atoms: C_18  and  C_20
REMARK                            x       y       z     vdW  Elec       q    Type
REMARK                         _______ _______ _______ _____ _____    ______ ____
ROOT
ATOM      1  C   UNL     1      49.818   7.257  15.879  0.00  0.00    +0.000 A 
ATOM      2  C   UNL     1      48.668   6.579  15.478  0.00  0.00    +0.000 A 
ATOM      3  C   UNL     1      48.129   6.836  14.216  0.00  0.00    +0.000 A 
ATOM      4  C   UNL     1      48.756   7.747  13.364  0.00  0.00    +0.000 A 
ATOM      5  C   UNL     1      49.896   8.379  13.852  0.00  0.00    +0.000 A 
ATOM      6  N   UNL     1      50.441   8.155  15.074  0.00  0.00    +0.000 NA
ENDROOT
BRANCH   1   7
ATOM      7  C   UNL     1      50.418   6.995  17.243  0.00  0.00    +0.000 C 
BRANCH   7  10
ATOM      8  C   UNL     1      50.532   4.576  17.797  0.00  0.00    +0.000 C 
ATOM      9  O   UNL     1      49.380   4.530  18.226  0.00  0.00    +0.000 OA
ATOM     10  N   UNL     1      51.118   5.729  17.314  0.00  0.00    +0.000 N 
ATOM     11  H   UNL     1      52.029   5.640  16.881  0.00  0.00    +0.000 HD
BRANCH   8  16
ATOM     12  C   UNL     1      53.474   2.458  18.238  0.00  0.00    +0.000 A 
ATOM     13  C   UNL     1      53.063   1.189  17.861  0.00  0.00    +0.000 A 
ATOM     14  C   UNL     1      51.752   1.024  17.419  0.00  0.00    +0.000 A 
ATOM     15  C   UNL     1      50.903   2.130  17.376  0.00  0.00    +0.000 A 
ATOM     16  C   UNL     1      51.407   3.361  17.779  0.00  0.00    +0.000 A 
ATOM     17  N   UNL     1      52.680   3.550  18.203  0.00  0.00    +0.000 NA
BRANCH  12  19
ATOM     18  C   UNL     1      55.040   1.743  19.803  0.00  0.00    +0.000 C 
ATOM     19  O   UNL     1      54.772   2.591  18.688  0.00  0.00    +0.000 OA
ENDBRANCH  12  19
ENDBRANCH   8  16
ENDBRANCH   7  10
ENDBRANCH   1   7
BRANCH   4  20
ATOM     20  C   UNL     1      48.232   8.055  11.989  0.00  0.00    +0.000 C 
BRANCH  20  21
ATOM     21  N   UNL     1      47.528   6.935  11.417  0.00  0.00    +0.000 N 
ATOM     22  C   UNL     1      46.155   6.876  11.396  0.00  0.00    +0.000 C 
ATOM     23  O   UNL     1      45.454   7.786  11.830  0.00  0.00    +0.000 OA
ATOM     24  H   UNL     1      48.052   6.073  11.305  0.00  0.00    +0.000 HD
BRANCH  22  25
ATOM     25  C   UNL     1      45.569   5.687  10.762  0.00  0.00    +0.000 A 
ATOM     26  C   UNL     1      45.726   5.474   9.398  0.00  0.00    +0.000 A 
ATOM     27  S   UNL     1      45.025   4.017   8.850  0.00  0.00    +0.000 S 
ATOM     28  C   UNL     1      44.443   3.646  10.405  0.00  0.00    +0.000 A 
ATOM     29  N   UNL     1      43.714   2.519  10.632  0.00  0.00    +0.000 NA
ATOM     30  C   UNL     1      43.313   2.380  11.852  0.00  0.00    +0.000 A 
ATOM     31  N   UNL     1      43.582   3.260  12.868  0.00  0.00    +0.000 N 
ATOM     32  C   UNL     1      44.344   4.389  12.693  0.00  0.00    +0.000 A 
ATOM     33  O   UNL     1      44.618   5.125  13.636  0.00  0.00    +0.000 OA
ATOM     34  C   UNL     1      44.800   4.606  11.334  0.00  0.00    +0.000 A 
ATOM     35  H   UNL     1      43.254   3.083  13.807  0.00  0.00    +0.000 HD
ENDBRANCH  22  25
ENDBRANCH  20  21
ENDBRANCH   4  20
TORSDOF 7
ENDMDL
MODEL 8
REMARK VINA RESULT:    -6.349      2.410      3.145
REMARK INTER + INTRA:          -9.998
REMARK INTER:                  -9.125
REMARK INTRA:                  -0.872
REMARK UNBOUND:                -1.051
REMARK  Name = 
REMARK  8 active torsions:
REMARK  status: ('A' for Active; 'I' for Inactive)
REMARK    1  A    between atoms: C_1  and  O_2
REMARK    2  A    between atoms: O_2  and  C_3
REMARK    3  A    between atoms: C_7  and  C_8
REMARK    4  A    between atoms: N_10  and  C_11
REMARK    5  A    between atoms: C_11  and  C_12
REMARK    6  A    between atoms: C_15  and  C_16
REMARK    7  A    between atoms: C_16  and  N_17
REMARK    8  A    between atoms: C_18  and  C_20
REMARK                            x       y       z     vdW  Elec       q    Type
REMARK                         _______ _______ _______ _____ _____    ______ ____
ROOT
ATOM      1  C   UNL     1      46.296   7.446  12.272  0.00  0.00    +0.000 A 
ATOM      2  C   UNL     1      46.129   8.445  13.229  0.00  0.00    +0.000 A 
ATOM      3  C   UNL     1      47.244   8.917  13.925  0.00  0.00    +0.000 A 
ATOM      4  C   UNL     1      48.510   8.402  13.641  0.00  0.00    +0.000 A 
ATOM      5  C   UNL     1      48.579   7.404  12.674  0.00  0.00    +0.000 A 
ATOM      6  N   UNL     1      47.515   6.921  11.985  0.00  0.00    +0.000 NA
ENDROOT
BRANCH   1   7
ATOM      7  C   UNL     1      45.102   6.919  11.507  0.00  0.00    +0.000 C 
BRANCH   7  10
ATOM      8  C   UNL     1      44.461   4.946  10.140  0.00  0.00    +0.000 C 
ATOM      9  O   UNL     1      43.255   5.098  10.327  0.00  0.00    +0.000 OA
ATOM     10  N   UNL     1      45.425   5.773  10.683  0.00  0.00    +0.000 N 
ATOM     11  H   UNL     1      46.380   5.633  10.380  0.00  0.00    +0.000 HD
BRANCH   8  16
ATOM     12  C   UNL     1      46.365   3.173   7.578  0.00  0.00    +0.000 A 
ATOM     13  C   UNL     1      46.063   1.834   7.768  0.00  0.00    +0.000 A 
ATOM     14  C   UNL     1      45.168   1.496   8.781  0.00  0.00    +0.000 A 
ATOM     15  C   UNL     1      44.617   2.507   9.568  0.00  0.00    +0.000 A 
ATOM     16  C   UNL     1      44.986   3.821   9.303  0.00  0.00    +0.000 A 
ATOM     17  N   UNL     1      45.845   4.177   8.316  0.00  0.00    +0.000 NA
BRANCH  12  19
ATOM     18  C   UNL     1      46.880   2.922   5.322  0.00  0.00    +0.000 C 
ATOM     19  O   UNL     1      47.266   3.479   6.578  0.00  0.00    +0.000 OA
ENDBRANCH  12  19
ENDBRANCH   8  16
ENDBRANCH   7  10
ENDBRANCH   1   7
BRANCH   4  20
ATOM     20  C   UNL     1      49.750   8.879  14.346  0.00  0.00    +0.000 C 
BRANCH  20  21
ATOM     21  N   UNL     1      49.682   8.650  15.767  0.00  0.00    +0.000 N 
ATOM     22  C   UNL     1      49.788   7.389  16.304  0.00  0.00    +0.000 C 
ATOM     23  O   UNL     1      49.980   6.396  15.608  0.00  0.00    +0.000 OA
ATOM     24  H   UNL     1      49.263   9.382  16.331  0.00  0.00    +0.000 HD
BRANCH  22  25
ATOM     25  C   UNL     1      49.725   7.303  17.770  0.00  0.00    +0.000 A 
ATOM     26  C   UNL     1      50.563   6.431  18.454  0.00  0.00    +0.000 A 
ATOM     27  S   UNL     1      50.386   6.506  20.150  0.00  0.00    +0.000 S 
ATOM     28  C   UNL     1      49.148   7.667  20.027  0.00  0.00    +0.000 A 
ATOM     29  N   UNL     1      48.525   8.152  21.136  0.00  0.00    +0.000 NA
ATOM     30  C   UNL     1      47.587   9.003  20.891  0.00  0.00    +0.000 A 
ATOM     31  N   UNL     1      47.218   9.422  19.640  0.00  0.00    +0.000 N 
ATOM     32  C   UNL     1      47.843   8.990  18.496  0.00  0.00    +0.000 A 
ATOM     33  O   UNL     1      47.531   9.430  17.394  0.00  0.00    +0.000 OA
ATOM     34  C   UNL     1      48.891   8.012  18.713  0.00  0.00    +0.000 A 
ATOM     35  H   UNL     1      46.486  10.108  19.516  0.00  0.00    +0.000 HD
ENDBRANCH  22  25
ENDBRANCH  20  21
ENDBRANCH   4  20
TORSDOF 7
ENDMDL
MODEL 9
REMARK VINA RESULT:    -6.238      4.266      8.298
REMARK INTER + INTRA:          -9.842
REMARK INTER:                  -8.788
REMARK INTRA:                  -1.054
REMARK UNBOUND:                -1.051
REMARK  Name = 
REMARK  8 active torsions:
REMARK  status: ('A' for Active; 'I' for Inactive)
REMARK    1  A    between atoms: C_1  and  O_2
REMARK    2  A    between atoms: O_2  and  C_3
REMARK    3  A    between atoms: C_7  and  C_8
REMARK    4  A    between atoms: N_10  and  C_11
REMARK    5  A    between atoms: C_11  and  C_12
REMARK    6  A    between atoms: C_15  and  C_16
REMARK    7  A    between atoms: C_16  and  N_17
REMARK    8  A    between atoms: C_18  and  C_20
REMARK                            x       y       z     vdW  Elec       q    Type
REMARK                         _______ _______ _______ _____ _____    ______ ____
ROOT
ATOM      1  C   UNL     1      50.747   8.133  15.935  0.00  0.00    +0.000 A 
ATOM      2  C   UNL     1      49.464   8.340  16.438  0.00  0.00    +0.000 A 
ATOM      3  C   UNL     1      48.494   8.917  15.616  0.00  0.00    +0.000 A 
ATOM      4  C   UNL     1      48.810   9.257  14.299  0.00  0.00    +0.000 A 
ATOM      5  C   UNL     1      50.117   9.018  13.887  0.00  0.00    +0.000 A 
ATOM      6  N   UNL     1      51.083   8.464  14.662  0.00  0.00    +0.000 NA
ENDROOT
BRANCH   1   7
ATOM      7  C   UNL     1      51.814   7.511  16.809  0.00  0.00    +0.000 C 
BRANCH   7  10
ATOM      8  C   UNL     1      52.099   5.322  17.949  0.00  0.00    +0.000 C 
ATOM      9  O   UNL     1      52.529   5.820  18.988  0.00  0.00    +0.000 OA
ATOM     10  N   UNL     1      51.741   6.066  16.841  0.00  0.00    +0.000 N 
ATOM     11  H   UNL     1      51.293   5.573  16.078  0.00  0.00    +0.000 HD
BRANCH   8  16
ATOM     12  C   UNL     1      50.687   2.104  16.958  0.00  0.00    +0.000 A 
ATOM     13  C   UNL     1      51.598   1.159  17.405  0.00  0.00    +0.000 A 
ATOM     14  C   UNL     1      52.729   1.603  18.088  0.00  0.00    +0.000 A 
ATOM     15  C   UNL     1      52.908   2.971  18.291  0.00  0.00    +0.000 A 
ATOM     16  C   UNL     1      51.940   3.841  17.800  0.00  0.00    +0.000 A 
ATOM     17  N   UNL     1      50.828   3.434  17.143  0.00  0.00    +0.000 NA
BRANCH  12  19
ATOM     18  C   UNL     1      48.444   2.474  16.463  0.00  0.00    +0.000 C 
ATOM     19  O   UNL     1      49.584   1.639  16.271  0.00  0.00    +0.000 OA
ENDBRANCH  12  19
ENDBRANCH   8  16
ENDBRANCH   7  10
ENDBRANCH   1   7
BRANCH   4  20
ATOM     20  C   UNL     1      47.805   9.868  13.362  0.00  0.00    +0.000 C 
BRANCH  20  21
ATOM     21  N   UNL     1      46.714   8.969  13.084  0.00  0.00    +0.000 N 
ATOM     22  C   UNL     1      46.849   7.912  12.215  0.00  0.00    +0.000 C 
ATOM     23  O   UNL     1      47.912   7.656  11.657  0.00  0.00    +0.000 OA
ATOM     24  H   UNL     1      45.779   9.299  13.302  0.00  0.00    +0.000 HD
BRANCH  22  25
ATOM     25  C   UNL     1      45.662   7.063  12.041  0.00  0.00    +0.000 A 
ATOM     26  C   UNL     1      44.505   7.587  11.478  0.00  0.00    +0.000 A 
ATOM     27  S   UNL     1      43.251   6.442  11.306  0.00  0.00    +0.000 S 
ATOM     28  C   UNL     1      44.192   5.220  12.026  0.00  0.00    +0.000 A 
ATOM     29  N   UNL     1      43.693   3.968  12.214  0.00  0.00    +0.000 NA
ATOM     30  C   UNL     1      44.505   3.152  12.797  0.00  0.00    +0.000 A 
ATOM     31  N   UNL     1      45.775   3.470  13.203  0.00  0.00    +0.000 N 
ATOM     32  C   UNL     1      46.333   4.708  13.000  0.00  0.00    +0.000 A 
ATOM     33  O   UNL     1      47.494   4.944  13.319  0.00  0.00    +0.000 OA
ATOM     34  C   UNL     1      45.453   5.671  12.369  0.00  0.00    +0.000 A 
ATOM     35  H   UNL     1      46.369   2.778  13.638  0.00  0.00    +0.000 HD
ENDBRANCH  22  25
ENDBRANCH  20  21
ENDBRANCH   4  20
TORSDOF 7
ENDMDL
