MODEL 1
REMARK VINA RESULT:    -7.607      0.000      0.000
REMARK INTER + INTRA:         -12.440
REMARK INTER:                 -10.720
REMARK INTRA:                  -1.720
REMARK UNBOUND:                -1.720
REMARK  Name = 
REMARK  8 active torsions:
REMARK  status: ('A' for Active; 'I' for Inactive)
REMARK    1  A    between atoms: C_1  and  S_2
REMARK    2  A    between atoms: S_2  and  C_5
REMARK    3  A    between atoms: C_9  and  C_10
REMARK    4  A    between atoms: C_10  and  N_11
REMARK    5  A    between atoms: N_11  and  C_12
REMARK    6  A    between atoms: C_15  and  C_16
REMARK    7  A    between atoms: C_16  and  N_17
REMARK    8  A    between atoms: C_18  and  C_20
REMARK                            x       y       z     vdW  Elec       q    Type
REMARK                         _______ _______ _______ _____ _____    ______ ____
ROOT
ATOM      1  C   UNL     1      49.547   8.476  15.703  0.00  0.00    +0.000 A 
ATOM      2  C   UNL     1      48.279   8.975  15.381  0.00  0.00    +0.000 A 
ATOM      3  C   UNL     1      47.734   8.799  14.096  0.00  0.00    +0.000 A 
ATOM      4  C   UNL     1      48.464   8.139  13.093  0.00  0.00    +0.000 A 
ATOM      5  C   UNL     1      49.762   7.730  13.389  0.00  0.00    +0.000 A 
ATOM      6  C   UNL     1      50.290   7.906  14.670  0.00  0.00    +0.000 A 
ENDROOT
BRANCH   1   7
ATOM      7  N   UNL     1      50.102   8.661  16.981  0.00  0.00    +0.000 N 
ATOM      8  H   UNL     1      50.293   9.640  17.160  0.00  0.00    +0.000 HD
BRANCH   7   9
ATOM      9  C   UNL     1      49.427   8.007  18.108  0.00  0.00    +0.000 C 
BRANCH   9  14
ATOM     10  C   UNL     1      48.945   4.308  17.341  0.00  0.00    +0.000 A 
ATOM     11  C   UNL     1      50.117   3.741  17.834  0.00  0.00    +0.000 A 
ATOM     12  C   UNL     1      51.048   4.554  18.477  0.00  0.00    +0.000 A 
ATOM     13  C   UNL     1      50.814   5.926  18.597  0.00  0.00    +0.000 A 
ATOM     14  C   UNL     1      49.641   6.510  18.086  0.00  0.00    +0.000 A 
ATOM     15  C   UNL     1      48.689   5.679  17.479  0.00  0.00    +0.000 A 
BRANCH  10  17
ATOM     16  C   UNL     1      47.142   4.403  15.245  0.00  0.00    +0.000 C 
ATOM     17  S   UNL     1      47.794   3.285  16.458  0.00  0.00    +0.000 S 
ATOM     18  O   UNL     1      46.728   2.933  17.377  0.00  0.00    +0.000 OA
ATOM     19  O   UNL     1      48.556   2.262  15.770  0.00  0.00    +0.000 OA
ENDBRANCH  10  17
ENDBRANCH   9  14
ENDBRANCH   7   9
ENDBRANCH   1   7
BRANCH   4  20
ATOM     20  C   UNL     1      47.898   7.838  11.724  0.00  0.00    +0.000 C 
BRANCH  20  21
ATOM     21  N   UNL     1      47.094   6.645  11.697  0.00  0.00    +0.000 N 
ATOM     22  C   UNL     1      45.724   6.690  11.801  0.00  0.00    +0.000 C 
ATOM     23  O   UNL     1      45.099   7.732  11.915  0.00  0.00    +0.000 OA
ATOM     24  H   UNL     1      47.561   5.787  11.974  0.00  0.00    +0.000 HD
BRANCH  22  25
ATOM     25  C   UNL     1      45.055   5.384  11.693  0.00  0.00    +0.000 A 
ATOM     26  C   UNL     1      44.361   4.867  12.777  0.00  0.00    +0.000 A 
ATOM     27  S   UNL     1      43.621   3.362  12.453  0.00  0.00    +0.000 S 
ATOM     28  C   UNL     1      44.231   3.339  10.863  0.00  0.00    +0.000 A 
ATOM     29  N   UNL     1      43.987   2.290  10.032  0.00  0.00    +0.000 NA
ATOM     30  C   UNL     1      44.536   2.395   8.864  0.00  0.00    +0.000 A 
ATOM     31  N   UNL     1      45.296   3.464   8.451  0.00  0.00    +0.000 N 
ATOM     32  C   UNL     1      45.519   4.568   9.231  0.00  0.00    +0.000 A 
ATOM     33  O   UNL     1      46.119   5.541   8.799  0.00  0.00    +0.000 OA
ATOM     34  C   UNL     1      44.961   4.478  10.573  0.00  0.00    +0.000 A 
ATOM     35  H   UNL     1      45.669   3.496   7.515  0.00  0.00    +0.000 HD
ENDBRANCH  22  25
ENDBRANCH  20  21
ENDBRANCH   4  20
TORSDOF 7
ENDMDL
MODEL 2
REMARK VINA RESULT:    -6.829      2.659      7.660
REMARK INTER + INTRA:         -11.344
REMARK INTER:                 -10.456
REMARK INTRA:                  -0.888
REMARK UNBOUND:                -1.720
REMARK  Name = 
REMARK  8 active torsions:
REMARK  status: ('A' for Active; 'I' for Inactive)
REMARK    1  A    between atoms: C_1  and  S_2
REMARK    2  A    between atoms: S_2  and  C_5
REMARK    3  A    between atoms: C_9  and  C_10
REMARK    4  A    between atoms: C_10  and  N_11
REMARK    5  A    between atoms: N_11  and  C_12
REMARK    6  A    between atoms: C_15  and  C_16
REMARK    7  A    between atoms: C_16  and  N_17
REMARK    8  A    between atoms: C_18  and  C_20
REMARK                            x       y       z     vdW  Elec       q    Type
REMARK                         _______ _______ _______ _____ _____    ______ ____
ROOT
ATOM      1  C   UNL     1      44.970   7.633  11.614  0.00  0.00    +0.000 A 
ATOM      2  C   UNL     1      45.262   8.597  12.587  0.00  0.00    +0.000 A 
ATOM      3  C   UNL     1      46.535   8.661  13.184  0.00  0.00    +0.000 A 
ATOM      4  C   UNL     1      47.538   7.741  12.836  0.00  0.00    +0.000 A 
ATOM      5  C   UNL     1      47.211   6.725  11.940  0.00  0.00    +0.000 A 
ATOM      6  C   UNL     1      45.946   6.674  11.350  0.00  0.00    +0.000 A 
ENDROOT
BRANCH   1   7
ATOM      7  N   UNL     1      43.696   7.555  11.023  0.00  0.00    +0.000 N 
ATOM      8  H   UNL     1      43.762   7.541  10.012  0.00  0.00    +0.000 HD
BRANCH   7   9
ATOM      9  C   UNL     1      42.779   6.532  11.538  0.00  0.00    +0.000 C 
BRANCH   9  14
ATOM     10  C   UNL     1      44.394   3.642   9.656  0.00  0.00    +0.000 A 
ATOM     11  C   UNL     1      44.348   2.609  10.588  0.00  0.00    +0.000 A 
ATOM     12  C   UNL     1      43.733   2.830  11.818  0.00  0.00    +0.000 A 
ATOM     13  C   UNL     1      43.195   4.085  12.117  0.00  0.00    +0.000 A 
ATOM     14  C   UNL     1      43.254   5.139  11.188  0.00  0.00    +0.000 A 
ATOM     15  C   UNL     1      43.836   4.897   9.935  0.00  0.00    +0.000 A 
BRANCH  10  17
ATOM     16  C   UNL     1      46.036   1.819   8.378  0.00  0.00    +0.000 C 
ATOM     17  S   UNL     1      45.242   3.383   8.118  0.00  0.00    +0.000 S 
ATOM     18  O   UNL     1      46.267   4.404   8.006  0.00  0.00    +0.000 OA
ATOM     19  O   UNL     1      44.238   3.217   7.087  0.00  0.00    +0.000 OA
ENDBRANCH  10  17
ENDBRANCH   9  14
ENDBRANCH   7   9
ENDBRANCH   1   7
BRANCH   4  20
ATOM     20  C   UNL     1      48.948   7.816  13.372  0.00  0.00    +0.000 C 
BRANCH  20  21
ATOM     21  N   UNL     1      49.164   6.961  14.510  0.00  0.00    +0.000 N 
ATOM     22  C   UNL     1      48.979   7.406  15.798  0.00  0.00    +0.000 C 
ATOM     23  O   UNL     1      48.618   8.540  16.065  0.00  0.00    +0.000 OA
ATOM     24  H   UNL     1      49.795   6.179  14.366  0.00  0.00    +0.000 HD
BRANCH  22  25
ATOM     25  C   UNL     1      49.184   6.385  16.836  0.00  0.00    +0.000 A 
ATOM     26  C   UNL     1      50.080   6.614  17.871  0.00  0.00    +0.000 A 
ATOM     27  S   UNL     1      50.157   5.335  18.999  0.00  0.00    +0.000 S 
ATOM     28  C   UNL     1      49.017   4.419  18.126  0.00  0.00    +0.000 A 
ATOM     29  N   UNL     1      48.647   3.178  18.540  0.00  0.00    +0.000 NA
ATOM     30  C   UNL     1      47.795   2.588  17.764  0.00  0.00    +0.000 A 
ATOM     31  N   UNL     1      47.272   3.137  16.617  0.00  0.00    +0.000 N 
ATOM     32  C   UNL     1      47.570   4.405  16.192  0.00  0.00    +0.000 A 
ATOM     33  O   UNL     1      47.015   4.897  15.221  0.00  0.00    +0.000 OA
ATOM     34  C   UNL     1      48.561   5.094  17.007  0.00  0.00    +0.000 A 
ATOM     35  H   UNL     1      46.588   2.633  16.074  0.00  0.00    +0.000 HD
ENDBRANCH  22  25
ENDBRANCH  20  21
ENDBRANCH   4  20
TORSDOF 7
ENDMDL
MODEL 3
REMARK VINA RESULT:    -6.572      3.243      8.892
REMARK INTER + INTRA:         -10.981
REMARK INTER:                  -9.944
REMARK INTRA:                  -1.037
REMARK UNBOUND:                -1.720
REMARK  Name = 
REMARK  8 active torsions:
REMARK  status: ('A' for Active; 'I' for Inactive)
REMARK    1  A    between atoms: C_1  and  S_2
REMARK    2  A    between atoms: S_2  and  C_5
REMARK    3  A    between atoms: C_9  and  C_10
REMARK    4  A    between atoms: C_10  and  N_11
REMARK    5  A    between atoms: N_11  and  C_12
REMARK    6  A    between atoms: C_15  and  C_16
REMARK    7  A    between atoms: C_16  and  N_17
REMARK    8  A    between atoms: C_18  and  C_20
REMARK                            x       y       z     vdW  Elec       q    Type
REMARK                         _______ _______ _______ _____ _____    ______ ____
ROOT
ATOM      1  C   UNL     1      46.233   6.284  11.771  0.00  0.00    +0.000 A 
ATOM      2  C   UNL     1      46.306   5.577  12.978  0.00  0.00    +0.000 A 
ATOM      3  C   UNL     1      47.368   5.785  13.877  0.00  0.00    +0.000 A 
ATOM      4  C   UNL     1      48.398   6.691  13.573  0.00  0.00    +0.000 A 
ATOM      5  C   UNL     1      48.371   7.319  12.329  0.00  0.00    +0.000 A 
ATOM      6  C   UNL     1      47.309   7.108  11.447  0.00  0.00    +0.000 A 
ENDROOT
BRANCH   1   7
ATOM      7  N   UNL     1      45.181   6.070  10.863  0.00  0.00    +0.000 N 
ATOM      8  H   UNL     1      44.460   6.775  10.965  0.00  0.00    +0.000 HD
BRANCH   7   9
ATOM      9  C   UNL     1      45.543   5.840   9.459  0.00  0.00    +0.000 C 
BRANCH   9  14
ATOM     10  C   UNL     1      46.182   2.469   7.808  0.00  0.00    +0.000 A 
ATOM     11  C   UNL     1      45.346   1.616   8.525  0.00  0.00    +0.000 A 
ATOM     12  C   UNL     1      44.520   2.147   9.513  0.00  0.00    +0.000 A 
ATOM     13  C   UNL     1      44.556   3.515   9.796  0.00  0.00    +0.000 A 
ATOM     14  C   UNL     1      45.411   4.379   9.089  0.00  0.00    +0.000 A 
ATOM     15  C   UNL     1      46.208   3.845   8.066  0.00  0.00    +0.000 A 
BRANCH  10  17
ATOM     16  C   UNL     1      46.732   2.541   5.098  0.00  0.00    +0.000 C 
ATOM     17  S   UNL     1      47.288   1.782   6.601  0.00  0.00    +0.000 S 
ATOM     18  O   UNL     1      47.020   0.358   6.522  0.00  0.00    +0.000 OA
ATOM     19  O   UNL     1      48.618   2.276   6.895  0.00  0.00    +0.000 OA
ENDBRANCH  10  17
ENDBRANCH   9  14
ENDBRANCH   7   9
ENDBRANCH   1   7
BRANCH   4  20
ATOM     20  C   UNL     1      49.513   7.026  14.536  0.00  0.00    +0.000 C 
BRANCH  20  21
ATOM     21  N   UNL     1      49.132   6.869  15.915  0.00  0.00    +0.000 N 
ATOM     22  C   UNL     1      49.352   7.857  16.845  0.00  0.00    +0.000 C 
ATOM     23  O   UNL     1      49.872   8.926  16.571  0.00  0.00    +0.000 OA
ATOM     24  H   UNL     1      49.054   5.914  16.249  0.00  0.00    +0.000 HD
BRANCH  22  25
ATOM     25  C   UNL     1      48.845   7.556  18.193  0.00  0.00    +0.000 A 
ATOM     26  C   UNL     1      48.195   8.538  18.927  0.00  0.00    +0.000 A 
ATOM     27  S   UNL     1      47.645   7.994  20.450  0.00  0.00    +0.000 S 
ATOM     28  C   UNL     1      48.284   6.437  20.190  0.00  0.00    +0.000 A 
ATOM     29  N   UNL     1      48.183   5.469  21.139  0.00  0.00    +0.000 NA
ATOM     30  C   UNL     1      48.738   4.345  20.816  0.00  0.00    +0.000 A 
ATOM     31  N   UNL     1      49.375   4.102  19.621  0.00  0.00    +0.000 N 
ATOM     32  C   UNL     1      49.450   5.027  18.614  0.00  0.00    +0.000 A 
ATOM     33  O   UNL     1      49.939   4.747  17.529  0.00  0.00    +0.000 OA
ATOM     34  C   UNL     1      48.880   6.325  18.946  0.00  0.00    +0.000 A 
ATOM     35  H   UNL     1      49.760   3.192  19.422  0.00  0.00    +0.000 HD
ENDBRANCH  22  25
ENDBRANCH  20  21
ENDBRANCH   4  20
TORSDOF 7
ENDMDL
MODEL 4
REMARK VINA RESULT:    -6.561      3.766      5.587
REMARK INTER + INTRA:         -10.966
REMARK INTER:                  -9.645
REMARK INTRA:                  -1.321
REMARK UNBOUND:                -1.720
REMARK  Name = 
REMARK  8 active torsions:
REMARK  status: ('A' for Active; 'I' for Inactive)
REMARK    1  A    between atoms: C_1  and  S_2
REMARK    2  A    between atoms: S_2  and  C_5
REMARK    3  A    between atoms: C_9  and  C_10
REMARK    4  A    between atoms: C_10  and  N_11
REMARK    5  A    between atoms: N_11  and  C_12
REMARK    6  A    between atoms: C_15  and  C_16
REMARK    7  A    between atoms: C_16  and  N_17
REMARK    8  A    between atoms: C_18  and  C_20
REMARK                            x       y       z     vdW  Elec       q    Type
REMARK                         _______ _______ _______ _____ _____    ______ ____
ROOT
ATOM      1  C   UNL     1      51.395   3.757  17.783  0.00  0.00    +0.000 A 
ATOM      2  C   UNL     1      50.863   2.539  17.343  0.00  0.00    +0.000 A 
ATOM      3  C   UNL     1      49.491   2.407  17.059  0.00  0.00    +0.000 A 
ATOM      4  C   UNL     1      48.615   3.491  17.236  0.00  0.00    +0.000 A 
ATOM      5  C   UNL     1      49.132   4.671  17.766  0.00  0.00    +0.000 A 
ATOM      6  C   UNL     1      50.497   4.792  18.040  0.00  0.00    +0.000 A 
ENDROOT
BRANCH   1   7
ATOM      7  N   UNL     1      52.762   3.892  18.082  0.00  0.00    +0.000 N 
ATOM      8  H   UNL     1      53.328   3.305  17.480  0.00  0.00    +0.000 HD
BRANCH   7   9
ATOM      9  C   UNL     1      53.294   5.254  18.196  0.00  0.00    +0.000 C 
BRANCH   9  14
ATOM     10  C   UNL     1      53.498   7.354  15.025  0.00  0.00    +0.000 A 
ATOM     11  C   UNL     1      54.700   6.935  14.461  0.00  0.00    +0.000 A 
ATOM     12  C   UNL     1      55.425   5.919  15.080  0.00  0.00    +0.000 A 
ATOM     13  C   UNL     1      54.958   5.350  16.268  0.00  0.00    +0.000 A 
ATOM     14  C   UNL     1      53.754   5.780  16.854  0.00  0.00    +0.000 A 
ATOM     15  C   UNL     1      53.008   6.773  16.202  0.00  0.00    +0.000 A 
BRANCH  10  17
ATOM     16  C   UNL     1      53.552   9.002  12.804  0.00  0.00    +0.000 C 
ATOM     17  S   UNL     1      52.613   8.699  14.277  0.00  0.00    +0.000 S 
ATOM     18  O   UNL     1      52.747   9.850  15.151  0.00  0.00    +0.000 OA
ATOM     19  O   UNL     1      51.308   8.203  13.891  0.00  0.00    +0.000 OA
ENDBRANCH  10  17
ENDBRANCH   9  14
ENDBRANCH   7   9
ENDBRANCH   1   7
BRANCH   4  20
ATOM     20  C   UNL     1      47.152   3.439  16.861  0.00  0.00    +0.000 C 
BRANCH  20  21
ATOM     21  N   UNL     1      46.790   4.415  15.867  0.00  0.00    +0.000 N 
ATOM     22  C   UNL     1      46.911   4.160  14.521  0.00  0.00    +0.000 C 
ATOM     23  O   UNL     1      47.321   3.100  14.079  0.00  0.00    +0.000 OA
ATOM     24  H   UNL     1      46.808   5.384  16.168  0.00  0.00    +0.000 HD
BRANCH  22  25
ATOM     25  C   UNL     1      46.438   5.243  13.646  0.00  0.00    +0.000 A 
ATOM     26  C   UNL     1      47.235   6.358  13.426  0.00  0.00    +0.000 A 
ATOM     27  S   UNL     1      46.538   7.491  12.355  0.00  0.00    +0.000 S 
ATOM     28  C   UNL     1      45.135   6.542  12.173  0.00  0.00    +0.000 A 
ATOM     29  N   UNL     1      44.101   6.959  11.394  0.00  0.00    +0.000 NA
ATOM     30  C   UNL     1      43.090   6.151  11.371  0.00  0.00    +0.000 A 
ATOM     31  N   UNL     1      43.029   4.957  12.050  0.00  0.00    +0.000 N 
ATOM     32  C   UNL     1      44.067   4.469  12.799  0.00  0.00    +0.000 A 
ATOM     33  O   UNL     1      44.015   3.361  13.311  0.00  0.00    +0.000 OA
ATOM     34  C   UNL     1      45.211   5.363  12.894  0.00  0.00    +0.000 A 
ATOM     35  H   UNL     1      42.221   4.360  11.964  0.00  0.00    +0.000 HD
ENDBRANCH  22  25
ENDBRANCH  20  21
ENDBRANCH   4  20
TORSDOF 7
ENDMDL
MODEL 5
REMARK VINA RESULT:    -6.542      4.790      6.538
REMARK INTER + INTRA:         -10.940
REMARK INTER:                  -9.902
REMARK INTRA:                  -1.037
REMARK UNBOUND:                -1.720
REMARK  Name = 
REMARK  8 active torsions:
REMARK  status: ('A' for Active; 'I' for Inactive)
REMARK    1  A    between atoms: C_1  and  S_2
REMARK    2  A    between atoms: S_2  and  C_5
REMARK    3  A    between atoms: C_9  and  C_10
REMARK    4  A    between atoms: C_10  and  N_11
REMARK    5  A    between atoms: N_11  and  C_12
REMARK    6  A    between atoms: C_15  and  C_16
REMARK    7  A    between atoms: C_16  and  N_17
REMARK    8  A    between atoms: C_18  and  C_20
REMARK                            x       y       z     vdW  Elec       q    Type
REMARK                         _______ _______ _______ _____ _____    ______ ____
ROOT
ATOM      1  C   UNL     1      51.664   3.242  17.624  0.00  0.00    +0.000 A 
ATOM      2  C   UNL     1      50.922   2.108  17.271  0.00  0.00    +0.000 A 
ATOM      3  C   UNL     1      49.529   2.181  17.087  0.00  0.00    +0.000 A 
ATOM      4  C   UNL     1      48.843   3.393  17.280  0.00  0.00    +0.000 A 
ATOM      5  C   UNL     1      49.571   4.493  17.726  0.00  0.00    +0.000 A 
ATOM      6  C   UNL     1      50.955   4.410  17.900  0.00  0.00    +0.000 A 
ENDROOT
BRANCH   1   7
ATOM      7  N   UNL     1      53.054   3.172  17.823  0.00  0.00    +0.000 N 
ATOM      8  H   UNL     1      53.448   4.093  17.981  0.00  0.00    +0.000 HD
BRANCH   7   9
ATOM      9  C   UNL     1      53.546   2.181  18.786  0.00  0.00    +0.000 C 
BRANCH   9  14
ATOM     10  C   UNL     1      54.799  -1.341  18.058  0.00  0.00    +0.000 A 
ATOM     11  C   UNL     1      55.214  -1.248  16.731  0.00  0.00    +0.000 A 
ATOM     12  C   UNL     1      55.145  -0.017  16.083  0.00  0.00    +0.000 A 
ATOM     13  C   UNL     1      54.639   1.100  16.752  0.00  0.00    +0.000 A 
ATOM     14  C   UNL     1      54.201   1.010  18.086  0.00  0.00    +0.000 A 
ATOM     15  C   UNL     1      54.313  -0.222  18.746  0.00  0.00    +0.000 A 
BRANCH  10  17
ATOM     16  C   UNL     1      53.135  -3.103  19.392  0.00  0.00    +0.000 C 
ATOM     17  S   UNL     1      54.817  -2.925  18.860  0.00  0.00    +0.000 S 
ATOM     18  O   UNL     1      55.660  -2.809  20.036  0.00  0.00    +0.000 OA
ATOM     19  O   UNL     1      55.083  -3.926  17.847  0.00  0.00    +0.000 OA
ENDBRANCH  10  17
ENDBRANCH   9  14
ENDBRANCH   7   9
ENDBRANCH   1   7
BRANCH   4  20
ATOM     20  C   UNL     1      47.366   3.556  17.008  0.00  0.00    +0.000 C 
BRANCH  20  21
ATOM     21  N   UNL     1      47.086   4.520  15.978  0.00  0.00    +0.000 N 
ATOM     22  C   UNL     1      47.100   4.184  14.645  0.00  0.00    +0.000 C 
ATOM     23  O   UNL     1      47.342   3.057  14.246  0.00  0.00    +0.000 OA
ATOM     24  H   UNL     1      47.248   5.492  16.222  0.00  0.00    +0.000 HD
BRANCH  22  25
ATOM     25  C   UNL     1      46.731   5.276  13.731  0.00  0.00    +0.000 A 
ATOM     26  C   UNL     1      47.636   6.292  13.460  0.00  0.00    +0.000 A 
ATOM     27  S   UNL     1      47.046   7.449  12.351  0.00  0.00    +0.000 S 
ATOM     28  C   UNL     1      45.550   6.646  12.220  0.00  0.00    +0.000 A 
ATOM     29  N   UNL     1      44.555   7.138  11.435  0.00  0.00    +0.000 NA
ATOM     30  C   UNL     1      43.465   6.439  11.454  0.00  0.00    +0.000 A 
ATOM     31  N   UNL     1      43.289   5.285  12.181  0.00  0.00    +0.000 N 
ATOM     32  C   UNL     1      44.281   4.721  12.939  0.00  0.00    +0.000 A 
ATOM     33  O   UNL     1      44.121   3.645  13.496  0.00  0.00    +0.000 OA
ATOM     34  C   UNL     1      45.513   5.494  12.987  0.00  0.00    +0.000 A 
ATOM     35  H   UNL     1      42.422   4.773  12.126  0.00  0.00    +0.000 HD
ENDBRANCH  22  25
ENDBRANCH  20  21
ENDBRANCH   4  20
TORSDOF 7
ENDMDL
MODEL 6
REMARK VINA RESULT:    -6.435      2.201      3.006
REMARK INTER + INTRA:         -10.788
REMARK INTER:                  -8.851
REMARK INTRA:                  -1.937
REMARK UNBOUND:                -1.720
REMARK  Name = 
REMARK  8 active torsions:
REMARK  status: ('A' for Active; 'I' for Inactive)
REMARK    1  A    between atoms: C_1  and  S_2
REMARK    2  A    between atoms: S_2  and  C_5
REMARK    3  A    between atoms: C_9  and  C_10
REMARK    4  A    between atoms: C_10  and  N_11
REMARK    5  A    between atoms: N_11  and  C_12
REMARK    6  A    between atoms: C_15  and  C_16
REMARK    7  A    between atoms: C_16  and  N_17
REMARK    8  A    between atoms: C_18  and  C_20
REMARK                            x       y       z     vdW  Elec       q    Type
REMARK                         _______ _______ _______ _____ _____    ______ ____
ROOT
ATOM      1  C   UNL     1      51.645   7.163  16.452  0.00  0.00    +0.000 A 
ATOM      2  C   UNL     1      50.679   7.718  17.301  0.00  0.00    +0.000 A 
ATOM      3  C   UNL     1      49.597   8.455  16.785  0.00  0.00    +0.000 A 
ATOM      4  C   UNL     1      49.474   8.674  15.402  0.00  0.00    +0.000 A 
ATOM      5  C   UNL     1      50.488   8.203  14.572  0.00  0.00    +0.000 A 
ATOM      6  C   UNL     1      51.555   7.468  15.095  0.00  0.00    +0.000 A 
ENDROOT
BRANCH   1   7
ATOM      7  N   UNL     1      52.736   6.438  16.962  0.00  0.00    +0.000 N 
ATOM      8  H   UNL     1      53.580   7.000  16.967  0.00  0.00    +0.000 HD
BRANCH   7   9
ATOM      9  C   UNL     1      52.534   5.722  18.227  0.00  0.00    +0.000 C 
BRANCH   9  14
ATOM     10  C   UNL     1      49.916   3.083  17.400  0.00  0.00    +0.000 A 
ATOM     11  C   UNL     1      50.668   1.911  17.359  0.00  0.00    +0.000 A 
ATOM     12  C   UNL     1      52.026   1.965  17.663  0.00  0.00    +0.000 A 
ATOM     13  C   UNL     1      52.626   3.187  17.976  0.00  0.00    +0.000 A 
ATOM     14  C   UNL     1      51.878   4.378  18.002  0.00  0.00    +0.000 A 
ATOM     15  C   UNL     1      50.502   4.310  17.737  0.00  0.00    +0.000 A 
BRANCH  10  17
ATOM     16  C   UNL     1      47.726   4.733  17.030  0.00  0.00    +0.000 C 
ATOM     17  S   UNL     1      48.202   3.027  16.941  0.00  0.00    +0.000 S 
ATOM     18  O   UNL     1      47.495   2.299  17.978  0.00  0.00    +0.000 OA
ATOM     19  O   UNL     1      48.133   2.608  15.555  0.00  0.00    +0.000 OA
ENDBRANCH  10  17
ENDBRANCH   9  14
ENDBRANCH   7   9
ENDBRANCH   1   7
BRANCH   4  20
ATOM     20  C   UNL     1      48.288   9.376  14.782  0.00  0.00    +0.000 C 
BRANCH  20  21
ATOM     21  N   UNL     1      47.321   8.465  14.228  0.00  0.00    +0.000 N 
ATOM     22  C   UNL     1      47.028   8.445  12.885  0.00  0.00    +0.000 C 
ATOM     23  O   UNL     1      47.565   9.182  12.076  0.00  0.00    +0.000 OA
ATOM     24  H   UNL     1      46.615   8.121  14.871  0.00  0.00    +0.000 HD
BRANCH  22  25
ATOM     25  C   UNL     1      46.063   7.411  12.482  0.00  0.00    +0.000 A 
ATOM     26  C   UNL     1      44.913   7.764  11.790  0.00  0.00    +0.000 A 
ATOM     27  S   UNL     1      43.933   6.429  11.375  0.00  0.00    +0.000 S 
ATOM     28  C   UNL     1      44.998   5.337  12.134  0.00  0.00    +0.000 A 
ATOM     29  N   UNL     1      44.730   4.005  12.171  0.00  0.00    +0.000 NA
ATOM     30  C   UNL     1      45.612   3.300  12.803  0.00  0.00    +0.000 A 
ATOM     31  N   UNL     1      46.745   3.811  13.391  0.00  0.00    +0.000 N 
ATOM     32  C   UNL     1      47.086   5.136  13.330  0.00  0.00    +0.000 A 
ATOM     33  O   UNL     1      48.148   5.541  13.781  0.00  0.00    +0.000 OA
ATOM     34  C   UNL     1      46.102   5.979  12.667  0.00  0.00    +0.000 A 
ATOM     35  H   UNL     1      47.407   3.199  13.843  0.00  0.00    +0.000 HD
ENDBRANCH  22  25
ENDBRANCH  20  21
ENDBRANCH   4  20
TORSDOF 7
ENDMDL
MODEL 7
REMARK VINA RESULT:    -6.345      4.464      6.339
REMARK INTER + INTRA:         -10.662
REMARK INTER:                  -9.539
REMARK INTRA:                  -1.123
REMARK UNBOUND:                -1.720
REMARK  Name = 
REMARK  8 active torsions:
REMARK  status: ('A' for Active; 'I' for Inactive)
REMARK    1  A    between atoms: C_1  and  S_2
REMARK    2  A    between atoms: S_2  and  C_5
REMARK    3  A    between atoms: C_9  and  C_10
REMARK    4  A    between atoms: C_10  and  N_11
REMARK    5  A    between atoms: N_11  and  C_12
REMARK    6  A    between atoms: C_15  and  C_16
REMARK    7  A    between atoms: C_16  and  N_17
REMARK    8  A    between atoms: C_18  and  C_20
REMARK                            x       y       z     vdW  Elec       q    Type
REMARK                         _______ _______ _______ _____ _____    ______ ____
ROOT
ATOM      1  C   UNL     1      50.515   8.697  11.772  0.00  0.00    +0.000 A 
ATOM      2  C   UNL     1      49.688   9.815  11.928  0.00  0.00    +0.000 A 
ATOM      3  C   UNL     1      48.317   9.669  12.210  0.00  0.00    +0.000 A 
ATOM      4  C   UNL     1      47.739   8.392  12.316  0.00  0.00    +0.000 A 
ATOM      5  C   UNL     1      48.546   7.286  12.064  0.00  0.00    +0.000 A 
ATOM      6  C   UNL     1      49.907   7.443  11.790  0.00  0.00    +0.000 A 
ENDROOT
BRANCH   1   7
ATOM      7  N   UNL     1      51.883   8.836  11.477  0.00  0.00    +0.000 N 
ATOM      8  H   UNL     1      52.450   8.252  12.082  0.00  0.00    +0.000 HD
BRANCH   7   9
ATOM      9  C   UNL     1      52.280   8.732  10.068  0.00  0.00    +0.000 C 
BRANCH   9  14
ATOM     10  C   UNL     1      53.842   5.752   8.285  0.00  0.00    +0.000 A 
ATOM     11  C   UNL     1      54.741   5.268   9.232  0.00  0.00    +0.000 A 
ATOM     12  C   UNL     1      54.801   5.876  10.485  0.00  0.00    +0.000 A 
ATOM     13  C   UNL     1      53.984   6.973  10.771  0.00  0.00    +0.000 A 
ATOM     14  C   UNL     1      53.086   7.478   9.813  0.00  0.00    +0.000 A 
ATOM     15  C   UNL     1      53.001   6.836   8.570  0.00  0.00    +0.000 A 
BRANCH  10  17
ATOM     16  C   UNL     1      55.292   4.039   6.667  0.00  0.00    +0.000 C 
ATOM     17  S   UNL     1      53.819   5.026   6.665  0.00  0.00    +0.000 S 
ATOM     18  O   UNL     1      53.987   6.100   5.703  0.00  0.00    +0.000 OA
ATOM     19  O   UNL     1      52.676   4.138   6.600  0.00  0.00    +0.000 OA
ENDBRANCH  10  17
ENDBRANCH   9  14
ENDBRANCH   7   9
ENDBRANCH   1   7
BRANCH   4  20
ATOM     20  C   UNL     1      46.296   8.171  12.708  0.00  0.00    +0.000 C 
BRANCH  20  21
ATOM     21  N   UNL     1      45.831   6.841  12.412  0.00  0.00    +0.000 N 
ATOM     22  C   UNL     1      44.729   6.617  11.621  0.00  0.00    +0.000 C 
ATOM     23  O   UNL     1      44.080   7.516  11.113  0.00  0.00    +0.000 OA
ATOM     24  H   UNL     1      46.088   6.121  13.080  0.00  0.00    +0.000 HD
BRANCH  22  25
ATOM     25  C   UNL     1      44.431   5.198  11.371  0.00  0.00    +0.000 A 
ATOM     26  C   UNL     1      43.658   4.481  12.274  0.00  0.00    +0.000 A 
ATOM     27  S   UNL     1      43.386   2.863  11.799  0.00  0.00    +0.000 S 
ATOM     28  C   UNL     1      44.317   3.060  10.387  0.00  0.00    +0.000 A 
ATOM     29  N   UNL     1      44.518   2.025   9.528  0.00  0.00    +0.000 NA
ATOM     30  C   UNL     1      45.267   2.312   8.512  0.00  0.00    +0.000 A 
ATOM     31  N   UNL     1      45.824   3.548   8.275  0.00  0.00    +0.000 N 
ATOM     32  C   UNL     1      45.602   4.633   9.081  0.00  0.00    +0.000 A 
ATOM     33  O   UNL     1      46.034   5.739   8.790  0.00  0.00    +0.000 OA
ATOM     34  C   UNL     1      44.801   4.351  10.263  0.00  0.00    +0.000 A 
ATOM     35  H   UNL     1      46.374   3.710   7.447  0.00  0.00    +0.000 HD
ENDBRANCH  22  25
ENDBRANCH  20  21
ENDBRANCH   4  20
TORSDOF 7
ENDMDL
MODEL 8
REMARK VINA RESULT:    -5.809      4.574      6.768
REMARK INTER + INTRA:          -9.907
REMARK INTER:                  -8.803
REMARK INTRA:                  -1.104
REMARK UNBOUND:                -1.720
REMARK  Name = 
REMARK  8 active torsions:
REMARK  status: ('A' for Active; 'I' for Inactive)
REMARK    1  A    between atoms: C_1  and  S_2
REMARK    2  A    between atoms: S_2  and  C_5
REMARK    3  A    between atoms: C_9  and  C_10
REMARK    4  A    between atoms: C_10  and  N_11
REMARK    5  A    between atoms: N_11  and  C_12
REMARK    6  A    between atoms: C_15  and  C_16
REMARK    7  A    between atoms: C_16  and  N_17
REMARK    8  A    between atoms: C_18  and  C_20
REMARK                            x       y       z     vdW  Elec       q    Type
REMARK                         _______ _______ _______ _____ _____    ______ ____
ROOT
ATOM      1  C   UNL     1      50.175   8.816  12.301  0.00  0.00    +0.000 A 
ATOM      2  C   UNL     1      49.282   9.894  12.277  0.00  0.00    +0.000 A 
ATOM      3  C   UNL     1      47.891   9.685  12.337  0.00  0.00    +0.000 A 
ATOM      4  C   UNL     1      47.364   8.384  12.396  0.00  0.00    +0.000 A 
ATOM      5  C   UNL     1      48.252   7.313  12.321  0.00  0.00    +0.000 A 
ATOM      6  C   UNL     1      49.631   7.533  12.267  0.00  0.00    +0.000 A 
ENDROOT
BRANCH   1   7
ATOM      7  N   UNL     1      51.565   9.017  12.227  0.00  0.00    +0.000 N 
ATOM      8  H   UNL     1      52.070   8.165  12.443  0.00  0.00    +0.000 HD
BRANCH   7   9
ATOM      9  C   UNL     1      52.084   9.686  11.029  0.00  0.00    +0.000 C 
BRANCH   9  14
ATOM     10  C   UNL     1      53.258   8.219   7.717  0.00  0.00    +0.000 A 
ATOM     11  C   UNL     1      53.459   6.877   8.033  0.00  0.00    +0.000 A 
ATOM     12  C   UNL     1      53.154   6.429   9.315  0.00  0.00    +0.000 A 
ATOM     13  C   UNL     1      52.678   7.324  10.277  0.00  0.00    +0.000 A 
ATOM     14  C   UNL     1      52.489   8.684   9.970  0.00  0.00    +0.000 A 
ATOM     15  C   UNL     1      52.757   9.120   8.665  0.00  0.00    +0.000 A 
BRANCH  10  17
ATOM     16  C   UNL     1      52.201   9.506   5.508  0.00  0.00    +0.000 C 
ATOM     17  S   UNL     1      53.716   8.806   6.105  0.00  0.00    +0.000 S 
ATOM     18  O   UNL     1      54.037   7.647   5.293  0.00  0.00    +0.000 OA
ATOM     19  O   UNL     1      54.673   9.879   6.286  0.00  0.00    +0.000 OA
ENDBRANCH  10  17
ENDBRANCH   9  14
ENDBRANCH   7   9
ENDBRANCH   1   7
BRANCH   4  20
ATOM     20  C   UNL     1      45.888   8.099  12.555  0.00  0.00    +0.000 C 
BRANCH  20  21
ATOM     21  N   UNL     1      45.540   6.739  12.239  0.00  0.00    +0.000 N 
ATOM     22  C   UNL     1      44.395   6.424  11.547  0.00  0.00    +0.000 C 
ATOM     23  O   UNL     1      43.605   7.265  11.151  0.00  0.00    +0.000 OA
ATOM     24  H   UNL     1      45.940   6.026  12.841  0.00  0.00    +0.000 HD
BRANCH  22  25
ATOM     25  C   UNL     1      44.225   4.993  11.256  0.00  0.00    +0.000 A 
ATOM     26  C   UNL     1      43.453   4.199  12.093  0.00  0.00    +0.000 A 
ATOM     27  S   UNL     1      43.342   2.575  11.575  0.00  0.00    +0.000 S 
ATOM     28  C   UNL     1      44.346   2.873  10.233  0.00  0.00    +0.000 A 
ATOM     29  N   UNL     1      44.685   1.875   9.373  0.00  0.00    +0.000 NA
ATOM     30  C   UNL     1      45.476   2.240   8.416  0.00  0.00    +0.000 A 
ATOM     31  N   UNL     1      45.948   3.519   8.237  0.00  0.00    +0.000 N 
ATOM     32  C   UNL     1      45.589   4.568   9.042  0.00  0.00    +0.000 A 
ATOM     33  O   UNL     1      45.950   5.709   8.798  0.00  0.00    +0.000 OA
ATOM     34  C   UNL     1      44.735   4.200  10.163  0.00  0.00    +0.000 A 
ATOM     35  H   UNL     1      46.538   3.741   7.451  0.00  0.00    +0.000 HD
ENDBRANCH  22  25
ENDBRANCH  20  21
ENDBRANCH   4  20
TORSDOF 7
ENDMDL
MODEL 9
REMARK VINA RESULT:    -5.721      2.103      2.552
REMARK INTER + INTRA:          -9.782
REMARK INTER:                  -7.905
REMARK INTRA:                  -1.877
REMARK UNBOUND:                -1.720
REMARK  Name = 
REMARK  8 active torsions:
REMARK  status: ('A' for Active; 'I' for Inactive)
REMARK    1  A    between atoms: C_1  and  S_2
REMARK    2  A    between atoms: S_2  and  C_5
REMARK    3  A    between atoms: C_9  and  C_10
REMARK    4  A    between atoms: C_10  and  N_11
REMARK    5  A    between atoms: N_11  and  C_12
REMARK    6  A    between atoms: C_15  and  C_16
REMARK    7  A    between atoms: C_16  and  N_17
REMARK    8  A    between atoms: C_18  and  C_20
REMARK                            x       y       z     vdW  Elec       q    Type
REMARK                         _______ _______ _______ _____ _____    ______ ____
ROOT
ATOM      1  C   UNL     1      50.805   9.137  16.928  0.00  0.00    +0.000 A 
ATOM      2  C   UNL     1      49.511   9.643  17.097  0.00  0.00    +0.000 A 
ATOM      3  C   UNL     1      48.654   9.827  15.996  0.00  0.00    +0.000 A 
ATOM      4  C   UNL     1      49.089   9.532  14.693  0.00  0.00    +0.000 A 
ATOM      5  C   UNL     1      50.409   9.122  14.520  0.00  0.00    +0.000 A 
ATOM      6  C   UNL     1      51.248   8.937  15.621  0.00  0.00    +0.000 A 
ENDROOT
BRANCH   1   7
ATOM      7  N   UNL     1      51.671   8.963  18.022  0.00  0.00    +0.000 N 
ATOM      8  H   UNL     1      51.984   9.856  18.386  0.00  0.00    +0.000 HD
BRANCH   7   9
ATOM      9  C   UNL     1      51.237   8.048  19.083  0.00  0.00    +0.000 C 
BRANCH   9  14
ATOM     10  C   UNL     1      50.018   4.631  17.926  0.00  0.00    +0.000 A 
ATOM     11  C   UNL     1      51.196   4.010  17.517  0.00  0.00    +0.000 A 
ATOM     12  C   UNL     1      52.407   4.681  17.673  0.00  0.00    +0.000 A 
ATOM     13  C   UNL     1      52.429   5.972  18.209  0.00  0.00    +0.000 A 
ATOM     14  C   UNL     1      51.241   6.612  18.608  0.00  0.00    +0.000 A 
ATOM     15  C   UNL     1      50.031   5.914  18.487  0.00  0.00    +0.000 A 
BRANCH  10  17
ATOM     16  C   UNL     1      47.292   5.100  17.948  0.00  0.00    +0.000 C 
ATOM     17  S   UNL     1      48.469   3.806  17.658  0.00  0.00    +0.000 S 
ATOM     18  O   UNL     1      48.319   2.808  18.701  0.00  0.00    +0.000 OA
ATOM     19  O   UNL     1      48.405   3.438  16.258  0.00  0.00    +0.000 OA
ENDBRANCH  10  17
ENDBRANCH   9  14
ENDBRANCH   7   9
ENDBRANCH   1   7
BRANCH   4  20
ATOM     20  C   UNL     1      48.187   9.621  13.483  0.00  0.00    +0.000 C 
BRANCH  20  21
ATOM     21  N   UNL     1      47.291   8.501  13.365  0.00  0.00    +0.000 N 
ATOM     22  C   UNL     1      47.577   7.424  12.561  0.00  0.00    +0.000 C 
ATOM     23  O   UNL     1      48.600   7.338  11.903  0.00  0.00    +0.000 OA
ATOM     24  H   UNL     1      46.316   8.688  13.577  0.00  0.00    +0.000 HD
BRANCH  22  25
ATOM     25  C   UNL     1      46.582   6.342  12.606  0.00  0.00    +0.000 A 
ATOM     26  C   UNL     1      46.919   5.109  13.147  0.00  0.00    +0.000 A 
ATOM     27  S   UNL     1      45.627   3.992  13.148  0.00  0.00    +0.000 S 
ATOM     28  C   UNL     1      44.584   5.109  12.397  0.00  0.00    +0.000 A 
ATOM     29  N   UNL     1      43.306   4.772  12.079  0.00  0.00    +0.000 NA
ATOM     30  C   UNL     1      42.638   5.710  11.487  0.00  0.00    +0.000 A 
ATOM     31  N   UNL     1      43.135   6.960  11.198  0.00  0.00    +0.000 N 
ATOM     32  C   UNL     1      44.395   7.363  11.550  0.00  0.00    +0.000 A 
ATOM     33  O   UNL     1      44.771   8.510  11.363  0.00  0.00    +0.000 OA
ATOM     34  C   UNL     1      45.203   6.327  12.178  0.00  0.00    +0.000 A 
ATOM     35  H   UNL     1      42.548   7.654  10.761  0.00  0.00    +0.000 HD
ENDBRANCH  22  25
ENDBRANCH  20  21
ENDBRANCH   4  20
TORSDOF 7
ENDMDL
