MODEL 1
REMARK VINA RESULT:    -8.074      0.000      0.000
REMARK INTER + INTRA:         -15.091
REMARK INTER:                 -13.031
REMARK INTRA:                  -2.060
REMARK UNBOUND:                -2.060
REMARK  Name = 
REMARK  11 active torsions:
REMARK  status: ('A' for Active; 'I' for Inactive)
REMARK    1  A    between atoms: C_2  and  C_21
REMARK    2  A    between atoms: N_3  and  C_4
REMARK    3  A    between atoms: C_4  and  C_5
REMARK    4  A    between atoms: C_8  and  C_9
REMARK    5  A    between atoms: C_9  and  C_10
REMARK    6  A    between atoms: C_10  and  O_11
REMARK    7  A    between atoms: C_10  and  C_12
REMARK    8  A    between atoms: C_12  and  C_13
REMARK    9  A    between atoms: C_28  and  O_29
REMARK   10  A    between atoms: O_29  and  C_30
REMARK   11  A    between atoms: C_30  and  C_31
REMARK                            x       y       z     vdW  Elec       q    Type
REMARK                         _______ _______ _______ _____ _____    ______ ____
ROOT
ATOM      1  O   UNL     1      50.131   6.895  15.133  0.00  0.00    +0.000 OA
ATOM      2  C   UNL     1      49.148   7.391  15.672  0.00  0.00    +0.000 C 
ATOM      3  N   UNL     1      48.126   7.950  14.965  0.00  0.00    +0.000 N 
ATOM      4  H   UNL     1      47.232   8.055  15.428  0.00  0.00    +0.000 HD
ENDROOT
BRANCH   2   5
ATOM      5  C   UNL     1      48.955   7.347  17.120  0.00  0.00    +0.000 A 
ATOM      6  C   UNL     1      48.339   8.390  17.803  0.00  0.00    +0.000 A 
ATOM      7  N   UNL     1      48.565   8.227  19.137  0.00  0.00    +0.000 N 
ATOM      8  C   UNL     1      49.267   7.074  19.337  0.00  0.00    +0.000 A 
ATOM      9  N   UNL     1      49.768   6.700  20.520  0.00  0.00    +0.000 NA
ATOM     10  C   UNL     1      50.415   5.531  20.436  0.00  0.00    +0.000 A 
ATOM     11  N   UNL     1      50.480   4.702  19.378  0.00  0.00    +0.000 NA
ATOM     12  C   UNL     1      49.912   5.100  18.217  0.00  0.00    +0.000 A 
ATOM     13  C   UNL     1      49.368   6.397  18.125  0.00  0.00    +0.000 A 
ATOM     14  H   UNL     1      48.326   8.879  19.872  0.00  0.00    +0.000 HD
BRANCH  12  15
ATOM     15  O   UNL     1      50.069   4.214  17.169  0.00  0.00    +0.000 OA
BRANCH  15  16
ATOM     16  C   UNL     1      49.265   3.023  17.272  0.00  0.00    +0.000 C 
BRANCH  16  17
ATOM     17  C   UNL     1      47.847   3.105  16.719  0.00  0.00    +0.000 C 
ATOM     18  F   UNL     1      47.368   4.359  16.627  0.00  0.00    +0.000 F 
ATOM     19  F   UNL     1      47.801   2.555  15.480  0.00  0.00    +0.000 F 
ATOM     20  F   UNL     1      46.993   2.390  17.491  0.00  0.00    +0.000 F 
ENDBRANCH  16  17
ENDBRANCH  15  16
ENDBRANCH  12  15
ENDBRANCH   2   5
BRANCH   3  21
ATOM     21  C   UNL     1      48.012   7.849  13.528  0.00  0.00    +0.000 C 
BRANCH  21  22
ATOM     22  C   UNL     1      46.957   6.816  13.220  0.00  0.00    +0.000 A 
ATOM     23  C   UNL     1      47.227   5.471  13.433  0.00  0.00    +0.000 A 
ATOM     24  C   UNL     1      46.196   4.550  13.281  0.00  0.00    +0.000 A 
ATOM     25  C   UNL     1      44.914   4.991  12.937  0.00  0.00    +0.000 A 
ATOM     26  C   UNL     1      44.735   6.361  12.778  0.00  0.00    +0.000 A 
ATOM     27  N   UNL     1      45.715   7.281  12.930  0.00  0.00    +0.000 NA
BRANCH  25  28
ATOM     28  C   UNL     1      43.785   4.004  12.764  0.00  0.00    +0.000 C 
BRANCH  28  29
ATOM     29  C   UNL     1      43.967   3.060  11.561  0.00  0.00    +0.000 C 
BRANCH  29  30
ATOM     30  O   UNL     1      43.036   1.973  11.629  0.00  0.00    +0.000 OA
ATOM     31  H   UNL     1      42.929   1.621  10.720  0.00  0.00    +0.000 HD
ENDBRANCH  29  30
BRANCH  29  32
ATOM     32  C   UNL     1      43.867   3.780  10.207  0.00  0.00    +0.000 C 
BRANCH  32  33
ATOM     33  C   UNL     1      44.889   3.319   9.196  0.00  0.00    +0.000 A 
ATOM     34  N   UNL     1      45.185   2.015   9.149  0.00  0.00    +0.000 NA
ATOM     35  C   UNL     1      46.074   1.637   8.192  0.00  0.00    +0.000 A 
ATOM     36  C   UNL     1      46.661   2.510   7.312  0.00  0.00    +0.000 A 
ATOM     37  C   UNL     1      46.299   3.828   7.463  0.00  0.00    +0.000 A 
ATOM     38  N   UNL     1      45.432   4.259   8.391  0.00  0.00    +0.000 NA
ENDBRANCH  32  33
ENDBRANCH  29  32
ENDBRANCH  28  29
ENDBRANCH  25  28
ENDBRANCH  21  22
ENDBRANCH   3  21
TORSDOF 11
ENDMDL
MODEL 2
REMARK VINA RESULT:    -7.769      1.548      2.171
REMARK INTER + INTRA:         -14.598
REMARK INTER:                 -12.627
REMARK INTRA:                  -1.971
REMARK UNBOUND:                -2.060
REMARK  Name = 
REMARK  11 active torsions:
REMARK  status: ('A' for Active; 'I' for Inactive)
REMARK    1  A    between atoms: C_2  and  C_21
REMARK    2  A    between atoms: N_3  and  C_4
REMARK    3  A    between atoms: C_4  and  C_5
REMARK    4  A    between atoms: C_8  and  C_9
REMARK    5  A    between atoms: C_9  and  C_10
REMARK    6  A    between atoms: C_10  and  O_11
REMARK    7  A    between atoms: C_10  and  C_12
REMARK    8  A    between atoms: C_12  and  C_13
REMARK    9  A    between atoms: C_28  and  O_29
REMARK   10  A    between atoms: O_29  and  C_30
REMARK   11  A    between atoms: C_30  and  C_31
REMARK                            x       y       z     vdW  Elec       q    Type
REMARK                         _______ _______ _______ _____ _____    ______ ____
ROOT
ATOM      1  O   UNL     1      48.853   8.385  16.317  0.00  0.00    +0.000 OA
ATOM      2  C   UNL     1      49.524   7.562  15.704  0.00  0.00    +0.000 C 
ATOM      3  N   UNL     1      49.233   7.182  14.427  0.00  0.00    +0.000 N 
ATOM      4  H   UNL     1      49.971   6.756  13.881  0.00  0.00    +0.000 HD
ENDROOT
BRANCH   2   5
ATOM      5  C   UNL     1      50.741   6.981  16.266  0.00  0.00    +0.000 A 
ATOM      6  C   UNL     1      52.000   7.472  15.938  0.00  0.00    +0.000 A 
ATOM      7  N   UNL     1      52.936   6.573  16.352  0.00  0.00    +0.000 N 
ATOM      8  C   UNL     1      52.316   5.537  16.987  0.00  0.00    +0.000 A 
ATOM      9  N   UNL     1      52.942   4.424  17.386  0.00  0.00    +0.000 NA
ATOM     10  C   UNL     1      52.099   3.568  17.978  0.00  0.00    +0.000 A 
ATOM     11  N   UNL     1      50.809   3.776  18.301  0.00  0.00    +0.000 NA
ATOM     12  C   UNL     1      50.234   4.940  17.924  0.00  0.00    +0.000 A 
ATOM     13  C   UNL     1      50.965   5.841  17.123  0.00  0.00    +0.000 A 
ATOM     14  H   UNL     1      53.929   6.609  16.163  0.00  0.00    +0.000 HD
BRANCH  12  15
ATOM     15  O   UNL     1      48.897   5.051  18.250  0.00  0.00    +0.000 OA
BRANCH  15  16
ATOM     16  C   UNL     1      48.244   3.796  18.519  0.00  0.00    +0.000 C 
BRANCH  16  17
ATOM     17  C   UNL     1      47.419   3.198  17.386  0.00  0.00    +0.000 C 
ATOM     18  F   UNL     1      46.617   2.187  17.769  0.00  0.00    +0.000 F 
ATOM     19  F   UNL     1      46.636   4.155  16.828  0.00  0.00    +0.000 F 
ATOM     20  F   UNL     1      48.226   2.736  16.400  0.00  0.00    +0.000 F 
ENDBRANCH  16  17
ENDBRANCH  15  16
ENDBRANCH  12  15
ENDBRANCH   2   5
BRANCH   3  21
ATOM     21  C   UNL     1      48.233   7.838  13.616  0.00  0.00    +0.000 C 
BRANCH  21  22
ATOM     22  C   UNL     1      47.150   6.831  13.317  0.00  0.00    +0.000 A 
ATOM     23  C   UNL     1      47.342   5.495  13.640  0.00  0.00    +0.000 A 
ATOM     24  C   UNL     1      46.280   4.610  13.490  0.00  0.00    +0.000 A 
ATOM     25  C   UNL     1      45.043   5.080  13.036  0.00  0.00    +0.000 A 
ATOM     26  C   UNL     1      44.939   6.441  12.769  0.00  0.00    +0.000 A 
ATOM     27  N   UNL     1      45.951   7.326  12.917  0.00  0.00    +0.000 NA
BRANCH  25  28
ATOM     28  C   UNL     1      43.880   4.133  12.862  0.00  0.00    +0.000 C 
BRANCH  28  29
ATOM     29  C   UNL     1      44.003   3.222  11.627  0.00  0.00    +0.000 C 
BRANCH  29  30
ATOM     30  O   UNL     1      43.003   2.197  11.655  0.00  0.00    +0.000 OA
ATOM     31  H   UNL     1      42.147   2.627  11.864  0.00  0.00    +0.000 HD
ENDBRANCH  29  30
BRANCH  29  32
ATOM     32  C   UNL     1      43.956   3.994  10.300  0.00  0.00    +0.000 C 
BRANCH  32  33
ATOM     33  C   UNL     1      44.859   3.425   9.232  0.00  0.00    +0.000 A 
ATOM     34  N   UNL     1      45.325   4.255   8.292  0.00  0.00    +0.000 NA
ATOM     35  C   UNL     1      46.172   3.710   7.378  0.00  0.00    +0.000 A 
ATOM     36  C   UNL     1      46.546   2.391   7.381  0.00  0.00    +0.000 A 
ATOM     37  C   UNL     1      45.993   1.625   8.380  0.00  0.00    +0.000 A 
ATOM     38  N   UNL     1      45.148   2.106   9.304  0.00  0.00    +0.000 NA
ENDBRANCH  32  33
ENDBRANCH  29  32
ENDBRANCH  28  29
ENDBRANCH  25  28
ENDBRANCH  21  22
ENDBRANCH   3  21
TORSDOF 11
ENDMDL
MODEL 3
REMARK VINA RESULT:    -7.577      2.623      4.053
REMARK INTER + INTRA:         -14.289
REMARK INTER:                 -12.255
REMARK INTRA:                  -2.034
REMARK UNBOUND:                -2.060
REMARK  Name = 
REMARK  11 active torsions:
REMARK  status: ('A' for Active; 'I' for Inactive)
REMARK    1  A    between atoms: C_2  and  C_21
REMARK    2  A    between atoms: N_3  and  C_4
REMARK    3  A    between atoms: C_4  and  C_5
REMARK    4  A    between atoms: C_8  and  C_9
REMARK    5  A    between atoms: C_9  and  C_10
REMARK    6  A    between atoms: C_10  and  O_11
REMARK    7  A    between atoms: C_10  and  C_12
REMARK    8  A    between atoms: C_12  and  C_13
REMARK    9  A    between atoms: C_28  and  O_29
REMARK   10  A    between atoms: O_29  and  C_30
REMARK   11  A    between atoms: C_30  and  C_31
REMARK                            x       y       z     vdW  Elec       q    Type
REMARK                         _______ _______ _______ _____ _____    ______ ____
ROOT
ATOM      1  O   UNL     1      49.596   5.052  16.376  0.00  0.00    +0.000 OA
ATOM      2  C   UNL     1      48.732   5.893  16.158  0.00  0.00    +0.000 C 
ATOM      3  N   UNL     1      47.630   5.634  15.398  0.00  0.00    +0.000 N 
ATOM      4  H   UNL     1      46.826   6.240  15.508  0.00  0.00    +0.000 HD
ENDROOT
BRANCH   2   5
ATOM      5  C   UNL     1      48.774   7.222  16.764  0.00  0.00    +0.000 A 
ATOM      6  C   UNL     1      48.243   7.462  18.027  0.00  0.00    +0.000 A 
ATOM      7  N   UNL     1      48.145   8.809  18.206  0.00  0.00    +0.000 N 
ATOM      8  C   UNL     1      48.649   9.447  17.110  0.00  0.00    +0.000 A 
ATOM      9  N   UNL     1      48.570  10.768  16.913  0.00  0.00    +0.000 NA
ATOM     10  C   UNL     1      49.141  11.130  15.757  0.00  0.00    +0.000 A 
ATOM     11  N   UNL     1      49.849  10.358  14.912  0.00  0.00    +0.000 NA
ATOM     12  C   UNL     1      49.946   9.036  15.183  0.00  0.00    +0.000 A 
ATOM     13  C   UNL     1      49.225   8.500  16.268  0.00  0.00    +0.000 A 
ATOM     14  H   UNL     1      47.704   9.282  18.984  0.00  0.00    +0.000 HD
BRANCH  12  15
ATOM     15  O   UNL     1      50.646   8.309  14.240  0.00  0.00    +0.000 OA
BRANCH  15  16
ATOM     16  C   UNL     1      50.242   8.554  12.880  0.00  0.00    +0.000 C 
BRANCH  16  17
ATOM     17  C   UNL     1      49.083   7.717  12.350  0.00  0.00    +0.000 C 
ATOM     18  F   UNL     1      49.034   7.639  11.008  0.00  0.00    +0.000 F 
ATOM     19  F   UNL     1      49.165   6.453  12.833  0.00  0.00    +0.000 F 
ATOM     20  F   UNL     1      47.899   8.219  12.779  0.00  0.00    +0.000 F 
ENDBRANCH  16  17
ENDBRANCH  15  16
ENDBRANCH  12  15
ENDBRANCH   2   5
BRANCH   3  21
ATOM     21  C   UNL     1      47.282   4.309  14.937  0.00  0.00    +0.000 C 
BRANCH  21  22
ATOM     22  C   UNL     1      46.256   4.457  13.841  0.00  0.00    +0.000 A 
ATOM     23  C   UNL     1      45.956   5.718  13.344  0.00  0.00    +0.000 A 
ATOM     24  C   UNL     1      45.118   5.820  12.239  0.00  0.00    +0.000 A 
ATOM     25  C   UNL     1      44.609   4.661  11.643  0.00  0.00    +0.000 A 
ATOM     26  C   UNL     1      44.994   3.442  12.193  0.00  0.00    +0.000 A 
ATOM     27  N   UNL     1      45.816   3.313  13.259  0.00  0.00    +0.000 NA
BRANCH  25  28
ATOM     28  C   UNL     1      43.695   4.753  10.446  0.00  0.00    +0.000 C 
BRANCH  28  29
ATOM     29  C   UNL     1      44.392   4.440   9.108  0.00  0.00    +0.000 C 
BRANCH  29  30
ATOM     30  O   UNL     1      45.608   5.188   8.988  0.00  0.00    +0.000 OA
ATOM     31  H   UNL     1      45.363   6.129   8.863  0.00  0.00    +0.000 HD
ENDBRANCH  29  30
BRANCH  29  32
ATOM     32  C   UNL     1      44.650   2.941   8.898  0.00  0.00    +0.000 C 
BRANCH  32  33
ATOM     33  C   UNL     1      45.712   2.645   7.867  0.00  0.00    +0.000 A 
ATOM     34  N   UNL     1      45.831   3.478   6.828  0.00  0.00    +0.000 NA
ATOM     35  C   UNL     1      46.831   3.201   5.949  0.00  0.00    +0.000 A 
ATOM     36  C   UNL     1      47.685   2.137   6.080  0.00  0.00    +0.000 A 
ATOM     37  C   UNL     1      47.461   1.335   7.175  0.00  0.00    +0.000 A 
ATOM     38  N   UNL     1      46.487   1.556   8.071  0.00  0.00    +0.000 NA
ENDBRANCH  32  33
ENDBRANCH  29  32
ENDBRANCH  28  29
ENDBRANCH  25  28
ENDBRANCH  21  22
ENDBRANCH   3  21
TORSDOF 11
ENDMDL
MODEL 4
REMARK VINA RESULT:    -7.266      2.401      3.464
REMARK INTER + INTRA:         -13.786
REMARK INTER:                 -11.994
REMARK INTRA:                  -1.792
REMARK UNBOUND:                -2.060
REMARK  Name = 
REMARK  11 active torsions:
REMARK  status: ('A' for Active; 'I' for Inactive)
REMARK    1  A    between atoms: C_2  and  C_21
REMARK    2  A    between atoms: N_3  and  C_4
REMARK    3  A    between atoms: C_4  and  C_5
REMARK    4  A    between atoms: C_8  and  C_9
REMARK    5  A    between atoms: C_9  and  C_10
REMARK    6  A    between atoms: C_10  and  O_11
REMARK    7  A    between atoms: C_10  and  C_12
REMARK    8  A    between atoms: C_12  and  C_13
REMARK    9  A    between atoms: C_28  and  O_29
REMARK   10  A    between atoms: O_29  and  C_30
REMARK   11  A    between atoms: C_30  and  C_31
REMARK                            x       y       z     vdW  Elec       q    Type
REMARK                         _______ _______ _______ _____ _____    ______ ____
ROOT
ATOM      1  O   UNL     1      50.219   6.542  15.692  0.00  0.00    +0.000 OA
ATOM      2  C   UNL     1      49.050   6.509  16.057  0.00  0.00    +0.000 C 
ATOM      3  N   UNL     1      48.018   6.889  15.252  0.00  0.00    +0.000 N 
ATOM      4  H   UNL     1      47.090   6.556  15.483  0.00  0.00    +0.000 HD
ENDROOT
BRANCH   2   5
ATOM      5  C   UNL     1      48.661   5.981  17.363  0.00  0.00    +0.000 A 
ATOM      6  C   UNL     1      48.144   4.697  17.503  0.00  0.00    +0.000 A 
ATOM      7  N   UNL     1      47.596   4.585  18.746  0.00  0.00    +0.000 N 
ATOM      8  C   UNL     1      47.793   5.748  19.432  0.00  0.00    +0.000 A 
ATOM      9  N   UNL     1      47.253   6.011  20.628  0.00  0.00    +0.000 NA
ATOM     10  C   UNL     1      47.606   7.223  21.073  0.00  0.00    +0.000 A 
ATOM     11  N   UNL     1      48.493   8.074  20.526  0.00  0.00    +0.000 NA
ATOM     12  C   UNL     1      49.054   7.740  19.342  0.00  0.00    +0.000 A 
ATOM     13  C   UNL     1      48.617   6.577  18.677  0.00  0.00    +0.000 A 
ATOM     14  H   UNL     1      47.059   3.804  19.098  0.00  0.00    +0.000 HD
BRANCH  12  15
ATOM     15  O   UNL     1      49.914   8.691  18.827  0.00  0.00    +0.000 OA
BRANCH  15  16
ATOM     16  C   UNL     1      49.320   9.989  18.636  0.00  0.00    +0.000 C 
BRANCH  16  17
ATOM     17  C   UNL     1      48.571  10.212  17.327  0.00  0.00    +0.000 C 
ATOM     18  F   UNL     1      49.321  10.011  16.228  0.00  0.00    +0.000 F 
ATOM     19  F   UNL     1      47.505   9.378  17.256  0.00  0.00    +0.000 F 
ATOM     20  F   UNL     1      48.080  11.474  17.269  0.00  0.00    +0.000 F 
ENDBRANCH  16  17
ENDBRANCH  15  16
ENDBRANCH  12  15
ENDBRANCH   2   5
BRANCH   3  21
ATOM     21  C   UNL     1      48.180   7.186  13.847  0.00  0.00    +0.000 C 
BRANCH  21  22
ATOM     22  C   UNL     1      47.013   6.578  13.110  0.00  0.00    +0.000 A 
ATOM     23  C   UNL     1      46.817   6.872  11.767  0.00  0.00    +0.000 A 
ATOM     24  C   UNL     1      45.824   6.192  11.071  0.00  0.00    +0.000 A 
ATOM     25  C   UNL     1      45.058   5.220  11.724  0.00  0.00    +0.000 A 
ATOM     26  C   UNL     1      45.352   4.972  13.061  0.00  0.00    +0.000 A 
ATOM     27  N   UNL     1      46.318   5.611  13.760  0.00  0.00    +0.000 NA
BRANCH  25  28
ATOM     28  C   UNL     1      43.973   4.475  10.985  0.00  0.00    +0.000 C 
BRANCH  28  29
ATOM     29  C   UNL     1      44.492   3.279  10.164  0.00  0.00    +0.000 C 
BRANCH  29  30
ATOM     30  O   UNL     1      43.778   2.085  10.506  0.00  0.00    +0.000 OA
ATOM     31  H   UNL     1      42.824   2.261  10.358  0.00  0.00    +0.000 HD
ENDBRANCH  29  30
BRANCH  29  32
ATOM     32  C   UNL     1      44.452   3.524   8.648  0.00  0.00    +0.000 C 
BRANCH  32  33
ATOM     33  C   UNL     1      45.631   2.941   7.907  0.00  0.00    +0.000 A 
ATOM     34  N   UNL     1      46.038   1.711   8.237  0.00  0.00    +0.000 NA
ATOM     35  C   UNL     1      47.072   1.206   7.512  0.00  0.00    +0.000 A 
ATOM     36  C   UNL     1      47.692   1.889   6.497  0.00  0.00    +0.000 A 
ATOM     37  C   UNL     1      47.205   3.152   6.255  0.00  0.00    +0.000 A 
ATOM     38  N   UNL     1      46.193   3.703   6.941  0.00  0.00    +0.000 NA
ENDBRANCH  32  33
ENDBRANCH  29  32
ENDBRANCH  28  29
ENDBRANCH  25  28
ENDBRANCH  21  22
ENDBRANCH   3  21
TORSDOF 11
ENDMDL
MODEL 5
REMARK VINA RESULT:    -7.196      2.377      3.657
REMARK INTER + INTRA:         -13.674
REMARK INTER:                 -11.740
REMARK INTRA:                  -1.934
REMARK UNBOUND:                -2.060
REMARK  Name = 
REMARK  11 active torsions:
REMARK  status: ('A' for Active; 'I' for Inactive)
REMARK    1  A    between atoms: C_2  and  C_21
REMARK    2  A    between atoms: N_3  and  C_4
REMARK    3  A    between atoms: C_4  and  C_5
REMARK    4  A    between atoms: C_8  and  C_9
REMARK    5  A    between atoms: C_9  and  C_10
REMARK    6  A    between atoms: C_10  and  O_11
REMARK    7  A    between atoms: C_10  and  C_12
REMARK    8  A    between atoms: C_12  and  C_13
REMARK    9  A    between atoms: C_28  and  O_29
REMARK   10  A    between atoms: O_29  and  C_30
REMARK   11  A    between atoms: C_30  and  C_31
REMARK                            x       y       z     vdW  Elec       q    Type
REMARK                         _______ _______ _______ _____ _____    ______ ____
ROOT
ATOM      1  O   UNL     1      49.500   4.617  17.485  0.00  0.00    +0.000 OA
ATOM      2  C   UNL     1      48.522   5.356  17.489  0.00  0.00    +0.000 C 
ATOM      3  N   UNL     1      47.511   5.242  16.582  0.00  0.00    +0.000 N 
ATOM      4  H   UNL     1      46.617   5.655  16.816  0.00  0.00    +0.000 HD
ENDROOT
BRANCH   2   5
ATOM      5  C   UNL     1      48.324   6.371  18.521  0.00  0.00    +0.000 A 
ATOM      6  C   UNL     1      48.104   6.024  19.850  0.00  0.00    +0.000 A 
ATOM      7  N   UNL     1      47.657   7.126  20.517  0.00  0.00    +0.000 N 
ATOM      8  C   UNL     1      47.634   8.190  19.663  0.00  0.00    +0.000 A 
ATOM      9  N   UNL     1      47.112   9.383  19.971  0.00  0.00    +0.000 NA
ATOM     10  C   UNL     1      47.217  10.246  18.953  0.00  0.00    +0.000 A 
ATOM     11  N   UNL     1      47.870  10.070  17.790  0.00  0.00    +0.000 NA
ATOM     12  C   UNL     1      48.429   8.863  17.546  0.00  0.00    +0.000 A 
ATOM     13  C   UNL     1      48.220   7.810  18.459  0.00  0.00    +0.000 A 
ATOM     14  H   UNL     1      47.320   7.156  21.470  0.00  0.00    +0.000 HD
BRANCH  12  15
ATOM     15  O   UNL     1      49.036   8.752  16.310  0.00  0.00    +0.000 OA
BRANCH  15  16
ATOM     16  C   UNL     1      50.457   8.526  16.364  0.00  0.00    +0.000 C 
BRANCH  16  17
ATOM     17  C   UNL     1      51.004   7.398  15.496  0.00  0.00    +0.000 C 
ATOM     18  F   UNL     1      50.060   6.731  14.809  0.00  0.00    +0.000 F 
ATOM     19  F   UNL     1      51.893   7.894  14.600  0.00  0.00    +0.000 F 
ATOM     20  F   UNL     1      51.678   6.499  16.253  0.00  0.00    +0.000 F 
ENDBRANCH  16  17
ENDBRANCH  15  16
ENDBRANCH  12  15
ENDBRANCH   2   5
BRANCH   3  21
ATOM     21  C   UNL     1      47.400   4.138  15.657  0.00  0.00    +0.000 C 
BRANCH  21  22
ATOM     22  C   UNL     1      46.786   4.664  14.383  0.00  0.00    +0.000 A 
ATOM     23  C   UNL     1      47.212   5.879  13.863  0.00  0.00    +0.000 A 
ATOM     24  C   UNL     1      46.739   6.276  12.617  0.00  0.00    +0.000 A 
ATOM     25  C   UNL     1      45.865   5.445  11.908  0.00  0.00    +0.000 A 
ATOM     26  C   UNL     1      45.523   4.232  12.497  0.00  0.00    +0.000 A 
ATOM     27  N   UNL     1      45.975   3.815  13.702  0.00  0.00    +0.000 NA
BRANCH  25  28
ATOM     28  C   UNL     1      45.339   5.862  10.556  0.00  0.00    +0.000 C 
BRANCH  28  29
ATOM     29  C   UNL     1      45.011   4.678   9.627  0.00  0.00    +0.000 C 
BRANCH  29  30
ATOM     30  O   UNL     1      43.619   4.676   9.287  0.00  0.00    +0.000 OA
ATOM     31  H   UNL     1      43.526   4.208   8.431  0.00  0.00    +0.000 HD
ENDBRANCH  29  30
BRANCH  29  32
ATOM     32  C   UNL     1      45.881   4.643   8.362  0.00  0.00    +0.000 C 
BRANCH  32  33
ATOM     33  C   UNL     1      46.307   3.253   7.955  0.00  0.00    +0.000 A 
ATOM     34  N   UNL     1      47.334   3.132   7.107  0.00  0.00    +0.000 NA
ATOM     35  C   UNL     1      47.715   1.862   6.805  0.00  0.00    +0.000 A 
ATOM     36  C   UNL     1      47.105   0.744   7.313  0.00  0.00    +0.000 A 
ATOM     37  C   UNL     1      46.049   0.985   8.161  0.00  0.00    +0.000 A 
ATOM     38  N   UNL     1      45.626   2.215   8.489  0.00  0.00    +0.000 NA
ENDBRANCH  32  33
ENDBRANCH  29  32
ENDBRANCH  28  29
ENDBRANCH  25  28
ENDBRANCH  21  22
ENDBRANCH   3  21
TORSDOF 11
ENDMDL
MODEL 6
REMARK VINA RESULT:    -6.958      3.740      9.168
REMARK INTER + INTRA:         -13.289
REMARK INTER:                 -11.819
REMARK INTRA:                  -1.470
REMARK UNBOUND:                -2.060
REMARK  Name = 
REMARK  11 active torsions:
REMARK  status: ('A' for Active; 'I' for Inactive)
REMARK    1  A    between atoms: C_2  and  C_21
REMARK    2  A    between atoms: N_3  and  C_4
REMARK    3  A    between atoms: C_4  and  C_5
REMARK    4  A    between atoms: C_8  and  C_9
REMARK    5  A    between atoms: C_9  and  C_10
REMARK    6  A    between atoms: C_10  and  O_11
REMARK    7  A    between atoms: C_10  and  C_12
REMARK    8  A    between atoms: C_12  and  C_13
REMARK    9  A    between atoms: C_28  and  O_29
REMARK   10  A    between atoms: O_29  and  C_30
REMARK   11  A    between atoms: C_30  and  C_31
REMARK                            x       y       z     vdW  Elec       q    Type
REMARK                         _______ _______ _______ _____ _____    ______ ____
ROOT
ATOM      1  O   UNL     1      47.419   2.979  14.290  0.00  0.00    +0.000 OA
ATOM      2  C   UNL     1      47.073   4.058  14.758  0.00  0.00    +0.000 C 
ATOM      3  N   UNL     1      46.938   4.269  16.098  0.00  0.00    +0.000 N 
ATOM      4  H   UNL     1      46.957   5.224  16.431  0.00  0.00    +0.000 HD
ENDROOT
BRANCH   2   5
ATOM      5  C   UNL     1      46.855   5.232  13.916  0.00  0.00    +0.000 A 
ATOM      6  C   UNL     1      47.490   6.442  14.177  0.00  0.00    +0.000 A 
ATOM      7  N   UNL     1      46.884   7.416  13.442  0.00  0.00    +0.000 N 
ATOM      8  C   UNL     1      45.906   6.857  12.672  0.00  0.00    +0.000 A 
ATOM      9  N   UNL     1      45.034   7.563  11.943  0.00  0.00    +0.000 NA
ATOM     10  C   UNL     1      44.181   6.766  11.286  0.00  0.00    +0.000 A 
ATOM     11  N   UNL     1      44.210   5.424  11.198  0.00  0.00    +0.000 NA
ATOM     12  C   UNL     1      45.145   4.757  11.911  0.00  0.00    +0.000 A 
ATOM     13  C   UNL     1      45.979   5.472  12.794  0.00  0.00    +0.000 A 
ATOM     14  H   UNL     1      47.061   8.410  13.498  0.00  0.00    +0.000 HD
BRANCH  12  15
ATOM     15  O   UNL     1      45.074   3.381  11.804  0.00  0.00    +0.000 OA
BRANCH  15  16
ATOM     16  C   UNL     1      44.085   2.909  10.871  0.00  0.00    +0.000 C 
BRANCH  16  17
ATOM     17  C   UNL     1      44.596   2.414   9.523  0.00  0.00    +0.000 C 
ATOM     18  F   UNL     1      44.151   1.191   9.184  0.00  0.00    +0.000 F 
ATOM     19  F   UNL     1      44.223   3.274   8.542  0.00  0.00    +0.000 F 
ATOM     20  F   UNL     1      45.951   2.380   9.511  0.00  0.00    +0.000 F 
ENDBRANCH  16  17
ENDBRANCH  15  16
ENDBRANCH  12  15
ENDBRANCH   2   5
BRANCH   3  21
ATOM     21  C   UNL     1      47.364   3.312  17.094  0.00  0.00    +0.000 C 
BRANCH  21  22
ATOM     22  C   UNL     1      48.819   3.575  17.393  0.00  0.00    +0.000 A 
ATOM     23  C   UNL     1      49.746   2.550  17.262  0.00  0.00    +0.000 A 
ATOM     24  C   UNL     1      51.097   2.847  17.401  0.00  0.00    +0.000 A 
ATOM     25  C   UNL     1      51.497   4.164  17.652  0.00  0.00    +0.000 A 
ATOM     26  C   UNL     1      50.497   5.127  17.734  0.00  0.00    +0.000 A 
ATOM     27  N   UNL     1      49.176   4.869  17.592  0.00  0.00    +0.000 NA
BRANCH  25  28
ATOM     28  C   UNL     1      52.959   4.504  17.810  0.00  0.00    +0.000 C 
BRANCH  28  29
ATOM     29  C   UNL     1      53.505   4.242  19.226  0.00  0.00    +0.000 C 
BRANCH  29  30
ATOM     30  O   UNL     1      52.483   3.692  20.067  0.00  0.00    +0.000 OA
ATOM     31  H   UNL     1      52.219   2.830  19.682  0.00  0.00    +0.000 HD
ENDBRANCH  29  30
BRANCH  29  32
ATOM     32  C   UNL     1      54.757   3.351  19.236  0.00  0.00    +0.000 C 
BRANCH  32  33
ATOM     33  C   UNL     1      54.626   2.109  18.388  0.00  0.00    +0.000 A 
ATOM     34  N   UNL     1      53.820   1.133  18.820  0.00  0.00    +0.000 NA
ATOM     35  C   UNL     1      53.694   0.053  18.003  0.00  0.00    +0.000 A 
ATOM     36  C   UNL     1      54.344  -0.070  16.802  0.00  0.00    +0.000 A 
ATOM     37  C   UNL     1      55.162   0.983  16.465  0.00  0.00    +0.000 A 
ATOM     38  N   UNL     1      55.329   2.070  17.233  0.00  0.00    +0.000 NA
ENDBRANCH  32  33
ENDBRANCH  29  32
ENDBRANCH  28  29
ENDBRANCH  25  28
ENDBRANCH  21  22
ENDBRANCH   3  21
TORSDOF 11
ENDMDL
MODEL 7
REMARK VINA RESULT:    -6.869      3.317      8.672
REMARK INTER + INTRA:         -13.145
REMARK INTER:                 -11.492
REMARK INTRA:                  -1.653
REMARK UNBOUND:                -2.060
REMARK  Name = 
REMARK  11 active torsions:
REMARK  status: ('A' for Active; 'I' for Inactive)
REMARK    1  A    between atoms: C_2  and  C_21
REMARK    2  A    between atoms: N_3  and  C_4
REMARK    3  A    between atoms: C_4  and  C_5
REMARK    4  A    between atoms: C_8  and  C_9
REMARK    5  A    between atoms: C_9  and  C_10
REMARK    6  A    between atoms: C_10  and  O_11
REMARK    7  A    between atoms: C_10  and  C_12
REMARK    8  A    between atoms: C_12  and  C_13
REMARK    9  A    between atoms: C_28  and  O_29
REMARK   10  A    between atoms: O_29  and  C_30
REMARK   11  A    between atoms: C_30  and  C_31
REMARK                            x       y       z     vdW  Elec       q    Type
REMARK                         _______ _______ _______ _____ _____    ______ ____
ROOT
ATOM      1  O   UNL     1      45.319   8.202  11.363  0.00  0.00    +0.000 OA
ATOM      2  C   UNL     1      45.618   7.023  11.519  0.00  0.00    +0.000 C 
ATOM      3  N   UNL     1      46.910   6.587  11.517  0.00  0.00    +0.000 N 
ATOM      4  H   UNL     1      47.108   5.692  11.948  0.00  0.00    +0.000 HD
ENDROOT
BRANCH   2   5
ATOM      5  C   UNL     1      44.614   6.001  11.803  0.00  0.00    +0.000 A 
ATOM      6  C   UNL     1      43.762   6.102  12.897  0.00  0.00    +0.000 A 
ATOM      7  N   UNL     1      43.158   4.895  13.088  0.00  0.00    +0.000 N 
ATOM      8  C   UNL     1      43.558   4.031  12.111  0.00  0.00    +0.000 A 
ATOM      9  N   UNL     1      43.256   2.728  12.097  0.00  0.00    +0.000 NA
ATOM     10  C   UNL     1      43.778   2.111  11.029  0.00  0.00    +0.000 A 
ATOM     11  N   UNL     1      44.413   2.673   9.984  0.00  0.00    +0.000 NA
ATOM     12  C   UNL     1      44.648   4.004  10.019  0.00  0.00    +0.000 A 
ATOM     13  C   UNL     1      44.319   4.732  11.180  0.00  0.00    +0.000 A 
ATOM     14  H   UNL     1      42.564   4.637  13.865  0.00  0.00    +0.000 HD
BRANCH  12  15
ATOM     15  O   UNL     1      45.349   4.491   8.932  0.00  0.00    +0.000 OA
BRANCH  15  16
ATOM     16  C   UNL     1      45.204   3.707   7.733  0.00  0.00    +0.000 C 
BRANCH  16  17
ATOM     17  C   UNL     1      46.481   3.122   7.140  0.00  0.00    +0.000 C 
ATOM     18  F   UNL     1      47.552   3.929   7.246  0.00  0.00    +0.000 F 
ATOM     19  F   UNL     1      46.784   1.953   7.757  0.00  0.00    +0.000 F 
ATOM     20  F   UNL     1      46.308   2.832   5.827  0.00  0.00    +0.000 F 
ENDBRANCH  16  17
ENDBRANCH  15  16
ENDBRANCH  12  15
ENDBRANCH   2   5
BRANCH   3  21
ATOM     21  C   UNL     1      48.045   7.480  11.517  0.00  0.00    +0.000 C 
BRANCH  21  22
ATOM     22  C   UNL     1      48.641   7.467  12.903  0.00  0.00    +0.000 A 
ATOM     23  C   UNL     1      48.090   6.652  13.883  0.00  0.00    +0.000 A 
ATOM     24  C   UNL     1      48.740   6.545  15.107  0.00  0.00    +0.000 A 
ATOM     25  C   UNL     1      49.935   7.240  15.324  0.00  0.00    +0.000 A 
ATOM     26  C   UNL     1      50.425   8.004  14.271  0.00  0.00    +0.000 A 
ATOM     27  N   UNL     1      49.821   8.118  13.066  0.00  0.00    +0.000 NA
BRANCH  25  28
ATOM     28  C   UNL     1      50.650   7.139  16.649  0.00  0.00    +0.000 C 
BRANCH  28  29
ATOM     29  C   UNL     1      51.486   5.855  16.805  0.00  0.00    +0.000 C 
BRANCH  29  30
ATOM     30  O   UNL     1      52.877   6.172  16.935  0.00  0.00    +0.000 OA
ATOM     31  H   UNL     1      53.028   6.458  17.861  0.00  0.00    +0.000 HD
ENDBRANCH  29  30
BRANCH  29  32
ATOM     32  C   UNL     1      51.018   4.967  17.968  0.00  0.00    +0.000 C 
BRANCH  32  33
ATOM     33  C   UNL     1      49.662   4.342  17.748  0.00  0.00    +0.000 A 
ATOM     34  N   UNL     1      48.606   4.895  18.355  0.00  0.00    +0.000 NA
ATOM     35  C   UNL     1      47.398   4.330  18.091  0.00  0.00    +0.000 A 
ATOM     36  C   UNL     1      47.229   3.250  17.263  0.00  0.00    +0.000 A 
ATOM     37  C   UNL     1      48.383   2.750  16.707  0.00  0.00    +0.000 A 
ATOM     38  N   UNL     1      49.601   3.262  16.935  0.00  0.00    +0.000 NA
ENDBRANCH  32  33
ENDBRANCH  29  32
ENDBRANCH  28  29
ENDBRANCH  25  28
ENDBRANCH  21  22
ENDBRANCH   3  21
TORSDOF 11
ENDMDL
MODEL 8
REMARK VINA RESULT:    -6.826      2.467      4.083
REMARK INTER + INTRA:         -13.076
REMARK INTER:                 -10.960
REMARK INTRA:                  -2.115
REMARK UNBOUND:                -2.060
REMARK  Name = 
REMARK  11 active torsions:
REMARK  status: ('A' for Active; 'I' for Inactive)
REMARK    1  A    between atoms: C_2  and  C_21
REMARK    2  A    between atoms: N_3  and  C_4
REMARK    3  A    between atoms: C_4  and  C_5
REMARK    4  A    between atoms: C_8  and  C_9
REMARK    5  A    between atoms: C_9  and  C_10
REMARK    6  A    between atoms: C_10  and  O_11
REMARK    7  A    between atoms: C_10  and  C_12
REMARK    8  A    between atoms: C_12  and  C_13
REMARK    9  A    between atoms: C_28  and  O_29
REMARK   10  A    between atoms: O_29  and  C_30
REMARK   11  A    between atoms: C_30  and  C_31
REMARK                            x       y       z     vdW  Elec       q    Type
REMARK                         _______ _______ _______ _____ _____    ______ ____
ROOT
ATOM      1  O   UNL     1      52.934   6.908  18.555  0.00  0.00    +0.000 OA
ATOM      2  C   UNL     1      52.475   5.916  18.001  0.00  0.00    +0.000 C 
ATOM      3  N   UNL     1      51.746   5.988  16.851  0.00  0.00    +0.000 N 
ATOM      4  H   UNL     1      51.665   5.150  16.290  0.00  0.00    +0.000 HD
ENDROOT
BRANCH   2   5
ATOM      5  C   UNL     1      52.744   4.564  18.487  0.00  0.00    +0.000 A 
ATOM      6  C   UNL     1      53.782   4.303  19.374  0.00  0.00    +0.000 A 
ATOM      7  N   UNL     1      53.989   2.957  19.414  0.00  0.00    +0.000 N 
ATOM      8  C   UNL     1      53.075   2.337  18.614  0.00  0.00    +0.000 A 
ATOM      9  N   UNL     1      53.100   1.030  18.325  0.00  0.00    +0.000 NA
ATOM     10  C   UNL     1      52.091   0.685  17.515  0.00  0.00    +0.000 A 
ATOM     11  N   UNL     1      51.061   1.451  17.111  0.00  0.00    +0.000 NA
ATOM     12  C   UNL     1      51.052   2.754  17.473  0.00  0.00    +0.000 A 
ATOM     13  C   UNL     1      52.160   3.284  18.164  0.00  0.00    +0.000 A 
ATOM     14  H   UNL     1      54.741   2.478  19.893  0.00  0.00    +0.000 HD
BRANCH  12  15
ATOM     15  O   UNL     1      49.987   3.479  16.975  0.00  0.00    +0.000 OA
BRANCH  15  16
ATOM     16  C   UNL     1      48.845   3.535  17.849  0.00  0.00    +0.000 C 
BRANCH  16  17
ATOM     17  C   UNL     1      47.473   3.478  17.187  0.00  0.00    +0.000 C 
ATOM     18  F   UNL     1      47.518   3.346  15.849  0.00  0.00    +0.000 F 
ATOM     19  F   UNL     1      46.764   2.433  17.681  0.00  0.00    +0.000 F 
ATOM     20  F   UNL     1      46.761   4.597  17.469  0.00  0.00    +0.000 F 
ENDBRANCH  16  17
ENDBRANCH  15  16
ENDBRANCH  12  15
ENDBRANCH   2   5
BRANCH   3  21
ATOM     21  C   UNL     1      51.602   7.202  16.082  0.00  0.00    +0.000 C 
BRANCH  21  22
ATOM     22  C   UNL     1      50.346   7.078  15.256  0.00  0.00    +0.000 A 
ATOM     23  C   UNL     1      49.171   6.635  15.849  0.00  0.00    +0.000 A 
ATOM     24  C   UNL     1      47.995   6.665  15.108  0.00  0.00    +0.000 A 
ATOM     25  C   UNL     1      48.012   7.151  13.795  0.00  0.00    +0.000 A 
ATOM     26  C   UNL     1      49.231   7.602  13.301  0.00  0.00    +0.000 A 
ATOM     27  N   UNL     1      50.388   7.596  14.002  0.00  0.00    +0.000 NA
BRANCH  25  28
ATOM     28  C   UNL     1      46.745   7.185  12.975  0.00  0.00    +0.000 C 
BRANCH  28  29
ATOM     29  C   UNL     1      46.585   5.978  12.032  0.00  0.00    +0.000 C 
BRANCH  29  30
ATOM     30  O   UNL     1      46.292   4.791  12.779  0.00  0.00    +0.000 OA
ATOM     31  H   UNL     1      45.881   4.149  12.162  0.00  0.00    +0.000 HD
ENDBRANCH  29  30
BRANCH  29  32
ATOM     32  C   UNL     1      45.536   6.205  10.934  0.00  0.00    +0.000 C 
BRANCH  32  33
ATOM     33  C   UNL     1      45.319   5.006  10.042  0.00  0.00    +0.000 A 
ATOM     34  N   UNL     1      45.868   5.021   8.823  0.00  0.00    +0.000 NA
ATOM     35  C   UNL     1      45.688   3.901   8.071  0.00  0.00    +0.000 A 
ATOM     36  C   UNL     1      44.987   2.804   8.499  0.00  0.00    +0.000 A 
ATOM     37  C   UNL     1      44.451   2.904   9.761  0.00  0.00    +0.000 A 
ATOM     38  N   UNL     1      44.590   3.984  10.544  0.00  0.00    +0.000 NA
ENDBRANCH  32  33
ENDBRANCH  29  32
ENDBRANCH  28  29
ENDBRANCH  25  28
ENDBRANCH  21  22
ENDBRANCH   3  21
TORSDOF 11
ENDMDL
MODEL 9
REMARK VINA RESULT:    -6.635      2.506      3.217
REMARK INTER + INTRA:         -12.768
REMARK INTER:                 -11.056
REMARK INTRA:                  -1.712
REMARK UNBOUND:                -2.060
REMARK  Name = 
REMARK  11 active torsions:
REMARK  status: ('A' for Active; 'I' for Inactive)
REMARK    1  A    between atoms: C_2  and  C_21
REMARK    2  A    between atoms: N_3  and  C_4
REMARK    3  A    between atoms: C_4  and  C_5
REMARK    4  A    between atoms: C_8  and  C_9
REMARK    5  A    between atoms: C_9  and  C_10
REMARK    6  A    between atoms: C_10  and  O_11
REMARK    7  A    between atoms: C_10  and  C_12
REMARK    8  A    between atoms: C_12  and  C_13
REMARK    9  A    between atoms: C_28  and  O_29
REMARK   10  A    between atoms: O_29  and  C_30
REMARK   11  A    between atoms: C_30  and  C_31
REMARK                            x       y       z     vdW  Elec       q    Type
REMARK                         _______ _______ _______ _____ _____    ______ ____
ROOT
ATOM      1  O   UNL     1      50.251   8.219  17.122  0.00  0.00    +0.000 OA
ATOM      2  C   UNL     1      50.358   7.198  16.453  0.00  0.00    +0.000 C 
ATOM      3  N   UNL     1      50.070   7.159  15.121  0.00  0.00    +0.000 N 
ATOM      4  H   UNL     1      50.463   6.404  14.573  0.00  0.00    +0.000 HD
ENDROOT
BRANCH   2   5
ATOM      5  C   UNL     1      50.884   5.955  17.014  0.00  0.00    +0.000 A 
ATOM      6  C   UNL     1      52.228   5.818  17.345  0.00  0.00    +0.000 A 
ATOM      7  N   UNL     1      52.490   4.497  17.550  0.00  0.00    +0.000 N 
ATOM      8  C   UNL     1      51.337   3.782  17.411  0.00  0.00    +0.000 A 
ATOM      9  N   UNL     1      51.283   2.445  17.411  0.00  0.00    +0.000 NA
ATOM     10  C   UNL     1      50.029   2.001  17.254  0.00  0.00    +0.000 A 
ATOM     11  N   UNL     1      48.896   2.727  17.235  0.00  0.00    +0.000 NA
ATOM     12  C   UNL     1      48.999   4.075  17.292  0.00  0.00    +0.000 A 
ATOM     13  C   UNL     1      50.276   4.670  17.263  0.00  0.00    +0.000 A 
ATOM     14  H   UNL     1      53.399   4.081  17.706  0.00  0.00    +0.000 HD
BRANCH  12  15
ATOM     15  O   UNL     1      47.793   4.745  17.216  0.00  0.00    +0.000 OA
BRANCH  15  16
ATOM     16  C   UNL     1      47.164   4.981  18.489  0.00  0.00    +0.000 C 
BRANCH  16  17
ATOM     17  C   UNL     1      47.573   6.250  19.229  0.00  0.00    +0.000 C 
ATOM     18  F   UNL     1      47.516   7.364  18.477  0.00  0.00    +0.000 F 
ATOM     19  F   UNL     1      46.769   6.437  20.305  0.00  0.00    +0.000 F 
ATOM     20  F   UNL     1      48.837   6.136  19.706  0.00  0.00    +0.000 F 
ENDBRANCH  16  17
ENDBRANCH  15  16
ENDBRANCH  12  15
ENDBRANCH   2   5
BRANCH   3  21
ATOM     21  C   UNL     1      49.794   8.342  14.338  0.00  0.00    +0.000 C 
BRANCH  21  22
ATOM     22  C   UNL     1      48.541   8.082  13.538  0.00  0.00    +0.000 A 
ATOM     23  C   UNL     1      48.474   6.976  12.702  0.00  0.00    +0.000 A 
ATOM     24  C   UNL     1      47.264   6.674  12.087  0.00  0.00    +0.000 A 
ATOM     25  C   UNL     1      46.142   7.474  12.330  0.00  0.00    +0.000 A 
ATOM     26  C   UNL     1      46.300   8.541  13.208  0.00  0.00    +0.000 A 
ATOM     27  N   UNL     1      47.461   8.851  13.830  0.00  0.00    +0.000 NA
BRANCH  25  28
ATOM     28  C   UNL     1      44.822   7.164  11.666  0.00  0.00    +0.000 C 
BRANCH  28  29
ATOM     29  C   UNL     1      44.259   5.776  12.027  0.00  0.00    +0.000 C 
BRANCH  29  30
ATOM     30  O   UNL     1      43.518   5.836  13.252  0.00  0.00    +0.000 OA
ATOM     31  H   UNL     1      43.252   6.770  13.389  0.00  0.00    +0.000 HD
ENDBRANCH  29  30
BRANCH  29  32
ATOM     32  C   UNL     1      43.410   5.159  10.905  0.00  0.00    +0.000 C 
BRANCH  32  33
ATOM     33  C   UNL     1      44.177   4.218  10.009  0.00  0.00    +0.000 A 
ATOM     34  N   UNL     1      43.976   2.904  10.156  0.00  0.00    +0.000 NA
ATOM     35  C   UNL     1      44.651   2.094   9.296  0.00  0.00    +0.000 A 
ATOM     36  C   UNL     1      45.503   2.558   8.326  0.00  0.00    +0.000 A 
ATOM     37  C   UNL     1      45.649   3.924   8.277  0.00  0.00    +0.000 A 
ATOM     38  N   UNL     1      45.014   4.770   9.102  0.00  0.00    +0.000 NA
ENDBRANCH  32  33
ENDBRANCH  29  32
ENDBRANCH  28  29
ENDBRANCH  25  28
ENDBRANCH  21  22
ENDBRANCH   3  21
TORSDOF 11
ENDMDL
