MODEL 1
REMARK VINA RESULT:    -9.219      0.000      0.000
REMARK INTER + INTRA:         -14.536
REMARK INTER:                 -13.530
REMARK INTRA:                  -1.005
REMARK UNBOUND:                -1.005
REMARK  Name = 
REMARK  8 active torsions:
REMARK  status: ('A' for Active; 'I' for Inactive)
REMARK    1  A    between atoms: C_2  and  O_3
REMARK    2  A    between atoms: C_2  and  C_20
REMARK    3  A    between atoms: O_3  and  C_4
REMARK    4  A    between atoms: C_4  and  C_5
REMARK    5  A    between atoms: C_8  and  C_9
REMARK    6  A    between atoms: C_9  and  N_10
REMARK    7  A    between atoms: N_10  and  C_11
REMARK    8  A    between atoms: C_11  and  C_12
REMARK                            x       y       z     vdW  Elec       q    Type
REMARK                         _______ _______ _______ _____ _____    ______ ____
ROOT
ATOM      1  C   UNL     1      46.371   4.694  13.695  0.00  0.00    +0.000 A 
ATOM      2  C   UNL     1      46.060   3.451  13.132  0.00  0.00    +0.000 A 
ATOM      3  C   UNL     1      45.190   3.363  12.042  0.00  0.00    +0.000 A 
ATOM      4  C   UNL     1      44.608   4.515  11.493  0.00  0.00    +0.000 A 
ATOM      5  C   UNL     1      44.923   5.758  12.053  0.00  0.00    +0.000 A 
ATOM      6  C   UNL     1      45.791   5.845  13.145  0.00  0.00    +0.000 A 
ENDROOT
BRANCH   1   7
ATOM      7  C   UNL     1      47.308   4.793  14.872  0.00  0.00    +0.000 C 
BRANCH   7   8
ATOM      8  O   UNL     1      47.562   3.504  15.446  0.00  0.00    +0.000 OA
BRANCH   8  10
ATOM      9  O   UNL     1      46.396   3.018  17.355  0.00  0.00    +0.000 OA
ATOM     10  C   UNL     1      47.409   3.420  16.791  0.00  0.00    +0.000 C 
BRANCH  10  11
ATOM     11  C   UNL     1      48.546   3.961  17.532  0.00  0.00    +0.000 A 
ATOM     12  C   UNL     1      48.400   5.085  18.334  0.00  0.00    +0.000 A 
ATOM     13  S   UNL     1      49.851   5.567  19.092  0.00  0.00    +0.000 S 
ATOM     14  C   UNL     1      50.696   4.242  18.438  0.00  0.00    +0.000 A 
ATOM     15  N   UNL     1      51.999   4.019  18.759  0.00  0.00    +0.000 NA
ATOM     16  C   UNL     1      52.498   2.945  18.247  0.00  0.00    +0.000 A 
ATOM     17  N   UNL     1      51.818   2.088  17.423  0.00  0.00    +0.000 N 
ATOM     18  C   UNL     1      50.514   2.288  17.035  0.00  0.00    +0.000 A 
ATOM     19  O   UNL     1      49.968   1.492  16.285  0.00  0.00    +0.000 OA
ATOM     20  C   UNL     1      49.898   3.469  17.617  0.00  0.00    +0.000 A 
ATOM     21  H   UNL     1      52.266   1.260  17.055  0.00  0.00    +0.000 HD
ENDBRANCH  10  11
ENDBRANCH   8  10
ENDBRANCH   7   8
ENDBRANCH   1   7
BRANCH   4  22
ATOM     22  C   UNL     1      43.665   4.413  10.315  0.00  0.00    +0.000 C 
BRANCH  22  23
ATOM     23  N   UNL     1      44.153   3.440   9.339  0.00  0.00    +0.000 NA
ATOM     24  H   UNL     1      43.351   3.020   8.868  0.00  0.00    +0.000 HD
BRANCH  23  25
ATOM     25  C   UNL     1      45.023   4.063   8.347  0.00  0.00    +0.000 C 
BRANCH  25  26
ATOM     26  C   UNL     1      45.972   3.052   7.750  0.00  0.00    +0.000 A 
ATOM     27  C   UNL     1      46.042   1.748   8.252  0.00  0.00    +0.000 A 
ATOM     28  C   UNL     1      46.929   0.857   7.668  0.00  0.00    +0.000 A 
ATOM     29  N   UNL     1      47.739   1.167   6.635  0.00  0.00    +0.000 NA
ATOM     30  C   UNL     1      47.658   2.430   6.164  0.00  0.00    +0.000 A 
ATOM     31  C   UNL     1      46.801   3.392   6.677  0.00  0.00    +0.000 A 
ENDBRANCH  25  26
ENDBRANCH  23  25
ENDBRANCH  22  23
ENDBRANCH   4  22
TORSDOF 8
ENDMDL
MODEL 2
REMARK VINA RESULT:    -8.581      1.269      2.237
REMARK INTER + INTRA:         -13.600
REMARK INTER:                 -12.478
REMARK INTRA:                  -1.123
REMARK UNBOUND:                -1.005
REMARK  Name = 
REMARK  8 active torsions:
REMARK  status: ('A' for Active; 'I' for Inactive)
REMARK    1  A    between atoms: C_2  and  O_3
REMARK    2  A    between atoms: C_2  and  C_20
REMARK    3  A    between atoms: O_3  and  C_4
REMARK    4  A    between atoms: C_4  and  C_5
REMARK    5  A    between atoms: C_8  and  C_9
REMARK    6  A    between atoms: C_9  and  N_10
REMARK    7  A    between atoms: N_10  and  C_11
REMARK    8  A    between atoms: C_11  and  C_12
REMARK                            x       y       z     vdW  Elec       q    Type
REMARK                         _______ _______ _______ _____ _____    ______ ____
ROOT
ATOM      1  C   UNL     1      46.332   4.709  13.507  0.00  0.00    +0.000 A 
ATOM      2  C   UNL     1      46.078   5.881  12.783  0.00  0.00    +0.000 A 
ATOM      3  C   UNL     1      45.221   5.862  11.680  0.00  0.00    +0.000 A 
ATOM      4  C   UNL     1      44.601   4.671  11.272  0.00  0.00    +0.000 A 
ATOM      5  C   UNL     1      44.853   3.501  11.999  0.00  0.00    +0.000 A 
ATOM      6  C   UNL     1      45.713   3.521  13.100  0.00  0.00    +0.000 A 
ENDROOT
BRANCH   1   7
ATOM      7  C   UNL     1      47.259   4.726  14.696  0.00  0.00    +0.000 C 
BRANCH   7   8
ATOM      8  O   UNL     1      47.520   3.399  15.173  0.00  0.00    +0.000 OA
BRANCH   8  10
ATOM      9  O   UNL     1      46.637   3.312  17.282  0.00  0.00    +0.000 OA
ATOM     10  C   UNL     1      47.597   3.265  16.520  0.00  0.00    +0.000 C 
BRANCH  10  11
ATOM     11  C   UNL     1      48.970   3.158  17.007  0.00  0.00    +0.000 A 
ATOM     12  C   UNL     1      49.714   2.008  16.784  0.00  0.00    +0.000 A 
ATOM     13  S   UNL     1      51.283   2.078  17.453  0.00  0.00    +0.000 S 
ATOM     14  C   UNL     1      51.042   3.676  17.988  0.00  0.00    +0.000 A 
ATOM     15  N   UNL     1      52.046   4.367  18.591  0.00  0.00    +0.000 NA
ATOM     16  C   UNL     1      51.750   5.588  18.886  0.00  0.00    +0.000 A 
ATOM     17  N   UNL     1      50.533   6.171  18.654  0.00  0.00    +0.000 N 
ATOM     18  C   UNL     1      49.473   5.505  18.084  0.00  0.00    +0.000 A 
ATOM     19  O   UNL     1      48.406   6.078  17.917  0.00  0.00    +0.000 OA
ATOM     20  C   UNL     1      49.770   4.134  17.702  0.00  0.00    +0.000 A 
ATOM     21  H   UNL     1      50.364   7.134  18.907  0.00  0.00    +0.000 HD
ENDBRANCH  10  11
ENDBRANCH   8  10
ENDBRANCH   7   8
ENDBRANCH   1   7
BRANCH   4  22
ATOM     22  C   UNL     1      43.677   4.655  10.076  0.00  0.00    +0.000 C 
BRANCH  22  23
ATOM     23  N   UNL     1      44.147   3.709   9.065  0.00  0.00    +0.000 NA
ATOM     24  H   UNL     1      43.382   3.514   8.420  0.00  0.00    +0.000 HD
BRANCH  23  25
ATOM     25  C   UNL     1      45.284   4.239   8.320  0.00  0.00    +0.000 C 
BRANCH  25  26
ATOM     26  C   UNL     1      46.141   3.122   7.776  0.00  0.00    +0.000 A 
ATOM     27  C   UNL     1      47.105   3.370   6.793  0.00  0.00    +0.000 A 
ATOM     28  C   UNL     1      47.868   2.311   6.326  0.00  0.00    +0.000 A 
ATOM     29  N   UNL     1      47.741   1.041   6.762  0.00  0.00    +0.000 NA
ATOM     30  C   UNL     1      46.806   0.820   7.711  0.00  0.00    +0.000 A 
ATOM     31  C   UNL     1      45.997   1.813   8.244  0.00  0.00    +0.000 A 
ENDBRANCH  25  26
ENDBRANCH  23  25
ENDBRANCH  22  23
ENDBRANCH   4  22
TORSDOF 8
ENDMDL
MODEL 3
REMARK VINA RESULT:    -8.065      2.033      2.559
REMARK INTER + INTRA:         -12.842
REMARK INTER:                 -11.920
REMARK INTRA:                  -0.922
REMARK UNBOUND:                -1.005
REMARK  Name = 
REMARK  8 active torsions:
REMARK  status: ('A' for Active; 'I' for Inactive)
REMARK    1  A    between atoms: C_2  and  O_3
REMARK    2  A    between atoms: C_2  and  C_20
REMARK    3  A    between atoms: O_3  and  C_4
REMARK    4  A    between atoms: C_4  and  C_5
REMARK    5  A    between atoms: C_8  and  C_9
REMARK    6  A    between atoms: C_9  and  N_10
REMARK    7  A    between atoms: N_10  and  C_11
REMARK    8  A    between atoms: C_11  and  C_12
REMARK                            x       y       z     vdW  Elec       q    Type
REMARK                         _______ _______ _______ _____ _____    ______ ____
ROOT
ATOM      1  C   UNL     1      47.136   6.101  12.824  0.00  0.00    +0.000 A 
ATOM      2  C   UNL     1      46.574   4.904  13.282  0.00  0.00    +0.000 A 
ATOM      3  C   UNL     1      45.515   4.307  12.592  0.00  0.00    +0.000 A 
ATOM      4  C   UNL     1      44.991   4.895  11.432  0.00  0.00    +0.000 A 
ATOM      5  C   UNL     1      45.556   6.091  10.972  0.00  0.00    +0.000 A 
ATOM      6  C   UNL     1      46.613   6.688  11.664  0.00  0.00    +0.000 A 
ENDROOT
BRANCH   1   7
ATOM      7  C   UNL     1      48.277   6.749  13.567  0.00  0.00    +0.000 C 
BRANCH   7   8
ATOM      8  O   UNL     1      48.543   6.075  14.804  0.00  0.00    +0.000 OA
BRANCH   8  10
ATOM      9  O   UNL     1      50.618   6.942  15.225  0.00  0.00    +0.000 OA
ATOM     10  C   UNL     1      49.485   6.648  15.593  0.00  0.00    +0.000 C 
BRANCH  10  11
ATOM     11  C   UNL     1      49.057   6.796  16.982  0.00  0.00    +0.000 A 
ATOM     12  C   UNL     1      48.517   7.992  17.434  0.00  0.00    +0.000 A 
ATOM     13  S   UNL     1      48.104   7.963  19.090  0.00  0.00    +0.000 S 
ATOM     14  C   UNL     1      48.557   6.329  19.230  0.00  0.00    +0.000 A 
ATOM     15  N   UNL     1      48.385   5.657  20.399  0.00  0.00    +0.000 NA
ATOM     16  C   UNL     1      48.708   4.408  20.349  0.00  0.00    +0.000 A 
ATOM     17  N   UNL     1      49.210   3.779  19.241  0.00  0.00    +0.000 N 
ATOM     18  C   UNL     1      49.441   4.421  18.047  0.00  0.00    +0.000 A 
ATOM     19  O   UNL     1      49.906   3.806  17.098  0.00  0.00    +0.000 OA
ATOM     20  C   UNL     1      49.059   5.824  18.046  0.00  0.00    +0.000 A 
ATOM     21  H   UNL     1      49.442   2.796  19.265  0.00  0.00    +0.000 HD
ENDBRANCH  10  11
ENDBRANCH   8  10
ENDBRANCH   7   8
ENDBRANCH   1   7
BRANCH   4  22
ATOM     22  C   UNL     1      43.844   4.247  10.691  0.00  0.00    +0.000 C 
BRANCH  22  23
ATOM     23  N   UNL     1      44.326   3.185   9.809  0.00  0.00    +0.000 NA
ATOM     24  H   UNL     1      43.579   2.504   9.678  0.00  0.00    +0.000 HD
BRANCH  23  25
ATOM     25  C   UNL     1      44.734   3.710   8.510  0.00  0.00    +0.000 C 
BRANCH  25  26
ATOM     26  C   UNL     1      45.840   2.873   7.912  0.00  0.00    +0.000 A 
ATOM     27  C   UNL     1      45.962   1.515   8.224  0.00  0.00    +0.000 A 
ATOM     28  C   UNL     1      46.995   0.790   7.649  0.00  0.00    +0.000 A 
ATOM     29  N   UNL     1      47.901   1.314   6.798  0.00  0.00    +0.000 NA
ATOM     30  C   UNL     1      47.768   2.627   6.509  0.00  0.00    +0.000 A 
ATOM     31  C   UNL     1      46.768   3.435   7.029  0.00  0.00    +0.000 A 
ENDBRANCH  25  26
ENDBRANCH  23  25
ENDBRANCH  22  23
ENDBRANCH   4  22
TORSDOF 8
ENDMDL
MODEL 4
REMARK VINA RESULT:    -8.030      1.525      1.757
REMARK INTER + INTRA:         -12.791
REMARK INTER:                 -11.988
REMARK INTRA:                  -0.803
REMARK UNBOUND:                -1.005
REMARK  Name = 
REMARK  8 active torsions:
REMARK  status: ('A' for Active; 'I' for Inactive)
REMARK    1  A    between atoms: C_2  and  O_3
REMARK    2  A    between atoms: C_2  and  C_20
REMARK    3  A    between atoms: O_3  and  C_4
REMARK    4  A    between atoms: C_4  and  C_5
REMARK    5  A    between atoms: C_8  and  C_9
REMARK    6  A    between atoms: C_9  and  N_10
REMARK    7  A    between atoms: N_10  and  C_11
REMARK    8  A    between atoms: C_11  and  C_12
REMARK                            x       y       z     vdW  Elec       q    Type
REMARK                         _______ _______ _______ _____ _____    ______ ____
ROOT
ATOM      1  C   UNL     1      47.553   6.290  13.745  0.00  0.00    +0.000 A 
ATOM      2  C   UNL     1      46.852   5.090  13.580  0.00  0.00    +0.000 A 
ATOM      3  C   UNL     1      46.000   4.910  12.486  0.00  0.00    +0.000 A 
ATOM      4  C   UNL     1      45.827   5.927  11.536  0.00  0.00    +0.000 A 
ATOM      5  C   UNL     1      46.532   7.126  11.700  0.00  0.00    +0.000 A 
ATOM      6  C   UNL     1      47.381   7.305  12.795  0.00  0.00    +0.000 A 
ENDROOT
BRANCH   1   7
ATOM      7  C   UNL     1      48.472   6.487  14.925  0.00  0.00    +0.000 C 
BRANCH   7   8
ATOM      8  O   UNL     1      48.706   5.253  15.616  0.00  0.00    +0.000 OA
BRANCH   8  10
ATOM      9  O   UNL     1      48.026   5.828  17.724  0.00  0.00    +0.000 OA
ATOM     10  C   UNL     1      48.860   5.354  16.959  0.00  0.00    +0.000 C 
BRANCH  10  11
ATOM     11  C   UNL     1      50.182   4.933  17.417  0.00  0.00    +0.000 A 
ATOM     12  C   UNL     1      51.075   5.854  17.948  0.00  0.00    +0.000 A 
ATOM     13  S   UNL     1      52.569   5.163  18.400  0.00  0.00    +0.000 S 
ATOM     14  C   UNL     1      52.036   3.602  17.979  0.00  0.00    +0.000 A 
ATOM     15  N   UNL     1      52.826   2.516  18.191  0.00  0.00    +0.000 NA
ATOM     16  C   UNL     1      52.275   1.389  17.888  0.00  0.00    +0.000 A 
ATOM     17  N   UNL     1      51.014   1.254  17.370  0.00  0.00    +0.000 N 
ATOM     18  C   UNL     1      50.190   2.322  17.100  0.00  0.00    +0.000 A 
ATOM     19  O   UNL     1      49.080   2.135  16.623  0.00  0.00    +0.000 OA
ATOM     20  C   UNL     1      50.756   3.612  17.458  0.00  0.00    +0.000 A 
ATOM     21  H   UNL     1      50.638   0.341  17.155  0.00  0.00    +0.000 HD
ENDBRANCH  10  11
ENDBRANCH   8  10
ENDBRANCH   7   8
ENDBRANCH   1   7
BRANCH   4  22
ATOM     22  C   UNL     1      44.902   5.729  10.357  0.00  0.00    +0.000 C 
BRANCH  22  23
ATOM     23  N   UNL     1      45.623   5.162   9.218  0.00  0.00    +0.000 NA
ATOM     24  H   UNL     1      46.564   4.910   9.520  0.00  0.00    +0.000 HD
BRANCH  23  25
ATOM     25  C   UNL     1      44.952   3.978   8.693  0.00  0.00    +0.000 C 
BRANCH  25  26
ATOM     26  C   UNL     1      45.945   3.026   8.070  0.00  0.00    +0.000 A 
ATOM     27  C   UNL     1      45.890   1.654   8.339  0.00  0.00    +0.000 A 
ATOM     28  C   UNL     1      46.824   0.821   7.743  0.00  0.00    +0.000 A 
ATOM     29  N   UNL     1      47.795   1.250   6.909  0.00  0.00    +0.000 NA
ATOM     30  C   UNL     1      47.832   2.578   6.662  0.00  0.00    +0.000 A 
ATOM     31  C   UNL     1      46.941   3.490   7.206  0.00  0.00    +0.000 A 
ENDBRANCH  25  26
ENDBRANCH  23  25
ENDBRANCH  22  23
ENDBRANCH   4  22
TORSDOF 8
ENDMDL
MODEL 5
REMARK VINA RESULT:    -7.509      2.421      3.466
REMARK INTER + INTRA:         -12.026
REMARK INTER:                 -11.062
REMARK INTRA:                  -0.964
REMARK UNBOUND:                -1.005
REMARK  Name = 
REMARK  8 active torsions:
REMARK  status: ('A' for Active; 'I' for Inactive)
REMARK    1  A    between atoms: C_2  and  O_3
REMARK    2  A    between atoms: C_2  and  C_20
REMARK    3  A    between atoms: O_3  and  C_4
REMARK    4  A    between atoms: C_4  and  C_5
REMARK    5  A    between atoms: C_8  and  C_9
REMARK    6  A    between atoms: C_9  and  N_10
REMARK    7  A    between atoms: N_10  and  C_11
REMARK    8  A    between atoms: C_11  and  C_12
REMARK                            x       y       z     vdW  Elec       q    Type
REMARK                         _______ _______ _______ _____ _____    ______ ____
ROOT
ATOM      1  C   UNL     1      46.810   6.224  12.926  0.00  0.00    +0.000 A 
ATOM      2  C   UNL     1      46.249   4.958  13.128  0.00  0.00    +0.000 A 
ATOM      3  C   UNL     1      45.235   4.488  12.289  0.00  0.00    +0.000 A 
ATOM      4  C   UNL     1      44.757   5.275  11.230  0.00  0.00    +0.000 A 
ATOM      5  C   UNL     1      45.322   6.539  11.025  0.00  0.00    +0.000 A 
ATOM      6  C   UNL     1      46.333   7.009  11.867  0.00  0.00    +0.000 A 
ENDROOT
BRANCH   1   7
ATOM      7  C   UNL     1      47.903   6.735  13.831  0.00  0.00    +0.000 C 
BRANCH   7   8
ATOM      8  O   UNL     1      48.271   5.754  14.808  0.00  0.00    +0.000 OA
BRANCH   8  10
ATOM      9  O   UNL     1      50.127   6.857  15.567  0.00  0.00    +0.000 OA
ATOM     10  C   UNL     1      49.126   6.178  15.772  0.00  0.00    +0.000 C 
BRANCH  10  11
ATOM     11  C   UNL     1      48.799   5.658  17.098  0.00  0.00    +0.000 A 
ATOM     12  C   UNL     1      48.962   4.311  17.390  0.00  0.00    +0.000 A 
ATOM     13  S   UNL     1      48.502   3.906  18.983  0.00  0.00    +0.000 S 
ATOM     14  C   UNL     1      48.151   5.530  19.353  0.00  0.00    +0.000 A 
ATOM     15  N   UNL     1      47.767   5.891  20.606  0.00  0.00    +0.000 NA
ATOM     16  C   UNL     1      47.597   7.160  20.766  0.00  0.00    +0.000 A 
ATOM     17  N   UNL     1      47.753   8.096  19.779  0.00  0.00    +0.000 N 
ATOM     18  C   UNL     1      48.100   7.780  18.486  0.00  0.00    +0.000 A 
ATOM     19  O   UNL     1      48.209   8.662  17.646  0.00  0.00    +0.000 OA
ATOM     20  C   UNL     1      48.337   6.362  18.266  0.00  0.00    +0.000 A 
ATOM     21  H   UNL     1      47.607   9.078  19.968  0.00  0.00    +0.000 HD
ENDBRANCH  10  11
ENDBRANCH   8  10
ENDBRANCH   7   8
ENDBRANCH   1   7
BRANCH   4  22
ATOM     22  C   UNL     1      43.659   4.763  10.327  0.00  0.00    +0.000 C 
BRANCH  22  23
ATOM     23  N   UNL     1      44.209   4.271   9.064  0.00  0.00    +0.000 NA
ATOM     24  H   UNL     1      45.088   4.753   8.881  0.00  0.00    +0.000 HD
BRANCH  23  25
ATOM     25  C   UNL     1      44.447   2.832   9.106  0.00  0.00    +0.000 C 
BRANCH  25  26
ATOM     26  C   UNL     1      45.666   2.462   8.295  0.00  0.00    +0.000 A 
ATOM     27  C   UNL     1      46.423   3.444   7.648  0.00  0.00    +0.000 A 
ATOM     28  C   UNL     1      47.534   3.054   6.916  0.00  0.00    +0.000 A 
ATOM     29  N   UNL     1      47.938   1.773   6.785  0.00  0.00    +0.000 NA
ATOM     30  C   UNL     1      47.194   0.839   7.416  0.00  0.00    +0.000 A 
ATOM     31  C   UNL     1      46.070   1.129   8.174  0.00  0.00    +0.000 A 
ENDBRANCH  25  26
ENDBRANCH  23  25
ENDBRANCH  22  23
ENDBRANCH   4  22
TORSDOF 8
ENDMDL
MODEL 6
REMARK VINA RESULT:    -7.285      2.939      3.793
REMARK INTER + INTRA:         -11.697
REMARK INTER:                 -10.779
REMARK INTRA:                  -0.918
REMARK UNBOUND:                -1.005
REMARK  Name = 
REMARK  8 active torsions:
REMARK  status: ('A' for Active; 'I' for Inactive)
REMARK    1  A    between atoms: C_2  and  O_3
REMARK    2  A    between atoms: C_2  and  C_20
REMARK    3  A    between atoms: O_3  and  C_4
REMARK    4  A    between atoms: C_4  and  C_5
REMARK    5  A    between atoms: C_8  and  C_9
REMARK    6  A    between atoms: C_9  and  N_10
REMARK    7  A    between atoms: N_10  and  C_11
REMARK    8  A    between atoms: C_11  and  C_12
REMARK                            x       y       z     vdW  Elec       q    Type
REMARK                         _______ _______ _______ _____ _____    ______ ____
ROOT
ATOM      1  C   UNL     1      46.633   4.774  13.832  0.00  0.00    +0.000 A 
ATOM      2  C   UNL     1      45.992   3.706  13.195  0.00  0.00    +0.000 A 
ATOM      3  C   UNL     1      45.359   3.891  11.963  0.00  0.00    +0.000 A 
ATOM      4  C   UNL     1      45.349   5.149  11.342  0.00  0.00    +0.000 A 
ATOM      5  C   UNL     1      45.995   6.216  11.979  0.00  0.00    +0.000 A 
ATOM      6  C   UNL     1      46.625   6.030  13.212  0.00  0.00    +0.000 A 
ENDROOT
BRANCH   1   7
ATOM      7  C   UNL     1      47.316   4.577  15.163  0.00  0.00    +0.000 C 
BRANCH   7   8
ATOM      8  O   UNL     1      48.487   5.396  15.274  0.00  0.00    +0.000 OA
BRANCH   8  10
ATOM      9  O   UNL     1      49.822   4.616  16.962  0.00  0.00    +0.000 OA
ATOM     10  C   UNL     1      49.048   5.453  16.508  0.00  0.00    +0.000 C 
BRANCH  10  11
ATOM     11  C   UNL     1      48.558   6.572  17.309  0.00  0.00    +0.000 A 
ATOM     12  C   UNL     1      47.894   6.349  18.507  0.00  0.00    +0.000 A 
ATOM     13  S   UNL     1      47.384   7.786  19.274  0.00  0.00    +0.000 S 
ATOM     14  C   UNL     1      48.108   8.749  18.071  0.00  0.00    +0.000 A 
ATOM     15  N   UNL     1      48.100  10.105  18.167  0.00  0.00    +0.000 NA
ATOM     16  C   UNL     1      48.740  10.710  17.224  0.00  0.00    +0.000 A 
ATOM     17  N   UNL     1      49.365  10.080  16.181  0.00  0.00    +0.000 N 
ATOM     18  C   UNL     1      49.369   8.715  16.016  0.00  0.00    +0.000 A 
ATOM     19  O   UNL     1      49.935   8.214  15.054  0.00  0.00    +0.000 OA
ATOM     20  C   UNL     1      48.689   7.988  17.075  0.00  0.00    +0.000 A 
ATOM     21  H   UNL     1      49.853  10.611  15.473  0.00  0.00    +0.000 HD
ENDBRANCH  10  11
ENDBRANCH   8  10
ENDBRANCH   7   8
ENDBRANCH   1   7
BRANCH   4  22
ATOM     22  C   UNL     1      44.662   5.346  10.011  0.00  0.00    +0.000 C 
BRANCH  22  23
ATOM     23  N   UNL     1      45.528   4.929   8.909  0.00  0.00    +0.000 NA
ATOM     24  H   UNL     1      46.416   4.608   9.295  0.00  0.00    +0.000 HD
BRANCH  23  25
ATOM     25  C   UNL     1      44.925   3.854   8.128  0.00  0.00    +0.000 C 
BRANCH  25  26
ATOM     26  C   UNL     1      45.986   2.964   7.525  0.00  0.00    +0.000 A 
ATOM     27  C   UNL     1      46.741   3.389   6.427  0.00  0.00    +0.000 A 
ATOM     28  C   UNL     1      47.703   2.534   5.910  0.00  0.00    +0.000 A 
ATOM     29  N   UNL     1      47.963   1.305   6.402  0.00  0.00    +0.000 NA
ATOM     30  C   UNL     1      47.224   0.912   7.462  0.00  0.00    +0.000 A 
ATOM     31  C   UNL     1      46.242   1.694   8.052  0.00  0.00    +0.000 A 
ENDBRANCH  25  26
ENDBRANCH  23  25
ENDBRANCH  22  23
ENDBRANCH   4  22
TORSDOF 8
ENDMDL
MODEL 7
REMARK VINA RESULT:    -7.131      2.345      3.206
REMARK INTER + INTRA:         -11.472
REMARK INTER:                 -10.254
REMARK INTRA:                  -1.218
REMARK UNBOUND:                -1.005
REMARK  Name = 
REMARK  8 active torsions:
REMARK  status: ('A' for Active; 'I' for Inactive)
REMARK    1  A    between atoms: C_2  and  O_3
REMARK    2  A    between atoms: C_2  and  C_20
REMARK    3  A    between atoms: O_3  and  C_4
REMARK    4  A    between atoms: C_4  and  C_5
REMARK    5  A    between atoms: C_8  and  C_9
REMARK    6  A    between atoms: C_9  and  N_10
REMARK    7  A    between atoms: N_10  and  C_11
REMARK    8  A    between atoms: C_11  and  C_12
REMARK                            x       y       z     vdW  Elec       q    Type
REMARK                         _______ _______ _______ _____ _____    ______ ____
ROOT
ATOM      1  C   UNL     1      47.528   7.496  12.981  0.00  0.00    +0.000 A 
ATOM      2  C   UNL     1      47.437   6.187  12.491  0.00  0.00    +0.000 A 
ATOM      3  C   UNL     1      46.219   5.686  12.025  0.00  0.00    +0.000 A 
ATOM      4  C   UNL     1      45.062   6.480  12.042  0.00  0.00    +0.000 A 
ATOM      5  C   UNL     1      45.155   7.790  12.527  0.00  0.00    +0.000 A 
ATOM      6  C   UNL     1      46.373   8.289  12.995  0.00  0.00    +0.000 A 
ENDROOT
BRANCH   1   7
ATOM      7  C   UNL     1      48.841   8.038  13.486  0.00  0.00    +0.000 C 
BRANCH   7   8
ATOM      8  O   UNL     1      49.433   7.158  14.450  0.00  0.00    +0.000 OA
BRANCH   8  10
ATOM      9  O   UNL     1      48.677   8.477  16.160  0.00  0.00    +0.000 OA
ATOM     10  C   UNL     1      49.120   7.412  15.745  0.00  0.00    +0.000 C 
BRANCH  10  11
ATOM     11  C   UNL     1      49.463   6.311  16.643  0.00  0.00    +0.000 A 
ATOM     12  C   UNL     1      50.551   6.407  17.499  0.00  0.00    +0.000 A 
ATOM     13  S   UNL     1      50.792   5.008  18.446  0.00  0.00    +0.000 S 
ATOM     14  C   UNL     1      49.402   4.267  17.800  0.00  0.00    +0.000 A 
ATOM     15  N   UNL     1      48.990   3.051  18.249  0.00  0.00    +0.000 NA
ATOM     16  C   UNL     1      47.887   2.635  17.723  0.00  0.00    +0.000 A 
ATOM     17  N   UNL     1      47.174   3.316  16.772  0.00  0.00    +0.000 N 
ATOM     18  C   UNL     1      47.568   4.528  16.256  0.00  0.00    +0.000 A 
ATOM     19  O   UNL     1      46.894   5.078  15.396  0.00  0.00    +0.000 OA
ATOM     20  C   UNL     1      48.790   5.053  16.844  0.00  0.00    +0.000 A 
ATOM     21  H   UNL     1      46.314   2.937  16.400  0.00  0.00    +0.000 HD
ENDBRANCH  10  11
ENDBRANCH   8  10
ENDBRANCH   7   8
ENDBRANCH   1   7
BRANCH   4  22
ATOM     22  C   UNL     1      43.746   5.933  11.539  0.00  0.00    +0.000 C 
BRANCH  22  23
ATOM     23  N   UNL     1      43.878   5.430  10.172  0.00  0.00    +0.000 NA
ATOM     24  H   UNL     1      44.778   5.731   9.799  0.00  0.00    +0.000 HD
BRANCH  23  25
ATOM     25  C   UNL     1      43.800   3.974  10.126  0.00  0.00    +0.000 C 
BRANCH  25  26
ATOM     26  C   UNL     1      44.830   3.407   9.179  0.00  0.00    +0.000 A 
ATOM     27  C   UNL     1      45.538   4.239   8.306  0.00  0.00    +0.000 A 
ATOM     28  C   UNL     1      46.475   3.670   7.456  0.00  0.00    +0.000 A 
ATOM     29  N   UNL     1      46.752   2.350   7.415  0.00  0.00    +0.000 NA
ATOM     30  C   UNL     1      46.059   1.562   8.266  0.00  0.00    +0.000 A 
ATOM     31  C   UNL     1      45.106   2.036   9.155  0.00  0.00    +0.000 A 
ENDBRANCH  25  26
ENDBRANCH  23  25
ENDBRANCH  22  23
ENDBRANCH   4  22
TORSDOF 8
ENDMDL
MODEL 8
REMARK VINA RESULT:    -6.896      2.298      2.880
REMARK INTER + INTRA:         -11.126
REMARK INTER:                 -10.068
REMARK INTRA:                  -1.058
REMARK UNBOUND:                -1.005
REMARK  Name = 
REMARK  8 active torsions:
REMARK  status: ('A' for Active; 'I' for Inactive)
REMARK    1  A    between atoms: C_2  and  O_3
REMARK    2  A    between atoms: C_2  and  C_20
REMARK    3  A    between atoms: O_3  and  C_4
REMARK    4  A    between atoms: C_4  and  C_5
REMARK    5  A    between atoms: C_8  and  C_9
REMARK    6  A    between atoms: C_9  and  N_10
REMARK    7  A    between atoms: N_10  and  C_11
REMARK    8  A    between atoms: C_11  and  C_12
REMARK                            x       y       z     vdW  Elec       q    Type
REMARK                         _______ _______ _______ _____ _____    ______ ____
ROOT
ATOM      1  C   UNL     1      47.857   7.679  13.837  0.00  0.00    +0.000 A 
ATOM      2  C   UNL     1      47.908   6.405  13.259  0.00  0.00    +0.000 A 
ATOM      3  C   UNL     1      46.852   5.939  12.471  0.00  0.00    +0.000 A 
ATOM      4  C   UNL     1      45.719   6.735  12.245  0.00  0.00    +0.000 A 
ATOM      5  C   UNL     1      45.670   8.011  12.820  0.00  0.00    +0.000 A 
ATOM      6  C   UNL     1      46.725   8.474  13.610  0.00  0.00    +0.000 A 
ENDROOT
BRANCH   1   7
ATOM      7  C   UNL     1      48.993   8.183  14.689  0.00  0.00    +0.000 C 
BRANCH   7   8
ATOM      8  O   UNL     1      49.618   7.114  15.412  0.00  0.00    +0.000 OA
BRANCH   8  10
ATOM      9  O   UNL     1      48.675   7.608  17.437  0.00  0.00    +0.000 OA
ATOM     10  C   UNL     1      49.043   6.794  16.597  0.00  0.00    +0.000 C 
BRANCH  10  11
ATOM     11  C   UNL     1      48.991   5.353  16.838  0.00  0.00    +0.000 A 
ATOM     12  C   UNL     1      47.804   4.651  16.681  0.00  0.00    +0.000 A 
ATOM     13  S   UNL     1      47.952   2.987  17.033  0.00  0.00    +0.000 S 
ATOM     14  C   UNL     1      49.622   3.142  17.323  0.00  0.00    +0.000 A 
ATOM     15  N   UNL     1      50.383   2.052  17.608  0.00  0.00    +0.000 NA
ATOM     16  C   UNL     1      51.642   2.301  17.740  0.00  0.00    +0.000 A 
ATOM     17  N   UNL     1      52.204   3.546  17.637  0.00  0.00    +0.000 N 
ATOM     18  C   UNL     1      51.475   4.686  17.391  0.00  0.00    +0.000 A 
ATOM     19  O   UNL     1      52.034   5.771  17.325  0.00  0.00    +0.000 OA
ATOM     20  C   UNL     1      50.053   4.449  17.200  0.00  0.00    +0.000 A 
ATOM     21  H   UNL     1      53.200   3.676  17.749  0.00  0.00    +0.000 HD
ENDBRANCH  10  11
ENDBRANCH   8  10
ENDBRANCH   7   8
ENDBRANCH   1   7
BRANCH   4  22
ATOM     22  C   UNL     1      44.578   6.226  11.394  0.00  0.00    +0.000 C 
BRANCH  22  23
ATOM     23  N   UNL     1      45.075   5.657  10.142  0.00  0.00    +0.000 NA
ATOM     24  H   UNL     1      46.073   5.468  10.242  0.00  0.00    +0.000 HD
BRANCH  23  25
ATOM     25  C   UNL     1      44.382   4.420   9.801  0.00  0.00    +0.000 C 
BRANCH  25  26
ATOM     26  C   UNL     1      45.237   3.548   8.913  0.00  0.00    +0.000 A 
ATOM     27  C   UNL     1      46.027   4.107   7.903  0.00  0.00    +0.000 A 
ATOM     28  C   UNL     1      46.795   3.264   7.115  0.00  0.00    +0.000 A 
ATOM     29  N   UNL     1      46.832   1.923   7.259  0.00  0.00    +0.000 NA
ATOM     30  C   UNL     1      46.063   1.401   8.238  0.00  0.00    +0.000 A 
ATOM     31  C   UNL     1      45.264   2.160   9.081  0.00  0.00    +0.000 A 
ENDBRANCH  25  26
ENDBRANCH  23  25
ENDBRANCH  22  23
ENDBRANCH   4  22
TORSDOF 8
ENDMDL
MODEL 9
REMARK VINA RESULT:    -6.876      3.717      8.846
REMARK INTER + INTRA:         -11.097
REMARK INTER:                  -9.517
REMARK INTRA:                  -1.580
REMARK UNBOUND:                -1.005
REMARK  Name = 
REMARK  8 active torsions:
REMARK  status: ('A' for Active; 'I' for Inactive)
REMARK    1  A    between atoms: C_2  and  O_3
REMARK    2  A    between atoms: C_2  and  C_20
REMARK    3  A    between atoms: O_3  and  C_4
REMARK    4  A    between atoms: C_4  and  C_5
REMARK    5  A    between atoms: C_8  and  C_9
REMARK    6  A    between atoms: C_9  and  N_10
REMARK    7  A    between atoms: N_10  and  C_11
REMARK    8  A    between atoms: C_11  and  C_12
REMARK                            x       y       z     vdW  Elec       q    Type
REMARK                         _______ _______ _______ _____ _____    ______ ____
ROOT
ATOM      1  C   UNL     1      48.449   7.941  13.549  0.00  0.00    +0.000 A 
ATOM      2  C   UNL     1      47.804   8.899  14.340  0.00  0.00    +0.000 A 
ATOM      3  C   UNL     1      47.973   8.906  15.727  0.00  0.00    +0.000 A 
ATOM      4  C   UNL     1      48.787   7.952  16.356  0.00  0.00    +0.000 A 
ATOM      5  C   UNL     1      49.435   6.996  15.564  0.00  0.00    +0.000 A 
ATOM      6  C   UNL     1      49.263   6.989  14.177  0.00  0.00    +0.000 A 
ENDROOT
BRANCH   1   7
ATOM      7  C   UNL     1      48.267   7.930  12.052  0.00  0.00    +0.000 C 
BRANCH   7   8
ATOM      8  O   UNL     1      47.575   6.752  11.619  0.00  0.00    +0.000 OA
BRANCH   8  10
ATOM      9  O   UNL     1      45.588   7.885  11.712  0.00  0.00    +0.000 OA
ATOM     10  C   UNL     1      46.250   6.907  11.376  0.00  0.00    +0.000 C 
BRANCH  10  11
ATOM     11  C   UNL     1      45.640   5.734  10.754  0.00  0.00    +0.000 A 
ATOM     12  C   UNL     1      45.862   5.447   9.414  0.00  0.00    +0.000 A 
ATOM     13  S   UNL     1      45.042   4.049   8.879  0.00  0.00    +0.000 S 
ATOM     14  C   UNL     1      44.434   3.742  10.439  0.00  0.00    +0.000 A 
ATOM     15  N   UNL     1      43.696   2.629  10.691  0.00  0.00    +0.000 NA
ATOM     16  C   UNL     1      43.354   2.484  11.927  0.00  0.00    +0.000 A 
ATOM     17  N   UNL     1      43.666   3.367  12.928  0.00  0.00    +0.000 N 
ATOM     18  C   UNL     1      44.375   4.526  12.719  0.00  0.00    +0.000 A 
ATOM     19  O   UNL     1      44.609   5.280  13.653  0.00  0.00    +0.000 OA
ATOM     20  C   UNL     1      44.812   4.714  11.345  0.00  0.00    +0.000 A 
ATOM     21  H   UNL     1      43.371   3.196  13.879  0.00  0.00    +0.000 HD
ENDBRANCH  10  11
ENDBRANCH   8  10
ENDBRANCH   7   8
ENDBRANCH   1   7
BRANCH   4  22
ATOM     22  C   UNL     1      48.964   7.961  17.857  0.00  0.00    +0.000 C 
BRANCH  22  23
ATOM     23  N   UNL     1      47.891   7.216  18.514  0.00  0.00    +0.000 NA
ATOM     24  H   UNL     1      47.221   6.915  17.806  0.00  0.00    +0.000 HD
BRANCH  23  25
ATOM     25  C   UNL     1      48.403   6.047  19.221  0.00  0.00    +0.000 C 
BRANCH  25  26
ATOM     26  C   UNL     1      48.497   4.856  18.297  0.00  0.00    +0.000 A 
ATOM     27  C   UNL     1      47.432   4.509  17.460  0.00  0.00    +0.000 A 
ATOM     28  C   UNL     1      47.568   3.407  16.631  0.00  0.00    +0.000 A 
ATOM     29  N   UNL     1      48.673   2.636  16.576  0.00  0.00    +0.000 NA
ATOM     30  C   UNL     1      49.692   2.985  17.392  0.00  0.00    +0.000 A 
ATOM     31  C   UNL     1      49.654   4.071  18.253  0.00  0.00    +0.000 A 
ENDBRANCH  25  26
ENDBRANCH  23  25
ENDBRANCH  22  23
ENDBRANCH   4  22
TORSDOF 8
ENDMDL
