MODEL 1
REMARK VINA RESULT:    -8.927      0.000      0.000
REMARK INTER + INTRA:         -11.528
REMARK INTER:                 -11.014
REMARK INTRA:                  -0.514
REMARK UNBOUND:                -0.514
REMARK  Name = 
REMARK  4 active torsions:
REMARK  status: ('A' for Active; 'I' for Inactive)
REMARK    1  A    between atoms: C_2  and  C_4
REMARK    2  A    between atoms: C_7  and  O_8
REMARK    3  A    between atoms: O_8  and  C_9
REMARK    4  A    between atoms: C_9  and  C_10
REMARK                            x       y       z     vdW  Elec       q    Type
REMARK                         _______ _______ _______ _____ _____    ______ ____
ROOT
ATOM      1  C   UNL     1      43.650   3.003  11.473  0.00  0.00    +0.000 C 
ENDROOT
BRANCH   1   2
ATOM      2  C   UNL     1      44.696   3.698  12.306  0.00  0.00    +0.000 A 
ATOM      3  C   UNL     1      44.673   5.075  12.461  0.00  0.00    +0.000 A 
ATOM      4  C   UNL     1      45.642   5.668  13.258  0.00  0.00    +0.000 A 
ATOM      5  C   UNL     1      46.614   4.902  13.890  0.00  0.00    +0.000 A 
ATOM      6  N   UNL     1      47.503   5.528  14.744  0.00  0.00    +0.000 N 
ATOM      7  C   UNL     1      48.182   4.759  15.788  0.00  0.00    +0.000 C 
ATOM      8  C   UNL     1      48.501   5.752  16.928  0.00  0.00    +0.000 C 
ATOM      9  O   UNL     1      49.300   6.862  16.465  0.00  0.00    +0.000 OA
ATOM     10  C   UNL     1      48.644   7.561  15.390  0.00  0.00    +0.000 C 
ATOM     11  C   UNL     1      48.336   6.617  14.217  0.00  0.00    +0.000 C 
ATOM     12  N   UNL     1      46.590   3.563  13.728  0.00  0.00    +0.000 NA
ATOM     13  N   UNL     1      45.638   2.957  12.921  0.00  0.00    +0.000 NA
ENDBRANCH   1   2
BRANCH   1  14
ATOM     14  O   UNL     1      43.544   3.653  10.205  0.00  0.00    +0.000 OA
BRANCH  14  18
ATOM     15  C   UNL     1      46.583   2.627   7.532  0.00  0.00    +0.000 A 
ATOM     16  C   UNL     1      46.224   3.976   7.648  0.00  0.00    +0.000 A 
ATOM     17  C   UNL     1      45.204   4.363   8.527  0.00  0.00    +0.000 A 
ATOM     18  C   UNL     1      44.538   3.407   9.296  0.00  0.00    +0.000 A 
ATOM     19  C   UNL     1      44.886   2.060   9.164  0.00  0.00    +0.000 A 
ATOM     20  C   UNL     1      45.898   1.667   8.280  0.00  0.00    +0.000 A 
BRANCH  15  22
ATOM     21  N   UNL     1      47.901   2.943   5.505  0.00  0.00    +0.000 N 
ATOM     22  C   UNL     1      47.665   2.178   6.616  0.00  0.00    +0.000 C 
ATOM     23  O   UNL     1      48.348   1.193   6.859  0.00  0.00    +0.000 OA
ATOM     24  H   UNL     1      48.716   2.698   4.964  0.00  0.00    +0.000 HD
ATOM     25  H   UNL     1      47.553   3.891   5.425  0.00  0.00    +0.000 HD
ENDBRANCH  15  22
ENDBRANCH  14  18
ENDBRANCH   1  14
TORSDOF 4
ENDMDL
MODEL 2
REMARK VINA RESULT:    -8.337      1.273      1.770
REMARK INTER + INTRA:         -10.801
REMARK INTER:                 -10.211
REMARK INTRA:                  -0.590
REMARK UNBOUND:                -0.514
REMARK  Name = 
REMARK  4 active torsions:
REMARK  status: ('A' for Active; 'I' for Inactive)
REMARK    1  A    between atoms: C_2  and  C_4
REMARK    2  A    between atoms: C_7  and  O_8
REMARK    3  A    between atoms: O_8  and  C_9
REMARK    4  A    between atoms: C_9  and  C_10
REMARK                            x       y       z     vdW  Elec       q    Type
REMARK                         _______ _______ _______ _____ _____    ______ ____
ROOT
ATOM      1  C   UNL     1      43.798   3.097  11.800  0.00  0.00    +0.000 C 
ENDROOT
BRANCH   1   2
ATOM      2  C   UNL     1      44.831   4.022  12.391  0.00  0.00    +0.000 A 
ATOM      3  C   UNL     1      46.036   3.525  12.860  0.00  0.00    +0.000 A 
ATOM      4  C   UNL     1      46.967   4.418  13.371  0.00  0.00    +0.000 A 
ATOM      5  C   UNL     1      46.702   5.781  13.414  0.00  0.00    +0.000 A 
ATOM      6  N   UNL     1      47.694   6.639  13.850  0.00  0.00    +0.000 N 
ATOM      7  C   UNL     1      47.673   8.047  13.452  0.00  0.00    +0.000 C 
ATOM      8  C   UNL     1      49.141   8.530  13.470  0.00  0.00    +0.000 C 
ATOM      9  O   UNL     1      49.753   8.341  14.764  0.00  0.00    +0.000 OA
ATOM     10  C   UNL     1      49.698   6.959  15.167  0.00  0.00    +0.000 C 
ATOM     11  C   UNL     1      48.250   6.444  15.195  0.00  0.00    +0.000 C 
ATOM     12  N   UNL     1      45.523   6.227  12.931  0.00  0.00    +0.000 NA
ATOM     13  N   UNL     1      44.576   5.345  12.431  0.00  0.00    +0.000 NA
ENDBRANCH   1   2
BRANCH   1  14
ATOM     14  O   UNL     1      43.482   3.525  10.474  0.00  0.00    +0.000 OA
BRANCH  14  18
ATOM     15  C   UNL     1      46.434   2.693   7.641  0.00  0.00    +0.000 A 
ATOM     16  C   UNL     1      46.053   4.027   7.835  0.00  0.00    +0.000 A 
ATOM     17  C   UNL     1      45.060   4.349   8.770  0.00  0.00    +0.000 A 
ATOM     18  C   UNL     1      44.444   3.343   9.517  0.00  0.00    +0.000 A 
ATOM     19  C   UNL     1      44.814   2.012   9.308  0.00  0.00    +0.000 A 
ATOM     20  C   UNL     1      45.799   1.684   8.369  0.00  0.00    +0.000 A 
BRANCH  15  22
ATOM     21  N   UNL     1      47.530   3.008   5.486  0.00  0.00    +0.000 N 
ATOM     22  C   UNL     1      47.489   2.312   6.665  0.00  0.00    +0.000 C 
ATOM     23  O   UNL     1      48.315   1.444   6.913  0.00  0.00    +0.000 OA
ATOM     24  H   UNL     1      48.324   2.825   4.892  0.00  0.00    +0.000 HD
ATOM     25  H   UNL     1      47.054   3.895   5.372  0.00  0.00    +0.000 HD
ENDBRANCH  15  22
ENDBRANCH  14  18
ENDBRANCH   1  14
TORSDOF 4
ENDMDL
MODEL 3
REMARK VINA RESULT:    -6.482      3.787      8.533
REMARK INTER + INTRA:          -8.511
REMARK INTER:                  -8.191
REMARK INTRA:                  -0.320
REMARK UNBOUND:                -0.514
REMARK  Name = 
REMARK  4 active torsions:
REMARK  status: ('A' for Active; 'I' for Inactive)
REMARK    1  A    between atoms: C_2  and  C_4
REMARK    2  A    between atoms: C_7  and  O_8
REMARK    3  A    between atoms: O_8  and  C_9
REMARK    4  A    between atoms: C_9  and  C_10
REMARK                            x       y       z     vdW  Elec       q    Type
REMARK                         _______ _______ _______ _____ _____    ______ ____
ROOT
ATOM      1  C   UNL     1      49.386   5.653  16.803  0.00  0.00    +0.000 C 
ENDROOT
BRANCH   1   2
ATOM      2  C   UNL     1      48.341   5.451  15.736  0.00  0.00    +0.000 A 
ATOM      3  C   UNL     1      48.183   6.379  14.719  0.00  0.00    +0.000 A 
ATOM      4  C   UNL     1      47.225   6.138  13.744  0.00  0.00    +0.000 A 
ATOM      5  C   UNL     1      46.440   4.993  13.782  0.00  0.00    +0.000 A 
ATOM      6  N   UNL     1      45.562   4.754  12.741  0.00  0.00    +0.000 N 
ATOM      7  C   UNL     1      45.108   3.390  12.463  0.00  0.00    +0.000 C 
ATOM      8  C   UNL     1      44.768   3.339  10.957  0.00  0.00    +0.000 C 
ATOM      9  O   UNL     1      43.777   4.325  10.596  0.00  0.00    +0.000 OA
ATOM     10  C   UNL     1      44.215   5.653  10.944  0.00  0.00    +0.000 C 
ATOM     11  C   UNL     1      44.534   5.760  12.444  0.00  0.00    +0.000 C 
ATOM     12  N   UNL     1      46.638   4.105  14.778  0.00  0.00    +0.000 NA
ATOM     13  N   UNL     1      47.580   4.339  15.768  0.00  0.00    +0.000 NA
ENDBRANCH   1   2
BRANCH   1  14
ATOM     14  O   UNL     1      49.332   4.568  17.730  0.00  0.00    +0.000 OA
BRANCH  14  18
ATOM     15  C   UNL     1      52.361   1.695  17.686  0.00  0.00    +0.000 A 
ATOM     16  C   UNL     1      52.689   3.003  18.062  0.00  0.00    +0.000 A 
ATOM     17  C   UNL     1      51.705   4.000  18.082  0.00  0.00    +0.000 A 
ATOM     18  C   UNL     1      50.388   3.696  17.729  0.00  0.00    +0.000 A 
ATOM     19  C   UNL     1      50.069   2.394  17.337  0.00  0.00    +0.000 A 
ATOM     20  C   UNL     1      51.050   1.397  17.306  0.00  0.00    +0.000 A 
BRANCH  15  22
ATOM     21  N   UNL     1      53.121  -0.504  18.417  0.00  0.00    +0.000 N 
ATOM     22  C   UNL     1      53.376   0.608  17.659  0.00  0.00    +0.000 C 
ATOM     23  O   UNL     1      54.377   0.677  16.959  0.00  0.00    +0.000 OA
ATOM     24  H   UNL     1      53.752  -1.279  18.291  0.00  0.00    +0.000 HD
ATOM     25  H   UNL     1      52.196  -0.706  18.775  0.00  0.00    +0.000 HD
ENDBRANCH  15  22
ENDBRANCH  14  18
ENDBRANCH   1  14
TORSDOF 4
ENDMDL
MODEL 4
REMARK VINA RESULT:    -6.230      3.105      8.410
REMARK INTER + INTRA:          -8.201
REMARK INTER:                  -8.294
REMARK INTRA:                   0.094
REMARK UNBOUND:                -0.514
REMARK  Name = 
REMARK  4 active torsions:
REMARK  status: ('A' for Active; 'I' for Inactive)
REMARK    1  A    between atoms: C_2  and  C_4
REMARK    2  A    between atoms: C_7  and  O_8
REMARK    3  A    between atoms: O_8  and  C_9
REMARK    4  A    between atoms: C_9  and  C_10
REMARK                            x       y       z     vdW  Elec       q    Type
REMARK                         _______ _______ _______ _____ _____    ______ ____
ROOT
ATOM      1  C   UNL     1      49.305   6.587  15.673  0.00  0.00    +0.000 C 
ENDROOT
BRANCH   1   2
ATOM      2  C   UNL     1      48.148   6.120  14.828  0.00  0.00    +0.000 A 
ATOM      3  C   UNL     1      47.612   6.943  13.851  0.00  0.00    +0.000 A 
ATOM      4  C   UNL     1      46.564   6.460  13.079  0.00  0.00    +0.000 A 
ATOM      5  C   UNL     1      46.061   5.180  13.278  0.00  0.00    +0.000 A 
ATOM      6  N   UNL     1      45.078   4.712  12.427  0.00  0.00    +0.000 N 
ATOM      7  C   UNL     1      44.881   3.272  12.255  0.00  0.00    +0.000 C 
ATOM      8  C   UNL     1      44.287   3.075  10.842  0.00  0.00    +0.000 C 
ATOM      9  O   UNL     1      43.059   3.816  10.668  0.00  0.00    +0.000 OA
ATOM     10  C   UNL     1      43.262   5.221  10.911  0.00  0.00    +0.000 C 
ATOM     11  C   UNL     1      43.822   5.467  12.321  0.00  0.00    +0.000 C 
ATOM     12  N   UNL     1      46.624   4.404  14.228  0.00  0.00    +0.000 NA
ATOM     13  N   UNL     1      47.661   4.878  15.017  0.00  0.00    +0.000 NA
ENDBRANCH   1   2
BRANCH   1  14
ATOM     14  O   UNL     1      49.187   6.035  16.985  0.00  0.00    +0.000 OA
BRANCH  14  18
ATOM     15  C   UNL     1      51.539   2.661  17.706  0.00  0.00    +0.000 A 
ATOM     16  C   UNL     1      50.151   2.499  17.614  0.00  0.00    +0.000 A 
ATOM     17  C   UNL     1      49.324   3.606  17.381  0.00  0.00    +0.000 A 
ATOM     18  C   UNL     1      49.877   4.880  17.238  0.00  0.00    +0.000 A 
ATOM     19  C   UNL     1      51.261   5.040  17.349  0.00  0.00    +0.000 A 
ATOM     20  C   UNL     1      52.090   3.939  17.590  0.00  0.00    +0.000 A 
BRANCH  15  22
ATOM     21  N   UNL     1      51.875   0.272  18.059  0.00  0.00    +0.000 N 
ATOM     22  C   UNL     1      52.449   1.510  17.945  0.00  0.00    +0.000 C 
ATOM     23  O   UNL     1      53.664   1.648  17.995  0.00  0.00    +0.000 OA
ATOM     24  H   UNL     1      52.512  -0.509  18.094  0.00  0.00    +0.000 HD
ATOM     25  H   UNL     1      50.928   0.091  17.750  0.00  0.00    +0.000 HD
ENDBRANCH  15  22
ENDBRANCH  14  18
ENDBRANCH   1  14
TORSDOF 4
ENDMDL
MODEL 5
REMARK VINA RESULT:    -6.060      3.105      4.827
REMARK INTER + INTRA:          -7.991
REMARK INTER:                  -7.570
REMARK INTRA:                  -0.421
REMARK UNBOUND:                -0.514
REMARK  Name = 
REMARK  4 active torsions:
REMARK  status: ('A' for Active; 'I' for Inactive)
REMARK    1  A    between atoms: C_2  and  C_4
REMARK    2  A    between atoms: C_7  and  O_8
REMARK    3  A    between atoms: O_8  and  C_9
REMARK    4  A    between atoms: C_9  and  C_10
REMARK                            x       y       z     vdW  Elec       q    Type
REMARK                         _______ _______ _______ _____ _____    ______ ____
ROOT
ATOM      1  C   UNL     1      47.679   7.866  12.624  0.00  0.00    +0.000 C 
ENDROOT
BRANCH   1   2
ATOM      2  C   UNL     1      48.179   7.503  13.999  0.00  0.00    +0.000 A 
ATOM      3  C   UNL     1      48.279   8.467  14.988  0.00  0.00    +0.000 A 
ATOM      4  C   UNL     1      48.720   8.082  16.247  0.00  0.00    +0.000 A 
ATOM      5  C   UNL     1      49.053   6.760  16.513  0.00  0.00    +0.000 A 
ATOM      6  N   UNL     1      49.401   6.409  17.804  0.00  0.00    +0.000 N 
ATOM      7  C   UNL     1      49.265   5.021  18.248  0.00  0.00    +0.000 C 
ATOM      8  C   UNL     1      49.044   5.069  19.777  0.00  0.00    +0.000 C 
ATOM      9  O   UNL     1      50.120   5.753  20.454  0.00  0.00    +0.000 OA
ATOM     10  C   UNL     1      50.282   7.093  19.951  0.00  0.00    +0.000 C 
ATOM     11  C   UNL     1      50.538   7.092  18.435  0.00  0.00    +0.000 C 
ATOM     12  N   UNL     1      48.923   5.848  15.526  0.00  0.00    +0.000 NA
ATOM     13  N   UNL     1      48.499   6.221  14.260  0.00  0.00    +0.000 NA
ENDBRANCH   1   2
BRANCH   1  14
ATOM     14  O   UNL     1      46.253   7.779  12.599  0.00  0.00    +0.000 OA
BRANCH  14  18
ATOM     15  C   UNL     1      44.546   4.192  11.315  0.00  0.00    +0.000 A 
ATOM     16  C   UNL     1      45.178   5.006  10.367  0.00  0.00    +0.000 A 
ATOM     17  C   UNL     1      45.756   6.222  10.754  0.00  0.00    +0.000 A 
ATOM     18  C   UNL     1      45.709   6.631  12.088  0.00  0.00    +0.000 A 
ATOM     19  C   UNL     1      45.062   5.824  13.028  0.00  0.00    +0.000 A 
ATOM     20  C   UNL     1      44.474   4.613  12.645  0.00  0.00    +0.000 A 
BRANCH  15  22
ATOM     21  N   UNL     1      44.512   2.188   9.926  0.00  0.00    +0.000 N 
ATOM     22  C   UNL     1      43.927   2.891  10.945  0.00  0.00    +0.000 C 
ATOM     23  O   UNL     1      42.961   2.441  11.547  0.00  0.00    +0.000 OA
ATOM     24  H   UNL     1      44.160   1.256   9.773  0.00  0.00    +0.000 HD
ATOM     25  H   UNL     1      45.451   2.392   9.606  0.00  0.00    +0.000 HD
ENDBRANCH  15  22
ENDBRANCH  14  18
ENDBRANCH   1  14
TORSDOF 4
ENDMDL
MODEL 6
REMARK VINA RESULT:    -6.007      3.223      8.805
REMARK INTER + INTRA:          -7.926
REMARK INTER:                  -7.513
REMARK INTRA:                  -0.413
REMARK UNBOUND:                -0.514
REMARK  Name = 
REMARK  4 active torsions:
REMARK  status: ('A' for Active; 'I' for Inactive)
REMARK    1  A    between atoms: C_2  and  C_4
REMARK    2  A    between atoms: C_7  and  O_8
REMARK    3  A    between atoms: O_8  and  C_9
REMARK    4  A    between atoms: C_9  and  C_10
REMARK                            x       y       z     vdW  Elec       q    Type
REMARK                         _______ _______ _______ _____ _____    ______ ____
ROOT
ATOM      1  C   UNL     1      49.623   7.751  14.285  0.00  0.00    +0.000 C 
ENDROOT
BRANCH   1   2
ATOM      2  C   UNL     1      48.385   7.030  13.819  0.00  0.00    +0.000 A 
ATOM      3  C   UNL     1      47.308   7.736  13.307  0.00  0.00    +0.000 A 
ATOM      4  C   UNL     1      46.200   7.026  12.865  0.00  0.00    +0.000 A 
ATOM      5  C   UNL     1      46.167   5.639  12.932  0.00  0.00    +0.000 A 
ATOM      6  N   UNL     1      45.079   4.973  12.399  0.00  0.00    +0.000 N 
ATOM      7  C   UNL     1      45.205   3.575  11.985  0.00  0.00    +0.000 C 
ATOM      8  C   UNL     1      44.163   3.352  10.867  0.00  0.00    +0.000 C 
ATOM      9  O   UNL     1      42.825   3.669  11.308  0.00  0.00    +0.000 OA
ATOM     10  C   UNL     1      42.742   5.028  11.776  0.00  0.00    +0.000 C 
ATOM     11  C   UNL     1      43.741   5.288  12.916  0.00  0.00    +0.000 C 
ATOM     12  N   UNL     1      47.243   4.988  13.420  0.00  0.00    +0.000 NA
ATOM     13  N   UNL     1      48.351   5.684  13.880  0.00  0.00    +0.000 NA
ENDBRANCH   1   2
BRANCH   1  14
ATOM     14  O   UNL     1      49.415   8.241  15.611  0.00  0.00    +0.000 OA
BRANCH  14  18
ATOM     15  C   UNL     1      49.132   5.577  18.814  0.00  0.00    +0.000 A 
ATOM     16  C   UNL     1      50.165   5.396  17.885  0.00  0.00    +0.000 A 
ATOM     17  C   UNL     1      50.291   6.262  16.791  0.00  0.00    +0.000 A 
ATOM     18  C   UNL     1      49.389   7.314  16.619  0.00  0.00    +0.000 A 
ATOM     19  C   UNL     1      48.350   7.480  17.537  0.00  0.00    +0.000 A 
ATOM     20  C   UNL     1      48.214   6.613  18.627  0.00  0.00    +0.000 A 
BRANCH  15  22
ATOM     21  N   UNL     1      48.539   3.407  19.753  0.00  0.00    +0.000 N 
ATOM     22  C   UNL     1      48.970   4.684  19.992  0.00  0.00    +0.000 C 
ATOM     23  O   UNL     1      49.248   5.054  21.125  0.00  0.00    +0.000 OA
ATOM     24  H   UNL     1      48.555   2.780  20.542  0.00  0.00    +0.000 HD
ATOM     25  H   UNL     1      48.570   2.996  18.828  0.00  0.00    +0.000 HD
ENDBRANCH  15  22
ENDBRANCH  14  18
ENDBRANCH   1  14
TORSDOF 4
ENDMDL
