MODEL 1
REMARK VINA RESULT:    -7.455      0.000      0.000
REMARK INTER + INTRA:         -11.238
REMARK INTER:                 -10.070
REMARK INTRA:                  -1.168
REMARK UNBOUND:                -1.168
REMARK  Name = 
REMARK  8 active torsions:
REMARK  status: ('A' for Active; 'I' for Inactive)
REMARK    1  A    between atoms: C_1  and  C_2
REMARK    2  A    between atoms: C_2  and  N_3
REMARK    3  A    between atoms: C_2  and  C_17
REMARK    4  A    between atoms: C_4  and  C_6
REMARK    5  A    between atoms: N_12  and  C_13
REMARK    6  A    between atoms: C_20  and  C_21
REMARK    7  A    between atoms: C_21  and  N_22
REMARK    8  A    between atoms: C_23  and  C_25
REMARK                            x       y       z     vdW  Elec       q    Type
REMARK                         _______ _______ _______ _____ _____    ______ ____
ROOT
ATOM      1  C   UNL     1      47.526   3.368  15.248  0.00  0.00    +0.000 C 
ATOM      2  C   UNL     1      46.943   4.767  15.010  0.00  0.00    +0.000 C 
ENDROOT
BRANCH   2   3
ATOM      3  C   UNL     1      46.000   4.717  13.804  0.00  0.00    +0.000 A 
ATOM      4  C   UNL     1      45.502   5.894  13.238  0.00  0.00    +0.000 A 
ATOM      5  C   UNL     1      44.745   5.832  12.070  0.00  0.00    +0.000 A 
ATOM      6  C   UNL     1      44.508   4.598  11.470  0.00  0.00    +0.000 A 
ATOM      7  C   UNL     1      44.989   3.472  12.128  0.00  0.00    +0.000 A 
ATOM      8  N   UNL     1      45.719   3.503  13.269  0.00  0.00    +0.000 NA
BRANCH   6   9
ATOM      9  C   UNL     1      43.768   4.489  10.171  0.00  0.00    +0.000 C 
BRANCH   9  10
ATOM     10  N   UNL     1      44.489   3.694   9.214  0.00  0.00    +0.000 N 
ATOM     11  C   UNL     1      45.590   4.187   8.543  0.00  0.00    +0.000 C 
ATOM     12  O   UNL     1      45.991   5.334   8.725  0.00  0.00    +0.000 OA
ATOM     13  H   UNL     1      44.235   2.726   9.070  0.00  0.00    +0.000 HD
BRANCH  11  14
ATOM     14  C   UNL     1      46.227   3.255   7.620  0.00  0.00    +0.000 A 
ATOM     15  C   UNL     1      46.748   3.540   6.369  0.00  0.00    +0.000 A 
ATOM     16  C   UNL     1      47.293   2.391   5.725  0.00  0.00    +0.000 A 
ATOM     17  C   UNL     1      47.169   1.261   6.499  0.00  0.00    +0.000 A 
ATOM     18  S   UNL     1      46.409   1.587   7.993  0.00  0.00    +0.000 S 
ENDBRANCH  11  14
ENDBRANCH   9  10
ENDBRANCH   6   9
ENDBRANCH   2   3
BRANCH   2  19
ATOM     19  N   UNL     1      47.984   5.769  14.821  0.00  0.00    +0.000 N 
ATOM     20  C   UNL     1      48.661   6.388  15.837  0.00  0.00    +0.000 C 
ATOM     21  O   UNL     1      48.380   6.225  17.020  0.00  0.00    +0.000 OA
ATOM     22  H   UNL     1      48.287   5.923  13.867  0.00  0.00    +0.000 HD
BRANCH  20  23
ATOM     23  C   UNL     1      49.749   7.292  15.426  0.00  0.00    +0.000 A 
ATOM     24  C   UNL     1      51.053   7.038  15.825  0.00  0.00    +0.000 A 
ATOM     25  S   UNL     1      52.176   8.193  15.262  0.00  0.00    +0.000 S 
ATOM     26  C   UNL     1      50.964   9.044  14.421  0.00  0.00    +0.000 A 
ATOM     27  N   UNL     1      51.262  10.147  13.689  0.00  0.00    +0.000 NA
ATOM     28  C   UNL     1      50.251  10.678  13.079  0.00  0.00    +0.000 A 
ATOM     29  N   UNL     1      48.953  10.218  13.133  0.00  0.00    +0.000 N 
ATOM     30  C   UNL     1      47.889  10.897  12.422  0.00  0.00    +0.000 C 
ATOM     31  C   UNL     1      48.611   9.111  13.897  0.00  0.00    +0.000 A 
ATOM     32  O   UNL     1      47.451   8.721  14.001  0.00  0.00    +0.000 OA
ATOM     33  C   UNL     1      49.718   8.471  14.587  0.00  0.00    +0.000 A 
ENDBRANCH  20  23
ENDBRANCH   2  19
TORSDOF 6
ENDMDL
MODEL 2
REMARK VINA RESULT:    -7.199      3.042      3.705
REMARK INTER + INTRA:         -10.892
REMARK INTER:                  -9.703
REMARK INTRA:                  -1.189
REMARK UNBOUND:                -1.168
REMARK  Name = 
REMARK  8 active torsions:
REMARK  status: ('A' for Active; 'I' for Inactive)
REMARK    1  A    between atoms: C_1  and  C_2
REMARK    2  A    between atoms: C_2  and  N_3
REMARK    3  A    between atoms: C_2  and  C_17
REMARK    4  A    between atoms: C_4  and  C_6
REMARK    5  A    between atoms: N_12  and  C_13
REMARK    6  A    between atoms: C_20  and  C_21
REMARK    7  A    between atoms: C_21  and  N_22
REMARK    8  A    between atoms: C_23  and  C_25
REMARK                            x       y       z     vdW  Elec       q    Type
REMARK                         _______ _______ _______ _____ _____    ______ ____
ROOT
ATOM      1  C   UNL     1      47.871   2.975  15.368  0.00  0.00    +0.000 C 
ATOM      2  C   UNL     1      47.016   4.226  15.606  0.00  0.00    +0.000 C 
ENDROOT
BRANCH   2   3
ATOM      3  C   UNL     1      46.526   4.762  14.257  0.00  0.00    +0.000 A 
ATOM      4  C   UNL     1      47.147   5.861  13.657  0.00  0.00    +0.000 A 
ATOM      5  C   UNL     1      46.764   6.256  12.378  0.00  0.00    +0.000 A 
ATOM      6  C   UNL     1      45.778   5.540  11.703  0.00  0.00    +0.000 A 
ATOM      7  C   UNL     1      45.171   4.497  12.393  0.00  0.00    +0.000 A 
ATOM      8  N   UNL     1      45.517   4.097  13.641  0.00  0.00    +0.000 NA
BRANCH   6   9
ATOM      9  C   UNL     1      45.391   5.877  10.295  0.00  0.00    +0.000 C 
BRANCH   9  10
ATOM     10  N   UNL     1      46.006   4.988   9.347  0.00  0.00    +0.000 N 
ATOM     11  C   UNL     1      45.275   4.038   8.661  0.00  0.00    +0.000 C 
ATOM     12  O   UNL     1      44.068   3.904   8.845  0.00  0.00    +0.000 OA
ATOM     13  H   UNL     1      46.985   5.095   9.118  0.00  0.00    +0.000 HD
BRANCH  11  14
ATOM     14  C   UNL     1      46.036   3.226   7.719  0.00  0.00    +0.000 A 
ATOM     15  C   UNL     1      46.607   3.642   6.528  0.00  0.00    +0.000 A 
ATOM     16  C   UNL     1      47.276   2.586   5.841  0.00  0.00    +0.000 A 
ATOM     17  C   UNL     1      47.194   1.395   6.525  0.00  0.00    +0.000 A 
ATOM     18  S   UNL     1      46.323   1.553   7.985  0.00  0.00    +0.000 S 
ENDBRANCH  11  14
ENDBRANCH   9  10
ENDBRANCH   6   9
ENDBRANCH   2   3
BRANCH   2  19
ATOM     19  N   UNL     1      47.741   5.252  16.346  0.00  0.00    +0.000 N 
ATOM     20  C   UNL     1      47.605   5.486  17.687  0.00  0.00    +0.000 C 
ATOM     21  O   UNL     1      46.775   4.908  18.382  0.00  0.00    +0.000 OA
ATOM     22  H   UNL     1      48.466   5.741  15.835  0.00  0.00    +0.000 HD
BRANCH  20  23
ATOM     23  C   UNL     1      48.508   6.499  18.257  0.00  0.00    +0.000 A 
ATOM     24  C   UNL     1      47.990   7.577  18.961  0.00  0.00    +0.000 A 
ATOM     25  S   UNL     1      49.184   8.650  19.541  0.00  0.00    +0.000 S 
ATOM     26  C   UNL     1      50.438   7.684  18.915  0.00  0.00    +0.000 A 
ATOM     27  N   UNL     1      51.740   8.025  19.088  0.00  0.00    +0.000 NA
ATOM     28  C   UNL     1      52.588   7.186  18.586  0.00  0.00    +0.000 A 
ATOM     29  N   UNL     1      52.264   6.030  17.912  0.00  0.00    +0.000 N 
ATOM     30  C   UNL     1      53.295   5.164  17.374  0.00  0.00    +0.000 C 
ATOM     31  C   UNL     1      50.943   5.667  17.691  0.00  0.00    +0.000 A 
ATOM     32  O   UNL     1      50.637   4.670  17.044  0.00  0.00    +0.000 OA
ATOM     33  C   UNL     1      49.953   6.572  18.252  0.00  0.00    +0.000 A 
ENDBRANCH  20  23
ENDBRANCH   2  19
TORSDOF 6
ENDMDL
MODEL 3
REMARK VINA RESULT:    -6.913      2.959      8.891
REMARK INTER + INTRA:         -10.506
REMARK INTER:                  -9.614
REMARK INTRA:                  -0.892
REMARK UNBOUND:                -1.168
REMARK  Name = 
REMARK  8 active torsions:
REMARK  status: ('A' for Active; 'I' for Inactive)
REMARK    1  A    between atoms: C_1  and  C_2
REMARK    2  A    between atoms: C_2  and  N_3
REMARK    3  A    between atoms: C_2  and  C_17
REMARK    4  A    between atoms: C_4  and  C_6
REMARK    5  A    between atoms: N_12  and  C_13
REMARK    6  A    between atoms: C_20  and  C_21
REMARK    7  A    between atoms: C_21  and  N_22
REMARK    8  A    between atoms: C_23  and  C_25
REMARK                            x       y       z     vdW  Elec       q    Type
REMARK                         _______ _______ _______ _____ _____    ______ ____
ROOT
ATOM      1  C   UNL     1      48.580   7.947  11.382  0.00  0.00    +0.000 C 
ATOM      2  C   UNL     1      47.618   7.677  12.546  0.00  0.00    +0.000 C 
ENDROOT
BRANCH   2   3
ATOM      3  C   UNL     1      48.427   7.531  13.839  0.00  0.00    +0.000 A 
ATOM      4  C   UNL     1      48.113   6.534  14.769  0.00  0.00    +0.000 A 
ATOM      5  C   UNL     1      48.934   6.342  15.877  0.00  0.00    +0.000 A 
ATOM      6  C   UNL     1      50.068   7.134  16.039  0.00  0.00    +0.000 A 
ATOM      7  C   UNL     1      50.275   8.140  15.101  0.00  0.00    +0.000 A 
ATOM      8  N   UNL     1      49.488   8.355  14.019  0.00  0.00    +0.000 NA
BRANCH   6   9
ATOM      9  C   UNL     1      51.024   6.911  17.172  0.00  0.00    +0.000 C 
BRANCH   9  10
ATOM     10  N   UNL     1      51.549   5.572  17.168  0.00  0.00    +0.000 N 
ATOM     11  C   UNL     1      51.042   4.591  17.996  0.00  0.00    +0.000 C 
ATOM     12  O   UNL     1      50.129   4.827  18.784  0.00  0.00    +0.000 OA
ATOM     13  H   UNL     1      52.261   5.312  16.499  0.00  0.00    +0.000 HD
BRANCH  11  14
ATOM     14  C   UNL     1      51.664   3.279  17.862  0.00  0.00    +0.000 A 
ATOM     15  C   UNL     1      51.062   2.108  17.432  0.00  0.00    +0.000 A 
ATOM     16  C   UNL     1      51.958   0.999  17.428  0.00  0.00    +0.000 A 
ATOM     17  C   UNL     1      53.216   1.352  17.858  0.00  0.00    +0.000 A 
ATOM     18  S   UNL     1      53.315   3.010  18.256  0.00  0.00    +0.000 S 
ENDBRANCH  11  14
ENDBRANCH   9  10
ENDBRANCH   6   9
ENDBRANCH   2   3
BRANCH   2  19
ATOM     19  N   UNL     1      46.789   6.502  12.310  0.00  0.00    +0.000 N 
ATOM     20  C   UNL     1      45.560   6.525  11.708  0.00  0.00    +0.000 C 
ATOM     21  O   UNL     1      44.993   7.567  11.395  0.00  0.00    +0.000 OA
ATOM     22  H   UNL     1      47.216   5.607  12.516  0.00  0.00    +0.000 HD
BRANCH  20  23
ATOM     23  C   UNL     1      44.936   5.213  11.472  0.00  0.00    +0.000 A 
ATOM     24  C   UNL     1      44.116   4.647  12.437  0.00  0.00    +0.000 A 
ATOM     25  S   UNL     1      43.488   3.124  11.993  0.00  0.00    +0.000 S 
ATOM     26  C   UNL     1      44.251   3.191  10.472  0.00  0.00    +0.000 A 
ATOM     27  N   UNL     1      44.099   2.191   9.567  0.00  0.00    +0.000 NA
ATOM     28  C   UNL     1      44.710   2.385   8.442  0.00  0.00    +0.000 A 
ATOM     29  N   UNL     1      45.475   3.487   8.128  0.00  0.00    +0.000 N 
ATOM     30  C   UNL     1      46.132   3.599   6.841  0.00  0.00    +0.000 C 
ATOM     31  C   UNL     1      45.675   4.512   9.042  0.00  0.00    +0.000 A 
ATOM     32  O   UNL     1      46.398   5.474   8.798  0.00  0.00    +0.000 OA
ATOM     33  C   UNL     1      44.993   4.346  10.315  0.00  0.00    +0.000 A 
ENDBRANCH  20  23
ENDBRANCH   2  19
TORSDOF 6
ENDMDL
MODEL 4
REMARK VINA RESULT:    -6.504      3.940      7.716
REMARK INTER + INTRA:          -9.953
REMARK INTER:                  -9.653
REMARK INTRA:                  -0.300
REMARK UNBOUND:                -1.168
REMARK  Name = 
REMARK  8 active torsions:
REMARK  status: ('A' for Active; 'I' for Inactive)
REMARK    1  A    between atoms: C_1  and  C_2
REMARK    2  A    between atoms: C_2  and  N_3
REMARK    3  A    between atoms: C_2  and  C_17
REMARK    4  A    between atoms: C_4  and  C_6
REMARK    5  A    between atoms: N_12  and  C_13
REMARK    6  A    between atoms: C_20  and  C_21
REMARK    7  A    between atoms: C_21  and  N_22
REMARK    8  A    between atoms: C_23  and  C_25
REMARK                            x       y       z     vdW  Elec       q    Type
REMARK                         _______ _______ _______ _____ _____    ______ ____
ROOT
ATOM      1  C   UNL     1      45.414   9.257  12.767  0.00  0.00    +0.000 C 
ATOM      2  C   UNL     1      46.337   8.083  13.118  0.00  0.00    +0.000 C 
ENDROOT
BRANCH   2   3
ATOM      3  C   UNL     1      47.694   8.293  12.438  0.00  0.00    +0.000 A 
ATOM      4  C   UNL     1      48.056   9.547  11.938  0.00  0.00    +0.000 A 
ATOM      5  C   UNL     1      49.338   9.745  11.433  0.00  0.00    +0.000 A 
ATOM      6  C   UNL     1      50.252   8.694  11.448  0.00  0.00    +0.000 A 
ATOM      7  C   UNL     1      49.794   7.464  11.907  0.00  0.00    +0.000 A 
ATOM      8  N   UNL     1      48.549   7.242  12.395  0.00  0.00    +0.000 NA
BRANCH   6   9
ATOM      9  C   UNL     1      51.667   8.880  10.990  0.00  0.00    +0.000 C 
BRANCH   9  10
ATOM     10  N   UNL     1      52.112   7.781  10.178  0.00  0.00    +0.000 N 
ATOM     11  C   UNL     1      53.048   7.949   9.176  0.00  0.00    +0.000 C 
ATOM     12  O   UNL     1      53.528   9.052   8.928  0.00  0.00    +0.000 OA
ATOM     13  H   UNL     1      51.791   6.843  10.379  0.00  0.00    +0.000 HD
BRANCH  11  14
ATOM     14  C   UNL     1      53.413   6.736   8.454  0.00  0.00    +0.000 A 
ATOM     15  C   UNL     1      52.751   6.173   7.376  0.00  0.00    +0.000 A 
ATOM     16  C   UNL     1      53.373   4.976   6.912  0.00  0.00    +0.000 A 
ATOM     17  C   UNL     1      54.489   4.658   7.650  0.00  0.00    +0.000 A 
ATOM     18  S   UNL     1      54.786   5.798   8.887  0.00  0.00    +0.000 S 
ENDBRANCH  11  14
ENDBRANCH   9  10
ENDBRANCH   6   9
ENDBRANCH   2   3
BRANCH   2  19
ATOM     19  N   UNL     1      45.756   6.799  12.745  0.00  0.00    +0.000 N 
ATOM     20  C   UNL     1      44.989   6.587  11.632  0.00  0.00    +0.000 C 
ATOM     21  O   UNL     1      44.633   7.494  10.886  0.00  0.00    +0.000 OA
ATOM     22  H   UNL     1      46.041   6.003  13.302  0.00  0.00    +0.000 HD
BRANCH  20  23
ATOM     23  C   UNL     1      44.589   5.192  11.384  0.00  0.00    +0.000 A 
ATOM     24  C   UNL     1      43.776   4.529  12.292  0.00  0.00    +0.000 A 
ATOM     25  S   UNL     1      43.423   2.920  11.844  0.00  0.00    +0.000 S 
ATOM     26  C   UNL     1      44.303   3.071  10.395  0.00  0.00    +0.000 A 
ATOM     27  N   UNL     1      44.384   2.042   9.513  0.00  0.00    +0.000 NA
ATOM     28  C   UNL     1      45.061   2.303   8.441  0.00  0.00    +0.000 A 
ATOM     29  N   UNL     1      45.681   3.501   8.160  0.00  0.00    +0.000 N 
ATOM     30  C   UNL     1      46.429   3.685   6.932  0.00  0.00    +0.000 C 
ATOM     31  C   UNL     1      45.642   4.562   9.053  0.00  0.00    +0.000 A 
ATOM     32  O   UNL     1      46.235   5.616   8.843  0.00  0.00    +0.000 OA
ATOM     33  C   UNL     1      44.879   4.320  10.266  0.00  0.00    +0.000 A 
ENDBRANCH  20  23
ENDBRANCH   2  19
TORSDOF 6
ENDMDL
MODEL 5
REMARK VINA RESULT:    -6.411      4.110      5.966
REMARK INTER + INTRA:          -9.828
REMARK INTER:                  -8.674
REMARK INTRA:                  -1.154
REMARK UNBOUND:                -1.168
REMARK  Name = 
REMARK  8 active torsions:
REMARK  status: ('A' for Active; 'I' for Inactive)
REMARK    1  A    between atoms: C_1  and  C_2
REMARK    2  A    between atoms: C_2  and  N_3
REMARK    3  A    between atoms: C_2  and  C_17
REMARK    4  A    between atoms: C_4  and  C_6
REMARK    5  A    between atoms: N_12  and  C_13
REMARK    6  A    between atoms: C_20  and  C_21
REMARK    7  A    between atoms: C_21  and  N_22
REMARK    8  A    between atoms: C_23  and  C_25
REMARK                            x       y       z     vdW  Elec       q    Type
REMARK                         _______ _______ _______ _____ _____    ______ ____
ROOT
ATOM      1  C   UNL     1      48.236   2.913  17.831  0.00  0.00    +0.000 C 
ATOM      2  C   UNL     1      48.707   4.360  17.644  0.00  0.00    +0.000 C 
ENDROOT
BRANCH   2   3
ATOM      3  C   UNL     1      48.232   4.868  16.278  0.00  0.00    +0.000 A 
ATOM      4  C   UNL     1      47.192   4.227  15.600  0.00  0.00    +0.000 A 
ATOM      5  C   UNL     1      46.697   4.775  14.420  0.00  0.00    +0.000 A 
ATOM      6  C   UNL     1      47.233   5.966  13.937  0.00  0.00    +0.000 A 
ATOM      7  C   UNL     1      48.304   6.508  14.639  0.00  0.00    +0.000 A 
ATOM      8  N   UNL     1      48.811   5.990  15.785  0.00  0.00    +0.000 NA
BRANCH   6   9
ATOM      9  C   UNL     1      46.679   6.636  12.716  0.00  0.00    +0.000 C 
BRANCH   9  10
ATOM     10  N   UNL     1      46.432   5.693  11.659  0.00  0.00    +0.000 N 
ATOM     11  C   UNL     1      45.170   5.511  11.128  0.00  0.00    +0.000 C 
ATOM     12  O   UNL     1      44.202   6.138  11.549  0.00  0.00    +0.000 OA
ATOM     13  H   UNL     1      47.204   5.193  11.238  0.00  0.00    +0.000 HD
BRANCH  11  14
ATOM     14  C   UNL     1      45.083   4.535  10.048  0.00  0.00    +0.000 A 
ATOM     15  C   UNL     1      45.584   4.662   8.763  0.00  0.00    +0.000 A 
ATOM     16  C   UNL     1      45.316   3.520   7.952  0.00  0.00    +0.000 A 
ATOM     17  C   UNL     1      44.614   2.556   8.638  0.00  0.00    +0.000 A 
ATOM     18  S   UNL     1      44.291   3.023  10.249  0.00  0.00    +0.000 S 
ENDBRANCH  11  14
ENDBRANCH   9  10
ENDBRANCH   6   9
ENDBRANCH   2   3
BRANCH   2  19
ATOM     19  N   UNL     1      50.153   4.488  17.777  0.00  0.00    +0.000 N 
ATOM     20  C   UNL     1      50.811   4.670  18.963  0.00  0.00    +0.000 C 
ATOM     21  O   UNL     1      50.227   4.842  20.028  0.00  0.00    +0.000 OA
ATOM     22  H   UNL     1      50.694   4.320  16.938  0.00  0.00    +0.000 HD
BRANCH  20  23
ATOM     23  C   UNL     1      52.282   4.668  18.887  0.00  0.00    +0.000 A 
ATOM     24  C   UNL     1      53.004   5.763  19.339  0.00  0.00    +0.000 A 
ATOM     25  S   UNL     1      54.692   5.586  19.166  0.00  0.00    +0.000 S 
ATOM     26  C   UNL     1      54.519   4.016  18.530  0.00  0.00    +0.000 A 
ATOM     27  N   UNL     1      55.603   3.274  18.188  0.00  0.00    +0.000 NA
ATOM     28  C   UNL     1      55.327   2.090  17.745  0.00  0.00    +0.000 A 
ATOM     29  N   UNL     1      54.062   1.567  17.598  0.00  0.00    +0.000 N 
ATOM     30  C   UNL     1      53.862   0.229  17.076  0.00  0.00    +0.000 C 
ATOM     31  C   UNL     1      52.932   2.310  17.909  0.00  0.00    +0.000 A 
ATOM     32  O   UNL     1      51.796   1.879  17.731  0.00  0.00    +0.000 OA
ATOM     33  C   UNL     1      53.193   3.642  18.427  0.00  0.00    +0.000 A 
ENDBRANCH  20  23
ENDBRANCH   2  19
TORSDOF 6
ENDMDL
MODEL 6
REMARK VINA RESULT:    -6.162      2.058      2.825
REMARK INTER + INTRA:          -9.491
REMARK INTER:                  -9.330
REMARK INTRA:                  -0.161
REMARK UNBOUND:                -1.168
REMARK  Name = 
REMARK  8 active torsions:
REMARK  status: ('A' for Active; 'I' for Inactive)
REMARK    1  A    between atoms: C_1  and  C_2
REMARK    2  A    between atoms: C_2  and  N_3
REMARK    3  A    between atoms: C_2  and  C_17
REMARK    4  A    between atoms: C_4  and  C_6
REMARK    5  A    between atoms: N_12  and  C_13
REMARK    6  A    between atoms: C_20  and  C_21
REMARK    7  A    between atoms: C_21  and  N_22
REMARK    8  A    between atoms: C_23  and  C_25
REMARK                            x       y       z     vdW  Elec       q    Type
REMARK                         _______ _______ _______ _____ _____    ______ ____
ROOT
ATOM      1  C   UNL     1      47.666   3.197  14.939  0.00  0.00    +0.000 C 
ATOM      2  C   UNL     1      46.812   4.469  15.013  0.00  0.00    +0.000 C 
ENDROOT
BRANCH   2   3
ATOM      3  C   UNL     1      45.923   4.547  13.768  0.00  0.00    +0.000 A 
ATOM      4  C   UNL     1      45.643   5.777  13.166  0.00  0.00    +0.000 A 
ATOM      5  C   UNL     1      44.934   5.815  11.969  0.00  0.00    +0.000 A 
ATOM      6  C   UNL     1      44.525   4.623  11.374  0.00  0.00    +0.000 A 
ATOM      7  C   UNL     1      44.792   3.448  12.067  0.00  0.00    +0.000 A 
ATOM      8  N   UNL     1      45.472   3.384  13.237  0.00  0.00    +0.000 NA
BRANCH   6   9
ATOM      9  C   UNL     1      43.830   4.609  10.046  0.00  0.00    +0.000 C 
BRANCH   9  10
ATOM     10  N   UNL     1      44.521   3.782   9.094  0.00  0.00    +0.000 N 
ATOM     11  C   UNL     1      45.642   4.229   8.423  0.00  0.00    +0.000 C 
ATOM     12  O   UNL     1      46.087   5.360   8.602  0.00  0.00    +0.000 OA
ATOM     13  H   UNL     1      44.230   2.825   8.953  0.00  0.00    +0.000 HD
BRANCH  11  14
ATOM     14  C   UNL     1      46.244   3.268   7.505  0.00  0.00    +0.000 A 
ATOM     15  C   UNL     1      46.683   3.507   6.214  0.00  0.00    +0.000 A 
ATOM     16  C   UNL     1      47.214   2.341   5.588  0.00  0.00    +0.000 A 
ATOM     17  C   UNL     1      47.162   1.245   6.418  0.00  0.00    +0.000 A 
ATOM     18  S   UNL     1      46.485   1.624   7.940  0.00  0.00    +0.000 S 
ENDBRANCH  11  14
ENDBRANCH   9  10
ENDBRANCH   6   9
ENDBRANCH   2   3
BRANCH   2  19
ATOM     19  N   UNL     1      47.628   5.669  15.151  0.00  0.00    +0.000 N 
ATOM     20  C   UNL     1      48.234   6.068  16.312  0.00  0.00    +0.000 C 
ATOM     21  O   UNL     1      48.063   5.494  17.382  0.00  0.00    +0.000 OA
ATOM     22  H   UNL     1      47.835   6.168  14.295  0.00  0.00    +0.000 HD
BRANCH  20  23
ATOM     23  C   UNL     1      49.100   7.254  16.209  0.00  0.00    +0.000 A 
ATOM     24  C   UNL     1      49.485   7.729  14.963  0.00  0.00    +0.000 A 
ATOM     25  S   UNL     1      50.492   9.104  15.039  0.00  0.00    +0.000 S 
ATOM     26  C   UNL     1      50.405   9.144  16.739  0.00  0.00    +0.000 A 
ATOM     27  N   UNL     1      51.036  10.112  17.451  0.00  0.00    +0.000 NA
ATOM     28  C   UNL     1      50.862  10.039  18.732  0.00  0.00    +0.000 A 
ATOM     29  N   UNL     1      50.119   9.079  19.383  0.00  0.00    +0.000 N 
ATOM     30  C   UNL     1      50.000   9.079  20.828  0.00  0.00    +0.000 C 
ATOM     31  C   UNL     1      49.487   8.058  18.687  0.00  0.00    +0.000 A 
ATOM     32  O   UNL     1      48.867   7.164  19.256  0.00  0.00    +0.000 OA
ATOM     33  C   UNL     1      49.640   8.110  17.243  0.00  0.00    +0.000 A 
ENDBRANCH  20  23
ENDBRANCH   2  19
TORSDOF 6
ENDMDL
MODEL 7
REMARK VINA RESULT:    -5.753      2.819      8.861
REMARK INTER + INTRA:          -8.939
REMARK INTER:                  -8.931
REMARK INTRA:                  -0.008
REMARK UNBOUND:                -1.168
REMARK  Name = 
REMARK  8 active torsions:
REMARK  status: ('A' for Active; 'I' for Inactive)
REMARK    1  A    between atoms: C_1  and  C_2
REMARK    2  A    between atoms: C_2  and  N_3
REMARK    3  A    between atoms: C_2  and  C_17
REMARK    4  A    between atoms: C_4  and  C_6
REMARK    5  A    between atoms: N_12  and  C_13
REMARK    6  A    between atoms: C_20  and  C_21
REMARK    7  A    between atoms: C_21  and  N_22
REMARK    8  A    between atoms: C_23  and  C_25
REMARK                            x       y       z     vdW  Elec       q    Type
REMARK                         _______ _______ _______ _____ _____    ______ ____
ROOT
ATOM      1  C   UNL     1      45.633   9.275  12.393  0.00  0.00    +0.000 C 
ATOM      2  C   UNL     1      46.301   8.117  13.145  0.00  0.00    +0.000 C 
ENDROOT
BRANCH   2   3
ATOM      3  C   UNL     1      47.811   8.159  12.889  0.00  0.00    +0.000 A 
ATOM      4  C   UNL     1      48.358   7.573  11.744  0.00  0.00    +0.000 A 
ATOM      5  C   UNL     1      49.715   7.726  11.472  0.00  0.00    +0.000 A 
ATOM      6  C   UNL     1      50.509   8.478  12.335  0.00  0.00    +0.000 A 
ATOM      7  C   UNL     1      49.899   8.977  13.481  0.00  0.00    +0.000 A 
ATOM      8  N   UNL     1      48.584   8.834  13.775  0.00  0.00    +0.000 NA
BRANCH   6   9
ATOM      9  C   UNL     1      51.955   8.739  12.041  0.00  0.00    +0.000 C 
BRANCH   9  10
ATOM     10  N   UNL     1      52.817   7.890  12.819  0.00  0.00    +0.000 N 
ATOM     11  C   UNL     1      53.478   8.355  13.938  0.00  0.00    +0.000 C 
ATOM     12  O   UNL     1      53.369   9.521  14.307  0.00  0.00    +0.000 OA
ATOM     13  H   UNL     1      52.896   6.908  12.591  0.00  0.00    +0.000 HD
BRANCH  11  14
ATOM     14  C   UNL     1      54.298   7.369  14.633  0.00  0.00    +0.000 A 
ATOM     15  C   UNL     1      55.011   6.326  14.067  0.00  0.00    +0.000 A 
ATOM     16  C   UNL     1      55.702   5.541  15.037  0.00  0.00    +0.000 A 
ATOM     17  C   UNL     1      55.494   6.005  16.315  0.00  0.00    +0.000 A 
ATOM     18  S   UNL     1      54.480   7.380  16.341  0.00  0.00    +0.000 S 
ENDBRANCH  11  14
ENDBRANCH   9  10
ENDBRANCH   6   9
ENDBRANCH   2   3
BRANCH   2  19
ATOM     19  N   UNL     1      45.741   6.825  12.768  0.00  0.00    +0.000 N 
ATOM     20  C   UNL     1      44.902   6.620  11.707  0.00  0.00    +0.000 C 
ATOM     21  O   UNL     1      44.460   7.537  11.022  0.00  0.00    +0.000 OA
ATOM     22  H   UNL     1      46.095   6.021  13.274  0.00  0.00    +0.000 HD
BRANCH  20  23
ATOM     23  C   UNL     1      44.536   5.219  11.438  0.00  0.00    +0.000 A 
ATOM     24  C   UNL     1      43.723   4.529  12.326  0.00  0.00    +0.000 A 
ATOM     25  S   UNL     1      43.411   2.919  11.857  0.00  0.00    +0.000 S 
ATOM     26  C   UNL     1      44.310   3.104  10.422  0.00  0.00    +0.000 A 
ATOM     27  N   UNL     1      44.426   2.087   9.531  0.00  0.00    +0.000 NA
ATOM     28  C   UNL     1      45.112   2.374   8.472  0.00  0.00    +0.000 A 
ATOM     29  N   UNL     1      45.711   3.588   8.213  0.00  0.00    +0.000 N 
ATOM     30  C   UNL     1      46.473   3.801   6.998  0.00  0.00    +0.000 C 
ATOM     31  C   UNL     1      45.637   4.638   9.117  0.00  0.00    +0.000 A 
ATOM     32  O   UNL     1      46.210   5.707   8.926  0.00  0.00    +0.000 OA
ATOM     33  C   UNL     1      44.860   4.367  10.315  0.00  0.00    +0.000 A 
ENDBRANCH  20  23
ENDBRANCH   2  19
TORSDOF 6
ENDMDL
MODEL 8
REMARK VINA RESULT:    -5.452      2.608      8.876
REMARK INTER + INTRA:          -8.532
REMARK INTER:                  -8.708
REMARK INTRA:                   0.175
REMARK UNBOUND:                -1.168
REMARK  Name = 
REMARK  8 active torsions:
REMARK  status: ('A' for Active; 'I' for Inactive)
REMARK    1  A    between atoms: C_1  and  C_2
REMARK    2  A    between atoms: C_2  and  N_3
REMARK    3  A    between atoms: C_2  and  C_17
REMARK    4  A    between atoms: C_4  and  C_6
REMARK    5  A    between atoms: N_12  and  C_13
REMARK    6  A    between atoms: C_20  and  C_21
REMARK    7  A    between atoms: C_21  and  N_22
REMARK    8  A    between atoms: C_23  and  C_25
REMARK                            x       y       z     vdW  Elec       q    Type
REMARK                         _______ _______ _______ _____ _____    ______ ____
ROOT
ATOM      1  C   UNL     1      45.242   9.911  11.597  0.00  0.00    +0.000 C 
ATOM      2  C   UNL     1      45.412   8.949  12.780  0.00  0.00    +0.000 C 
ENDROOT
BRANCH   2   3
ATOM      3  C   UNL     1      46.889   8.911  13.185  0.00  0.00    +0.000 A 
ATOM      4  C   UNL     1      47.289   8.280  14.366  0.00  0.00    +0.000 A 
ATOM      5  C   UNL     1      48.646   8.152  14.655  0.00  0.00    +0.000 A 
ATOM      6  C   UNL     1      49.589   8.640  13.754  0.00  0.00    +0.000 A 
ATOM      7  C   UNL     1      49.107   9.305  12.632  0.00  0.00    +0.000 A 
ATOM      8  N   UNL     1      47.794   9.452  12.332  0.00  0.00    +0.000 NA
BRANCH   6   9
ATOM      9  C   UNL     1      51.059   8.454  13.982  0.00  0.00    +0.000 C 
BRANCH   9  10
ATOM     10  N   UNL     1      51.318   7.482  15.010  0.00  0.00    +0.000 N 
ATOM     11  C   UNL     1      52.585   7.287  15.523  0.00  0.00    +0.000 C 
ATOM     12  O   UNL     1      53.548   7.928  15.110  0.00  0.00    +0.000 OA
ATOM     13  H   UNL     1      50.551   6.969  15.423  0.00  0.00    +0.000 HD
BRANCH  11  14
ATOM     14  C   UNL     1      52.685   6.282  16.574  0.00  0.00    +0.000 A 
ATOM     15  C   UNL     1      51.666   5.483  17.066  0.00  0.00    +0.000 A 
ATOM     16  C   UNL     1      52.105   4.609  18.104  0.00  0.00    +0.000 A 
ATOM     17  C   UNL     1      53.444   4.768  18.378  0.00  0.00    +0.000 A 
ATOM     18  S   UNL     1      54.164   5.956  17.385  0.00  0.00    +0.000 S 
ENDBRANCH  11  14
ENDBRANCH   9  10
ENDBRANCH   6   9
ENDBRANCH   2   3
BRANCH   2  19
ATOM     19  N   UNL     1      44.918   7.612  12.473  0.00  0.00    +0.000 N 
ATOM     20  C   UNL     1      45.565   6.707  11.676  0.00  0.00    +0.000 C 
ATOM     21  O   UNL     1      46.590   6.979  11.059  0.00  0.00    +0.000 OA
ATOM     22  H   UNL     1      44.093   7.315  12.980  0.00  0.00    +0.000 HD
BRANCH  20  23
ATOM     23  C   UNL     1      44.945   5.375  11.582  0.00  0.00    +0.000 A 
ATOM     24  C   UNL     1      44.192   4.882  12.638  0.00  0.00    +0.000 A 
ATOM     25  S   UNL     1      43.558   3.323  12.354  0.00  0.00    +0.000 S 
ATOM     26  C   UNL     1      44.225   3.275  10.788  0.00  0.00    +0.000 A 
ATOM     27  N   UNL     1      44.031   2.206   9.975  0.00  0.00    +0.000 NA
ATOM     28  C   UNL     1      44.570   2.315   8.804  0.00  0.00    +0.000 A 
ATOM     29  N   UNL     1      45.300   3.395   8.357  0.00  0.00    +0.000 N 
ATOM     30  C   UNL     1      45.875   3.410   7.027  0.00  0.00    +0.000 C 
ATOM     31  C   UNL     1      45.542   4.491   9.174  0.00  0.00    +0.000 A 
ATOM     32  O   UNL     1      46.237   5.436   8.811  0.00  0.00    +0.000 OA
ATOM     33  C   UNL     1      44.941   4.420  10.496  0.00  0.00    +0.000 A 
ENDBRANCH  20  23
ENDBRANCH   2  19
TORSDOF 6
ENDMDL
MODEL 9
REMARK VINA RESULT:    -5.050      4.249      7.016
REMARK INTER + INTRA:          -7.990
REMARK INTER:                  -6.888
REMARK INTRA:                  -1.101
REMARK UNBOUND:                -1.168
REMARK  Name = 
REMARK  8 active torsions:
REMARK  status: ('A' for Active; 'I' for Inactive)
REMARK    1  A    between atoms: C_1  and  C_2
REMARK    2  A    between atoms: C_2  and  N_3
REMARK    3  A    between atoms: C_2  and  C_17
REMARK    4  A    between atoms: C_4  and  C_6
REMARK    5  A    between atoms: N_12  and  C_13
REMARK    6  A    between atoms: C_20  and  C_21
REMARK    7  A    between atoms: C_21  and  N_22
REMARK    8  A    between atoms: C_23  and  C_25
REMARK                            x       y       z     vdW  Elec       q    Type
REMARK                         _______ _______ _______ _____ _____    ______ ____
ROOT
ATOM      1  C   UNL     1      47.770   2.874  17.379  0.00  0.00    +0.000 C 
ATOM      2  C   UNL     1      48.226   4.336  17.311  0.00  0.00    +0.000 C 
ENDROOT
BRANCH   2   3
ATOM      3  C   UNL     1      47.943   4.885  15.909  0.00  0.00    +0.000 A 
ATOM      4  C   UNL     1      46.995   4.275  15.082  0.00  0.00    +0.000 A 
ATOM      5  C   UNL     1      46.667   4.859  13.861  0.00  0.00    +0.000 A 
ATOM      6  C   UNL     1      47.275   6.055  13.486  0.00  0.00    +0.000 A 
ATOM      7  C   UNL     1      48.248   6.564  14.338  0.00  0.00    +0.000 A 
ATOM      8  N   UNL     1      48.593   6.011  15.526  0.00  0.00    +0.000 NA
BRANCH   6   9
ATOM      9  C   UNL     1      46.895   6.763  12.220  0.00  0.00    +0.000 C 
BRANCH   9  10
ATOM     10  N   UNL     1      47.931   7.658  11.781  0.00  0.00    +0.000 N 
ATOM     11  C   UNL     1      47.802   9.028  11.889  0.00  0.00    +0.000 C 
ATOM     12  O   UNL     1      46.787   9.540  12.353  0.00  0.00    +0.000 OA
ATOM     13  H   UNL     1      48.809   7.286  11.444  0.00  0.00    +0.000 HD
BRANCH  11  14
ATOM     14  C   UNL     1      48.945   9.802  11.420  0.00  0.00    +0.000 A 
ATOM     15  C   UNL     1      48.917  11.013  10.750  0.00  0.00    +0.000 A 
ATOM     16  C   UNL     1      50.220  11.493  10.426  0.00  0.00    +0.000 A 
ATOM     17  C   UNL     1      51.205  10.634  10.854  0.00  0.00    +0.000 A 
ATOM     18  S   UNL     1      50.562   9.264  11.646  0.00  0.00    +0.000 S 
ENDBRANCH  11  14
ENDBRANCH   9  10
ENDBRANCH   6   9
ENDBRANCH   2   3
BRANCH   2  19
ATOM     19  N   UNL     1      49.634   4.488  17.658  0.00  0.00    +0.000 N 
ATOM     20  C   UNL     1      50.104   4.695  18.927  0.00  0.00    +0.000 C 
ATOM     21  O   UNL     1      49.364   4.872  19.890  0.00  0.00    +0.000 OA
ATOM     22  H   UNL     1      50.298   4.317  16.913  0.00  0.00    +0.000 HD
BRANCH  20  23
ATOM     23  C   UNL     1      51.569   4.714  19.074  0.00  0.00    +0.000 A 
ATOM     24  C   UNL     1      52.189   5.768  19.728  0.00  0.00    +0.000 A 
ATOM     25  S   UNL     1      53.888   5.625  19.796  0.00  0.00    +0.000 S 
ATOM     26  C   UNL     1      53.849   4.122  18.997  0.00  0.00    +0.000 A 
ATOM     27  N   UNL     1      54.989   3.426  18.755  0.00  0.00    +0.000 NA
ATOM     28  C   UNL     1      54.811   2.287  18.167  0.00  0.00    +0.000 A 
ATOM     29  N   UNL     1      53.594   1.768  17.783  0.00  0.00    +0.000 N 
ATOM     30  C   UNL     1      53.506   0.485  17.115  0.00  0.00    +0.000 C 
ATOM     31  C   UNL     1      52.413   2.467  17.988  0.00  0.00    +0.000 A 
ATOM     32  O   UNL     1      51.327   2.045  17.602  0.00  0.00    +0.000 OA
ATOM     33  C   UNL     1      52.562   3.746  18.662  0.00  0.00    +0.000 A 
ENDBRANCH  20  23
ENDBRANCH   2  19
TORSDOF 6
ENDMDL
