MODEL 1
REMARK VINA RESULT:    -8.245      0.000      0.000
REMARK INTER + INTRA:         -12.190
REMARK INTER:                 -11.378
REMARK INTRA:                  -0.812
REMARK UNBOUND:                -0.812
REMARK  Name = 
REMARK  7 active torsions:
REMARK  status: ('A' for Active; 'I' for Inactive)
REMARK    1  A    between atoms: N_1  and  C_2
REMARK    2  A    between atoms: C_2  and  C_3
REMARK    3  A    between atoms: C_3  and  N_4
REMARK    4  A    between atoms: C_3  and  C_17
REMARK    5  A    between atoms: C_5  and  C_7
REMARK    6  A    between atoms: C_20  and  C_21
REMARK    7  A    between atoms: C_21  and  C_22
REMARK                            x       y       z     vdW  Elec       q    Type
REMARK                         _______ _______ _______ _____ _____    ______ ____
ROOT
ATOM      1  C   UNL     1      46.144   7.916  12.400  0.00  0.00    +0.000 C 
ENDROOT
BRANCH   1   2
ATOM      2  C   UNL     1      45.721   6.677  11.611  0.00  0.00    +0.000 A 
ATOM      3  C   UNL     1      46.250   6.441  10.336  0.00  0.00    +0.000 A 
ATOM      4  C   UNL     1      45.875   5.314   9.599  0.00  0.00    +0.000 A 
ATOM      5  C   UNL     1      44.970   4.381  10.123  0.00  0.00    +0.000 A 
ATOM      6  C   UNL     1      44.445   4.607  11.402  0.00  0.00    +0.000 A 
ATOM      7  C   UNL     1      44.812   5.742  12.135  0.00  0.00    +0.000 A 
BRANCH   5   8
ATOM      8  C   UNL     1      44.555   3.168   9.317  0.00  0.00    +0.000 C 
BRANCH   8   9
ATOM      9  C   UNL     1      45.564   2.642   8.317  0.00  0.00    +0.000 A 
ATOM     10  C   UNL     1      45.906   3.373   7.179  0.00  0.00    +0.000 A 
ATOM     11  C   UNL     1      46.723   2.788   6.212  0.00  0.00    +0.000 A 
ATOM     12  C   UNL     1      47.178   1.491   6.400  0.00  0.00    +0.000 A 
ATOM     13  C   UNL     1      46.809   0.834   7.560  0.00  0.00    +0.000 A 
ATOM     14  N   UNL     1      46.016   1.376   8.514  0.00  0.00    +0.000 NA
ENDBRANCH   8   9
ENDBRANCH   5   8
ENDBRANCH   1   2
BRANCH   1  15
ATOM     15  N   UNL     1      46.750   7.491  13.659  0.00  0.00    +0.000 N 
ATOM     16  C   UNL     1      48.052   7.066  13.740  0.00  0.00    +0.000 C 
ATOM     17  O   UNL     1      48.836   7.139  12.799  0.00  0.00    +0.000 OA
ATOM     18  H   UNL     1      46.101   7.173  14.374  0.00  0.00    +0.000 HD
BRANCH  16  19
ATOM     19  C   UNL     1      48.494   6.552  15.039  0.00  0.00    +0.000 A 
ATOM     20  C   UNL     1      49.490   7.214  15.744  0.00  0.00    +0.000 A 
ATOM     21  S   UNL     1      49.918   6.441  17.203  0.00  0.00    +0.000 S 
ATOM     22  C   UNL     1      48.816   5.175  16.919  0.00  0.00    +0.000 A 
ATOM     23  N   UNL     1      48.726   4.119  17.770  0.00  0.00    +0.000 NA
ATOM     24  C   UNL     1      47.879   3.214  17.407  0.00  0.00    +0.000 A 
ATOM     25  N   UNL     1      47.099   3.280  16.282  0.00  0.00    +0.000 N 
ATOM     26  C   UNL     1      47.109   4.356  15.430  0.00  0.00    +0.000 A 
ATOM     27  O   UNL     1      46.321   4.445  14.493  0.00  0.00    +0.000 OA
ATOM     28  C   UNL     1      48.092   5.373  15.757  0.00  0.00    +0.000 A 
ATOM     29  H   UNL     1      46.426   2.556  16.074  0.00  0.00    +0.000 HD
ENDBRANCH  16  19
ENDBRANCH   1  15
BRANCH   1  30
ATOM     30  C   UNL     1      44.958   8.907  12.615  0.00  0.00    +0.000 C 
BRANCH  30  31
ATOM     31  N   UNL     1      44.121   9.131  11.427  0.00  0.00    +0.000 NA
ATOM     32  H   UNL     1      44.168   8.302  10.836  0.00  0.00    +0.000 HD
ATOM     33  H   UNL     1      44.513   9.897  10.878  0.00  0.00    +0.000 HD
ENDBRANCH  30  31
ENDBRANCH   1  30
TORSDOF 7
ENDMDL
MODEL 2
REMARK VINA RESULT:    -7.855      2.712      4.184
REMARK INTER + INTRA:         -11.651
REMARK INTER:                 -10.298
REMARK INTRA:                  -1.354
REMARK UNBOUND:                -0.812
REMARK  Name = 
REMARK  7 active torsions:
REMARK  status: ('A' for Active; 'I' for Inactive)
REMARK    1  A    between atoms: N_1  and  C_2
REMARK    2  A    between atoms: C_2  and  C_3
REMARK    3  A    between atoms: C_3  and  N_4
REMARK    4  A    between atoms: C_3  and  C_17
REMARK    5  A    between atoms: C_5  and  C_7
REMARK    6  A    between atoms: C_20  and  C_21
REMARK    7  A    between atoms: C_21  and  C_22
REMARK                            x       y       z     vdW  Elec       q    Type
REMARK                         _______ _______ _______ _____ _____    ______ ____
ROOT
ATOM      1  C   UNL     1      46.447   5.814  13.652  0.00  0.00    +0.000 C 
ENDROOT
BRANCH   1   2
ATOM      2  C   UNL     1      45.957   5.225  12.329  0.00  0.00    +0.000 A 
ATOM      3  C   UNL     1      45.373   3.952  12.301  0.00  0.00    +0.000 A 
ATOM      4  C   UNL     1      44.919   3.397  11.100  0.00  0.00    +0.000 A 
ATOM      5  C   UNL     1      45.022   4.107   9.895  0.00  0.00    +0.000 A 
ATOM      6  C   UNL     1      45.596   5.384   9.921  0.00  0.00    +0.000 A 
ATOM      7  C   UNL     1      46.061   5.935  11.121  0.00  0.00    +0.000 A 
BRANCH   5   8
ATOM      8  C   UNL     1      44.541   3.497   8.595  0.00  0.00    +0.000 C 
BRANCH   8   9
ATOM      9  C   UNL     1      45.597   2.863   7.714  0.00  0.00    +0.000 A 
ATOM     10  C   UNL     1      46.204   1.656   8.062  0.00  0.00    +0.000 A 
ATOM     11  C   UNL     1      47.274   1.186   7.302  0.00  0.00    +0.000 A 
ATOM     12  C   UNL     1      47.712   1.926   6.214  0.00  0.00    +0.000 A 
ATOM     13  C   UNL     1      47.052   3.105   5.920  0.00  0.00    +0.000 A 
ATOM     14  N   UNL     1      46.013   3.587   6.642  0.00  0.00    +0.000 NA
ENDBRANCH   8   9
ENDBRANCH   5   8
ENDBRANCH   1   2
BRANCH   1  15
ATOM     15  N   UNL     1      47.602   6.668  13.391  0.00  0.00    +0.000 N 
ATOM     16  C   UNL     1      47.513   8.037  13.372  0.00  0.00    +0.000 C 
ATOM     17  O   UNL     1      46.499   8.643  13.702  0.00  0.00    +0.000 OA
ATOM     18  H   UNL     1      48.362   6.234  12.873  0.00  0.00    +0.000 HD
BRANCH  16  19
ATOM     19  C   UNL     1      48.720   8.767  12.976  0.00  0.00    +0.000 A 
ATOM     20  C   UNL     1      48.641   9.769  12.018  0.00  0.00    +0.000 A 
ATOM     21  S   UNL     1      50.151  10.466  11.638  0.00  0.00    +0.000 S 
ATOM     22  C   UNL     1      50.964   9.423  12.710  0.00  0.00    +0.000 A 
ATOM     23  N   UNL     1      52.319   9.446  12.818  0.00  0.00    +0.000 NA
ATOM     24  C   UNL     1      52.801   8.571  13.637  0.00  0.00    +0.000 A 
ATOM     25  N   UNL     1      52.050   7.691  14.373  0.00  0.00    +0.000 N 
ATOM     26  C   UNL     1      50.678   7.677  14.344  0.00  0.00    +0.000 A 
ATOM     27  O   UNL     1      50.025   6.959  15.094  0.00  0.00    +0.000 OA
ATOM     28  C   UNL     1      50.087   8.597  13.389  0.00  0.00    +0.000 A 
ATOM     29  H   UNL     1      52.487   7.056  15.026  0.00  0.00    +0.000 HD
ENDBRANCH  16  19
ENDBRANCH   1  15
BRANCH   1  30
ATOM     30  C   UNL     1      46.752   4.707  14.709  0.00  0.00    +0.000 C 
BRANCH  30  31
ATOM     31  N   UNL     1      47.793   5.060  15.686  0.00  0.00    +0.000 NA
ATOM     32  H   UNL     1      47.644   4.510  16.532  0.00  0.00    +0.000 HD
ATOM     33  H   UNL     1      47.684   6.038  15.956  0.00  0.00    +0.000 HD
ENDBRANCH  30  31
ENDBRANCH   1  30
TORSDOF 7
ENDMDL
MODEL 3
REMARK VINA RESULT:    -7.834      2.353      3.187
REMARK INTER + INTRA:         -11.623
REMARK INTER:                 -10.502
REMARK INTRA:                  -1.121
REMARK UNBOUND:                -0.812
REMARK  Name = 
REMARK  7 active torsions:
REMARK  status: ('A' for Active; 'I' for Inactive)
REMARK    1  A    between atoms: N_1  and  C_2
REMARK    2  A    between atoms: C_2  and  C_3
REMARK    3  A    between atoms: C_3  and  N_4
REMARK    4  A    between atoms: C_3  and  C_17
REMARK    5  A    between atoms: C_5  and  C_7
REMARK    6  A    between atoms: C_20  and  C_21
REMARK    7  A    between atoms: C_21  and  C_22
REMARK                            x       y       z     vdW  Elec       q    Type
REMARK                         _______ _______ _______ _____ _____    ______ ____
ROOT
ATOM      1  C   UNL     1      47.892   7.238  13.909  0.00  0.00    +0.000 C 
ENDROOT
BRANCH   1   2
ATOM      2  C   UNL     1      46.985   6.481  12.938  0.00  0.00    +0.000 A 
ATOM      3  C   UNL     1      46.560   5.182  13.242  0.00  0.00    +0.000 A 
ATOM      4  C   UNL     1      45.732   4.474  12.366  0.00  0.00    +0.000 A 
ATOM      5  C   UNL     1      45.290   5.053  11.168  0.00  0.00    +0.000 A 
ATOM      6  C   UNL     1      45.704   6.356  10.865  0.00  0.00    +0.000 A 
ATOM      7  C   UNL     1      46.544   7.060  11.736  0.00  0.00    +0.000 A 
BRANCH   5   8
ATOM      8  C   UNL     1      44.403   4.279  10.215  0.00  0.00    +0.000 C 
BRANCH   8   9
ATOM      9  C   UNL     1      45.101   3.520   9.106  0.00  0.00    +0.000 A 
ATOM     10  C   UNL     1      45.335   2.148   9.201  0.00  0.00    +0.000 A 
ATOM     11  C   UNL     1      46.111   1.519   8.228  0.00  0.00    +0.000 A 
ATOM     12  C   UNL     1      46.634   2.269   7.185  0.00  0.00    +0.000 A 
ATOM     13  C   UNL     1      46.347   3.621   7.149  0.00  0.00    +0.000 A 
ATOM     14  N   UNL     1      45.600   4.259   8.080  0.00  0.00    +0.000 NA
ENDBRANCH   8   9
ENDBRANCH   5   8
ENDBRANCH   1   2
BRANCH   1  15
ATOM     15  N   UNL     1      47.854   6.572  15.209  0.00  0.00    +0.000 N 
ATOM     16  C   UNL     1      48.995   6.225  15.888  0.00  0.00    +0.000 C 
ATOM     17  O   UNL     1      50.116   6.564  15.524  0.00  0.00    +0.000 OA
ATOM     18  H   UNL     1      47.003   6.057  15.414  0.00  0.00    +0.000 HD
BRANCH  16  19
ATOM     19  C   UNL     1      48.814   5.454  17.120  0.00  0.00    +0.000 A 
ATOM     20  C   UNL     1      48.875   4.067  17.084  0.00  0.00    +0.000 A 
ATOM     21  S   UNL     1      48.583   3.335  18.597  0.00  0.00    +0.000 S 
ATOM     22  C   UNL     1      48.323   4.845  19.338  0.00  0.00    +0.000 A 
ATOM     23  N   UNL     1      47.955   4.931  20.644  0.00  0.00    +0.000 NA
ATOM     24  C   UNL     1      47.750   6.136  21.061  0.00  0.00    +0.000 A 
ATOM     25  N   UNL     1      47.902   7.264  20.296  0.00  0.00    +0.000 N 
ATOM     26  C   UNL     1      48.334   7.229  18.994  0.00  0.00    +0.000 A 
ATOM     27  O   UNL     1      48.571   8.255  18.365  0.00  0.00    +0.000 OA
ATOM     28  C   UNL     1      48.515   5.893  18.456  0.00  0.00    +0.000 A 
ATOM     29  H   UNL     1      47.764   8.183  20.693  0.00  0.00    +0.000 HD
ENDBRANCH  16  19
ENDBRANCH   1  15
BRANCH   1  30
ATOM     30  C   UNL     1      47.516   8.750  14.004  0.00  0.00    +0.000 C 
BRANCH  30  31
ATOM     31  N   UNL     1      47.449   9.282  15.374  0.00  0.00    +0.000 NA
ATOM     32  H   UNL     1      48.175   8.833  15.931  0.00  0.00    +0.000 HD
ATOM     33  H   UNL     1      46.558   9.017  15.795  0.00  0.00    +0.000 HD
ENDBRANCH  30  31
ENDBRANCH   1  30
TORSDOF 7
ENDMDL
MODEL 4
REMARK VINA RESULT:    -7.454      2.312      4.277
REMARK INTER + INTRA:         -11.099
REMARK INTER:                 -10.002
REMARK INTRA:                  -1.096
REMARK UNBOUND:                -0.812
REMARK  Name = 
REMARK  7 active torsions:
REMARK  status: ('A' for Active; 'I' for Inactive)
REMARK    1  A    between atoms: N_1  and  C_2
REMARK    2  A    between atoms: C_2  and  C_3
REMARK    3  A    between atoms: C_3  and  N_4
REMARK    4  A    between atoms: C_3  and  C_17
REMARK    5  A    between atoms: C_5  and  C_7
REMARK    6  A    between atoms: C_20  and  C_21
REMARK    7  A    between atoms: C_21  and  C_22
REMARK                            x       y       z     vdW  Elec       q    Type
REMARK                         _______ _______ _______ _____ _____    ______ ____
ROOT
ATOM      1  C   UNL     1      46.931   5.046  14.979  0.00  0.00    +0.000 C 
ENDROOT
BRANCH   1   2
ATOM      2  C   UNL     1      46.281   4.795  13.618  0.00  0.00    +0.000 A 
ATOM      3  C   UNL     1      46.123   5.849  12.710  0.00  0.00    +0.000 A 
ATOM      4  C   UNL     1      45.530   5.639  11.462  0.00  0.00    +0.000 A 
ATOM      5  C   UNL     1      45.094   4.363  11.079  0.00  0.00    +0.000 A 
ATOM      6  C   UNL     1      45.259   3.303  11.979  0.00  0.00    +0.000 A 
ATOM      7  C   UNL     1      45.841   3.517  13.235  0.00  0.00    +0.000 A 
BRANCH   5   8
ATOM      8  C   UNL     1      44.441   4.140   9.731  0.00  0.00    +0.000 C 
BRANCH   8   9
ATOM      9  C   UNL     1      45.277   3.439   8.680  0.00  0.00    +0.000 A 
ATOM     10  C   UNL     1      45.515   2.065   8.740  0.00  0.00    +0.000 A 
ATOM     11  C   UNL     1      46.410   1.488   7.841  0.00  0.00    +0.000 A 
ATOM     12  C   UNL     1      47.046   2.290   6.904  0.00  0.00    +0.000 A 
ATOM     13  C   UNL     1      46.748   3.641   6.895  0.00  0.00    +0.000 A 
ATOM     14  N   UNL     1      45.886   4.229   7.757  0.00  0.00    +0.000 NA
ENDBRANCH   8   9
ENDBRANCH   5   8
ENDBRANCH   1   2
BRANCH   1  15
ATOM     15  N   UNL     1      48.032   5.991  14.811  0.00  0.00    +0.000 N 
ATOM     16  C   UNL     1      48.694   6.544  15.878  0.00  0.00    +0.000 C 
ATOM     17  O   UNL     1      48.503   6.189  17.037  0.00  0.00    +0.000 OA
ATOM     18  H   UNL     1      48.048   6.495  13.928  0.00  0.00    +0.000 HD
BRANCH  16  19
ATOM     19  C   UNL     1      49.694   7.568  15.570  0.00  0.00    +0.000 A 
ATOM     20  C   UNL     1      51.007   7.405  15.990  0.00  0.00    +0.000 A 
ATOM     21  S   UNL     1      52.016   8.722  15.595  0.00  0.00    +0.000 S 
ATOM     22  C   UNL     1      50.722   9.571  14.887  0.00  0.00    +0.000 A 
ATOM     23  N   UNL     1      50.892  10.830  14.402  0.00  0.00    +0.000 NA
ATOM     24  C   UNL     1      49.815  11.368  13.933  0.00  0.00    +0.000 A 
ATOM     25  N   UNL     1      48.590  10.753  13.885  0.00  0.00    +0.000 N 
ATOM     26  C   UNL     1      48.388   9.462  14.303  0.00  0.00    +0.000 A 
ATOM     27  O   UNL     1      47.312   8.895  14.147  0.00  0.00    +0.000 OA
ATOM     28  C   UNL     1      49.552   8.833  14.901  0.00  0.00    +0.000 A 
ATOM     29  H   UNL     1      47.794  11.215  13.470  0.00  0.00    +0.000 HD
ENDBRANCH  16  19
ENDBRANCH   1  15
BRANCH   1  30
ATOM     30  C   UNL     1      47.385   3.720  15.666  0.00  0.00    +0.000 C 
BRANCH  30  31
ATOM     31  N   UNL     1      46.793   3.480  16.991  0.00  0.00    +0.000 NA
ATOM     32  H   UNL     1      46.944   2.504  17.242  0.00  0.00    +0.000 HD
ATOM     33  H   UNL     1      45.782   3.609  16.937  0.00  0.00    +0.000 HD
ENDBRANCH  30  31
ENDBRANCH   1  30
TORSDOF 7
ENDMDL
MODEL 5
REMARK VINA RESULT:    -7.118      2.815      4.182
REMARK INTER + INTRA:         -10.635
REMARK INTER:                  -9.721
REMARK INTRA:                  -0.914
REMARK UNBOUND:                -0.812
REMARK  Name = 
REMARK  7 active torsions:
REMARK  status: ('A' for Active; 'I' for Inactive)
REMARK    1  A    between atoms: N_1  and  C_2
REMARK    2  A    between atoms: C_2  and  C_3
REMARK    3  A    between atoms: C_3  and  N_4
REMARK    4  A    between atoms: C_3  and  C_17
REMARK    5  A    between atoms: C_5  and  C_7
REMARK    6  A    between atoms: C_20  and  C_21
REMARK    7  A    between atoms: C_21  and  C_22
REMARK                            x       y       z     vdW  Elec       q    Type
REMARK                         _______ _______ _______ _____ _____    ______ ____
ROOT
ATOM      1  C   UNL     1      47.146   5.093  14.980  0.00  0.00    +0.000 C 
ENDROOT
BRANCH   1   2
ATOM      2  C   UNL     1      46.451   4.854  13.640  0.00  0.00    +0.000 A 
ATOM      3  C   UNL     1      46.382   5.883  12.691  0.00  0.00    +0.000 A 
ATOM      4  C   UNL     1      45.750   5.683  11.460  0.00  0.00    +0.000 A 
ATOM      5  C   UNL     1      45.183   4.443  11.136  0.00  0.00    +0.000 A 
ATOM      6  C   UNL     1      45.258   3.408  12.077  0.00  0.00    +0.000 A 
ATOM      7  C   UNL     1      45.880   3.612  13.314  0.00  0.00    +0.000 A 
BRANCH   5   8
ATOM      8  C   UNL     1      44.488   4.234   9.806  0.00  0.00    +0.000 C 
BRANCH   8   9
ATOM      9  C   UNL     1      45.264   3.479   8.747  0.00  0.00    +0.000 A 
ATOM     10  C   UNL     1      45.484   2.105   8.850  0.00  0.00    +0.000 A 
ATOM     11  C   UNL     1      46.329   1.479   7.934  0.00  0.00    +0.000 A 
ATOM     12  C   UNL     1      46.932   2.234   6.939  0.00  0.00    +0.000 A 
ATOM     13  C   UNL     1      46.655   3.588   6.891  0.00  0.00    +0.000 A 
ATOM     14  N   UNL     1      45.842   4.223   7.768  0.00  0.00    +0.000 NA
ENDBRANCH   8   9
ENDBRANCH   5   8
ENDBRANCH   1   2
BRANCH   1  15
ATOM     15  N   UNL     1      48.353   5.884  14.754  0.00  0.00    +0.000 N 
ATOM     16  C   UNL     1      48.892   6.692  15.723  0.00  0.00    +0.000 C 
ATOM     17  O   UNL     1      48.486   6.707  16.880  0.00  0.00    +0.000 OA
ATOM     18  H   UNL     1      48.559   6.103  13.783  0.00  0.00    +0.000 HD
BRANCH  16  19
ATOM     19  C   UNL     1      50.030   7.523  15.323  0.00  0.00    +0.000 A 
ATOM     20  C   UNL     1      49.826   8.642  14.528  0.00  0.00    +0.000 A 
ATOM     21  S   UNL     1      51.267   9.454  14.112  0.00  0.00    +0.000 S 
ATOM     22  C   UNL     1      52.214   8.312  14.947  0.00  0.00    +0.000 A 
ATOM     23  N   UNL     1      53.572   8.382  14.932  0.00  0.00    +0.000 NA
ATOM     24  C   UNL     1      54.161   7.426  15.571  0.00  0.00    +0.000 A 
ATOM     25  N   UNL     1      53.514   6.420  16.242  0.00  0.00    +0.000 N 
ATOM     26  C   UNL     1      52.147   6.347  16.338  0.00  0.00    +0.000 A 
ATOM     27  O   UNL     1      51.594   5.504  17.037  0.00  0.00    +0.000 OA
ATOM     28  C   UNL     1      51.436   7.361  15.581  0.00  0.00    +0.000 A 
ATOM     29  H   UNL     1      54.033   5.722  16.757  0.00  0.00    +0.000 HD
ENDBRANCH  16  19
ENDBRANCH   1  15
BRANCH   1  30
ATOM     30  C   UNL     1      47.442   3.758  15.733  0.00  0.00    +0.000 C 
BRANCH  30  31
ATOM     31  N   UNL     1      46.741   3.607  17.017  0.00  0.00    +0.000 NA
ATOM     32  H   UNL     1      47.426   3.672  17.769  0.00  0.00    +0.000 HD
ATOM     33  H   UNL     1      46.339   2.671  17.073  0.00  0.00    +0.000 HD
ENDBRANCH  30  31
ENDBRANCH   1  30
TORSDOF 7
ENDMDL
MODEL 6
REMARK VINA RESULT:    -6.992      1.890      2.599
REMARK INTER + INTRA:         -10.461
REMARK INTER:                  -9.222
REMARK INTRA:                  -1.240
REMARK UNBOUND:                -0.812
REMARK  Name = 
REMARK  7 active torsions:
REMARK  status: ('A' for Active; 'I' for Inactive)
REMARK    1  A    between atoms: N_1  and  C_2
REMARK    2  A    between atoms: C_2  and  C_3
REMARK    3  A    between atoms: C_3  and  N_4
REMARK    4  A    between atoms: C_3  and  C_17
REMARK    5  A    between atoms: C_5  and  C_7
REMARK    6  A    between atoms: C_20  and  C_21
REMARK    7  A    between atoms: C_21  and  C_22
REMARK                            x       y       z     vdW  Elec       q    Type
REMARK                         _______ _______ _______ _____ _____    ______ ____
ROOT
ATOM      1  C   UNL     1      48.296   8.111  13.697  0.00  0.00    +0.000 C 
ENDROOT
BRANCH   1   2
ATOM      2  C   UNL     1      47.281   7.291  12.901  0.00  0.00    +0.000 A 
ATOM      3  C   UNL     1      46.300   7.936  12.138  0.00  0.00    +0.000 A 
ATOM      4  C   UNL     1      45.362   7.203  11.404  0.00  0.00    +0.000 A 
ATOM      5  C   UNL     1      45.390   5.801  11.400  0.00  0.00    +0.000 A 
ATOM      6  C   UNL     1      46.375   5.151  12.153  0.00  0.00    +0.000 A 
ATOM      7  C   UNL     1      47.306   5.886  12.898  0.00  0.00    +0.000 A 
BRANCH   5   8
ATOM      8  C   UNL     1      44.365   5.010  10.614  0.00  0.00    +0.000 C 
BRANCH   8   9
ATOM      9  C   UNL     1      44.903   4.066   9.558  0.00  0.00    +0.000 A 
ATOM     10  C   UNL     1      44.819   2.682   9.711  0.00  0.00    +0.000 A 
ATOM     11  C   UNL     1      45.459   1.855   8.789  0.00  0.00    +0.000 A 
ATOM     12  C   UNL     1      46.164   2.423   7.738  0.00  0.00    +0.000 A 
ATOM     13  C   UNL     1      46.190   3.802   7.644  0.00  0.00    +0.000 A 
ATOM     14  N   UNL     1      45.582   4.630   8.524  0.00  0.00    +0.000 NA
ENDBRANCH   8   9
ENDBRANCH   5   8
ENDBRANCH   1   2
BRANCH   1  15
ATOM     15  N   UNL     1      48.300   7.646  15.081  0.00  0.00    +0.000 N 
ATOM     16  C   UNL     1      49.459   7.489  15.799  0.00  0.00    +0.000 C 
ATOM     17  O   UNL     1      50.554   7.851  15.383  0.00  0.00    +0.000 OA
ATOM     18  H   UNL     1      47.487   7.106  15.366  0.00  0.00    +0.000 HD
BRANCH  16  19
ATOM     19  C   UNL     1      49.327   6.898  17.133  0.00  0.00    +0.000 A 
ATOM     20  C   UNL     1      49.728   7.616  18.252  0.00  0.00    +0.000 A 
ATOM     21  S   UNL     1      49.559   6.751  19.712  0.00  0.00    +0.000 S 
ATOM     22  C   UNL     1      48.985   5.374  18.892  0.00  0.00    +0.000 A 
ATOM     23  N   UNL     1      48.710   4.223  19.562  0.00  0.00    +0.000 NA
ATOM     24  C   UNL     1      48.324   3.248  18.808  0.00  0.00    +0.000 A 
ATOM     25  N   UNL     1      48.168   3.327  17.448  0.00  0.00    +0.000 N 
ATOM     26  C   UNL     1      48.371   4.485  16.740  0.00  0.00    +0.000 A 
ATOM     27  O   UNL     1      48.115   4.562  15.542  0.00  0.00    +0.000 OA
ATOM     28  C   UNL     1      48.869   5.595  17.532  0.00  0.00    +0.000 A 
ATOM     29  H   UNL     1      47.824   2.538  16.918  0.00  0.00    +0.000 HD
ENDBRANCH  16  19
ENDBRANCH   1  15
BRANCH   1  30
ATOM     30  C   UNL     1      48.028   9.645  13.585  0.00  0.00    +0.000 C 
BRANCH  30  31
ATOM     31  N   UNL     1      49.112  10.497  14.094  0.00  0.00    +0.000 NA
ATOM     32  H   UNL     1      49.275  10.264  15.073  0.00  0.00    +0.000 HD
ATOM     33  H   UNL     1      48.811  11.472  14.077  0.00  0.00    +0.000 HD
ENDBRANCH  30  31
ENDBRANCH   1  30
TORSDOF 7
ENDMDL
MODEL 7
REMARK VINA RESULT:    -6.928      3.638      8.295
REMARK INTER + INTRA:         -10.372
REMARK INTER:                  -9.360
REMARK INTRA:                  -1.012
REMARK UNBOUND:                -0.812
REMARK  Name = 
REMARK  7 active torsions:
REMARK  status: ('A' for Active; 'I' for Inactive)
REMARK    1  A    between atoms: N_1  and  C_2
REMARK    2  A    between atoms: C_2  and  C_3
REMARK    3  A    between atoms: C_3  and  N_4
REMARK    4  A    between atoms: C_3  and  C_17
REMARK    5  A    between atoms: C_5  and  C_7
REMARK    6  A    between atoms: C_20  and  C_21
REMARK    7  A    between atoms: C_21  and  C_22
REMARK                            x       y       z     vdW  Elec       q    Type
REMARK                         _______ _______ _______ _____ _____    ______ ____
ROOT
ATOM      1  C   UNL     1      47.802   4.094  16.515  0.00  0.00    +0.000 C 
ENDROOT
BRANCH   1   2
ATOM      2  C   UNL     1      49.154   4.785  16.693  0.00  0.00    +0.000 A 
ATOM      3  C   UNL     1      50.198   4.126  17.354  0.00  0.00    +0.000 A 
ATOM      4  C   UNL     1      51.442   4.742  17.527  0.00  0.00    +0.000 A 
ATOM      5  C   UNL     1      51.681   6.031  17.029  0.00  0.00    +0.000 A 
ATOM      6  C   UNL     1      50.643   6.690  16.359  0.00  0.00    +0.000 A 
ATOM      7  C   UNL     1      49.394   6.078  16.197  0.00  0.00    +0.000 A 
BRANCH   5   8
ATOM      8  C   UNL     1      53.024   6.700  17.229  0.00  0.00    +0.000 C 
BRANCH   8   9
ATOM      9  C   UNL     1      54.051   6.500  16.134  0.00  0.00    +0.000 A 
ATOM     10  C   UNL     1      54.008   7.243  14.954  0.00  0.00    +0.000 A 
ATOM     11  C   UNL     1      54.880   6.921  13.914  0.00  0.00    +0.000 A 
ATOM     12  C   UNL     1      55.772   5.871  14.073  0.00  0.00    +0.000 A 
ATOM     13  C   UNL     1      55.766   5.190  15.276  0.00  0.00    +0.000 A 
ATOM     14  N   UNL     1      54.931   5.477  16.302  0.00  0.00    +0.000 NA
ENDBRANCH   8   9
ENDBRANCH   5   8
ENDBRANCH   1   2
BRANCH   1  15
ATOM     15  N   UNL     1      47.003   4.857  15.561  0.00  0.00    +0.000 N 
ATOM     16  C   UNL     1      46.904   4.504  14.238  0.00  0.00    +0.000 C 
ATOM     17  O   UNL     1      47.365   3.458  13.792  0.00  0.00    +0.000 OA
ATOM     18  H   UNL     1      46.832   5.828  15.807  0.00  0.00    +0.000 HD
BRANCH  16  19
ATOM     19  C   UNL     1      46.171   5.425  13.367  0.00  0.00    +0.000 A 
ATOM     20  C   UNL     1      46.647   6.713  13.163  0.00  0.00    +0.000 A 
ATOM     21  S   UNL     1      45.636   7.662  12.170  0.00  0.00    +0.000 S 
ATOM     22  C   UNL     1      44.508   6.396  12.016  0.00  0.00    +0.000 A 
ATOM     23  N   UNL     1      43.345   6.572  11.334  0.00  0.00    +0.000 NA
ATOM     24  C   UNL     1      42.567   5.541  11.335  0.00  0.00    +0.000 A 
ATOM     25  N   UNL     1      42.857   4.344  11.937  0.00  0.00    +0.000 N 
ATOM     26  C   UNL     1      44.045   4.101  12.579  0.00  0.00    +0.000 A 
ATOM     27  O   UNL     1      44.329   2.988  13.012  0.00  0.00    +0.000 OA
ATOM     28  C   UNL     1      44.929   5.249  12.664  0.00  0.00    +0.000 A 
ATOM     29  H   UNL     1      42.221   3.561  11.869  0.00  0.00    +0.000 HD
ENDBRANCH  16  19
ENDBRANCH   1  15
BRANCH   1  30
ATOM     30  C   UNL     1      47.066   3.886  17.876  0.00  0.00    +0.000 C 
BRANCH  30  31
ATOM     31  N   UNL     1      46.547   5.119  18.489  0.00  0.00    +0.000 NA
ATOM     32  H   UNL     1      47.320   5.604  18.944  0.00  0.00    +0.000 HD
ATOM     33  H   UNL     1      45.886   4.875  19.227  0.00  0.00    +0.000 HD
ENDBRANCH  30  31
ENDBRANCH   1  30
TORSDOF 7
ENDMDL
MODEL 8
REMARK VINA RESULT:    -6.629      3.042      8.355
REMARK INTER + INTRA:          -9.960
REMARK INTER:                  -8.852
REMARK INTRA:                  -1.108
REMARK UNBOUND:                -0.812
REMARK  Name = 
REMARK  7 active torsions:
REMARK  status: ('A' for Active; 'I' for Inactive)
REMARK    1  A    between atoms: N_1  and  C_2
REMARK    2  A    between atoms: C_2  and  C_3
REMARK    3  A    between atoms: C_3  and  N_4
REMARK    4  A    between atoms: C_3  and  C_17
REMARK    5  A    between atoms: C_5  and  C_7
REMARK    6  A    between atoms: C_20  and  C_21
REMARK    7  A    between atoms: C_21  and  C_22
REMARK                            x       y       z     vdW  Elec       q    Type
REMARK                         _______ _______ _______ _____ _____    ______ ____
ROOT
ATOM      1  C   UNL     1      47.615   6.831  13.338  0.00  0.00    +0.000 C 
ENDROOT
BRANCH   1   2
ATOM      2  C   UNL     1      48.098   6.233  14.659  0.00  0.00    +0.000 A 
ATOM      3  C   UNL     1      47.460   5.108  15.195  0.00  0.00    +0.000 A 
ATOM      4  C   UNL     1      47.887   4.547  16.403  0.00  0.00    +0.000 A 
ATOM      5  C   UNL     1      48.977   5.087  17.101  0.00  0.00    +0.000 A 
ATOM      6  C   UNL     1      49.624   6.206  16.564  0.00  0.00    +0.000 A 
ATOM      7  C   UNL     1      49.188   6.775  15.361  0.00  0.00    +0.000 A 
BRANCH   5   8
ATOM      8  C   UNL     1      49.428   4.485  18.415  0.00  0.00    +0.000 C 
BRANCH   8   9
ATOM      9  C   UNL     1      50.861   3.995  18.479  0.00  0.00    +0.000 A 
ATOM     10  C   UNL     1      51.305   2.944  17.676  0.00  0.00    +0.000 A 
ATOM     11  C   UNL     1      52.585   2.429  17.874  0.00  0.00    +0.000 A 
ATOM     12  C   UNL     1      53.391   2.971  18.864  0.00  0.00    +0.000 A 
ATOM     13  C   UNL     1      52.888   4.021  19.610  0.00  0.00    +0.000 A 
ATOM     14  N   UNL     1      51.650   4.540  19.442  0.00  0.00    +0.000 NA
ENDBRANCH   8   9
ENDBRANCH   5   8
ENDBRANCH   1   2
BRANCH   1  15
ATOM     15  N   UNL     1      46.845   5.823  12.615  0.00  0.00    +0.000 N 
ATOM     16  C   UNL     1      45.491   5.935  12.420  0.00  0.00    +0.000 C 
ATOM     17  O   UNL     1      44.856   6.941  12.717  0.00  0.00    +0.000 OA
ATOM     18  H   UNL     1      47.255   4.893  12.587  0.00  0.00    +0.000 HD
BRANCH  16  19
ATOM     19  C   UNL     1      44.825   4.794  11.787  0.00  0.00    +0.000 A 
ATOM     20  C   UNL     1      44.012   3.960  12.542  0.00  0.00    +0.000 A 
ATOM     21  S   UNL     1      43.368   2.653  11.656  0.00  0.00    +0.000 S 
ATOM     22  C   UNL     1      44.190   3.135  10.245  0.00  0.00    +0.000 A 
ATOM     23  N   UNL     1      44.126   2.393   9.108  0.00  0.00    +0.000 NA
ATOM     24  C   UNL     1      44.832   2.855   8.130  0.00  0.00    +0.000 A 
ATOM     25  N   UNL     1      45.579   4.004   8.181  0.00  0.00    +0.000 N 
ATOM     26  C   UNL     1      45.620   4.818   9.285  0.00  0.00    +0.000 A 
ATOM     27  O   UNL     1      46.203   5.897   9.269  0.00  0.00    +0.000 OA
ATOM     28  C   UNL     1      44.896   4.309  10.435  0.00  0.00    +0.000 A 
ATOM     29  H   UNL     1      46.079   4.334   7.367  0.00  0.00    +0.000 HD
ENDBRANCH  16  19
ENDBRANCH   1  15
BRANCH   1  30
ATOM     30  C   UNL     1      48.793   7.403  12.488  0.00  0.00    +0.000 C 
BRANCH  30  31
ATOM     31  N   UNL     1      48.496   8.666  11.795  0.00  0.00    +0.000 NA
ATOM     32  H   UNL     1      48.208   9.355  12.488  0.00  0.00    +0.000 HD
ATOM     33  H   UNL     1      47.696   8.530  11.176  0.00  0.00    +0.000 HD
ENDBRANCH  30  31
ENDBRANCH   1  30
TORSDOF 7
ENDMDL
MODEL 9
REMARK VINA RESULT:    -6.626      4.074      8.744
REMARK INTER + INTRA:          -9.956
REMARK INTER:                  -9.112
REMARK INTRA:                  -0.844
REMARK UNBOUND:                -0.812
REMARK  Name = 
REMARK  7 active torsions:
REMARK  status: ('A' for Active; 'I' for Inactive)
REMARK    1  A    between atoms: N_1  and  C_2
REMARK    2  A    between atoms: C_2  and  C_3
REMARK    3  A    between atoms: C_3  and  N_4
REMARK    4  A    between atoms: C_3  and  C_17
REMARK    5  A    between atoms: C_5  and  C_7
REMARK    6  A    between atoms: C_20  and  C_21
REMARK    7  A    between atoms: C_21  and  C_22
REMARK                            x       y       z     vdW  Elec       q    Type
REMARK                         _______ _______ _______ _____ _____    ______ ____
ROOT
ATOM      1  C   UNL     1      48.006   3.935  17.389  0.00  0.00    +0.000 C 
ENDROOT
BRANCH   1   2
ATOM      2  C   UNL     1      49.523   3.763  17.477  0.00  0.00    +0.000 A 
ATOM      3  C   UNL     1      50.089   2.484  17.413  0.00  0.00    +0.000 A 
ATOM      4  C   UNL     1      51.474   2.307  17.493  0.00  0.00    +0.000 A 
ATOM      5  C   UNL     1      52.333   3.407  17.623  0.00  0.00    +0.000 A 
ATOM      6  C   UNL     1      51.772   4.689  17.678  0.00  0.00    +0.000 A 
ATOM      7  C   UNL     1      50.384   4.865  17.611  0.00  0.00    +0.000 A 
BRANCH   5   8
ATOM      8  C   UNL     1      53.832   3.211  17.722  0.00  0.00    +0.000 C 
BRANCH   8   9
ATOM      9  C   UNL     1      54.328   1.780  17.742  0.00  0.00    +0.000 A 
ATOM     10  C   UNL     1      54.824   1.167  16.591  0.00  0.00    +0.000 A 
ATOM     11  C   UNL     1      55.128  -0.193  16.619  0.00  0.00    +0.000 A 
ATOM     12  C   UNL     1      54.932  -0.910  17.790  0.00  0.00    +0.000 A 
ATOM     13  C   UNL     1      54.451  -0.232  18.895  0.00  0.00    +0.000 A 
ATOM     14  N   UNL     1      54.145   1.087  18.897  0.00  0.00    +0.000 NA
ENDBRANCH   8   9
ENDBRANCH   5   8
ENDBRANCH   1   2
BRANCH   1  15
ATOM     15  N   UNL     1      47.695   4.833  16.280  0.00  0.00    +0.000 N 
ATOM     16  C   UNL     1      47.492   4.376  15.002  0.00  0.00    +0.000 C 
ATOM     17  O   UNL     1      47.423   3.184  14.723  0.00  0.00    +0.000 OA
ATOM     18  H   UNL     1      47.992   5.798  16.399  0.00  0.00    +0.000 HD
BRANCH  16  19
ATOM     19  C   UNL     1      47.311   5.394  13.964  0.00  0.00    +0.000 A 
ATOM     20  C   UNL     1      48.316   6.319  13.717  0.00  0.00    +0.000 A 
ATOM     21  S   UNL     1      47.909   7.463  12.520  0.00  0.00    +0.000 S 
ATOM     22  C   UNL     1      46.359   6.786  12.324  0.00  0.00    +0.000 A 
ATOM     23  N   UNL     1      45.451   7.344  11.479  0.00  0.00    +0.000 NA
ATOM     24  C   UNL     1      44.304   6.751  11.464  0.00  0.00    +0.000 A 
ATOM     25  N   UNL     1      43.991   5.637  12.199  0.00  0.00    +0.000 N 
ATOM     26  C   UNL     1      44.895   5.003  13.014  0.00  0.00    +0.000 A 
ATOM     27  O   UNL     1      44.627   3.945  13.574  0.00  0.00    +0.000 OA
ATOM     28  C   UNL     1      46.180   5.668  13.118  0.00  0.00    +0.000 A 
ATOM     29  H   UNL     1      43.086   5.196  12.113  0.00  0.00    +0.000 HD
ENDBRANCH  16  19
ENDBRANCH   1  15
BRANCH   1  30
ATOM     30  C   UNL     1      47.392   4.422  18.739  0.00  0.00    +0.000 C 
BRANCH  30  31
ATOM     31  N   UNL     1      46.430   5.527  18.614  0.00  0.00    +0.000 NA
ATOM     32  H   UNL     1      46.789   6.329  19.131  0.00  0.00    +0.000 HD
ATOM     33  H   UNL     1      45.553   5.263  19.064  0.00  0.00    +0.000 HD
ENDBRANCH  30  31
ENDBRANCH   1  30
TORSDOF 7
ENDMDL
