MODEL 1
REMARK VINA RESULT:    -8.375      0.000      0.000
REMARK INTER + INTRA:         -12.990
REMARK INTER:                 -11.557
REMARK INTRA:                  -1.433
REMARK UNBOUND:                -1.433
REMARK  Name = 
REMARK  8 active torsions:
REMARK  status: ('A' for Active; 'I' for Inactive)
REMARK    1  A    between atoms: C_1  and  C_2
REMARK    2  A    between atoms: C_2  and  C_3
REMARK    3  A    between atoms: C_7  and  C_8
REMARK    4  A    between atoms: C_8  and  C_9
REMARK    5  A    between atoms: C_9  and  C_10
REMARK    6  A    between atoms: C_10  and  C_11
REMARK    7  A    between atoms: C_14  and  C_15
REMARK    8  A    between atoms: C_23  and  O_24
REMARK                            x       y       z     vdW  Elec       q    Type
REMARK                         _______ _______ _______ _____ _____    ______ ____
ROOT
ATOM      1  C   UNL     1      44.676   3.677   9.582  0.00  0.00    +0.000 A 
ATOM      2  C   UNL     1      44.062   2.802  10.497  0.00  0.00    +0.000 A 
ATOM      3  C   UNL     1      43.543   3.269  11.705  0.00  0.00    +0.000 A 
ATOM      4  C   UNL     1      43.641   4.619  12.033  0.00  0.00    +0.000 A 
ATOM      5  C   UNL     1      44.248   5.517  11.149  0.00  0.00    +0.000 A 
ATOM      6  C   UNL     1      44.716   5.041   9.919  0.00  0.00    +0.000 A 
ENDROOT
BRANCH   1   8
ATOM      7  C   UNL     1      44.301   3.006   7.228  0.00  0.00    +0.000 C 
ATOM      8  C   UNL     1      45.386   3.125   8.329  0.00  0.00    +0.000 C 
ATOM      9  C   UNL     1      46.520   4.088   7.883  0.00  0.00    +0.000 C 
ATOM     10  C   UNL     1      47.333   3.560   6.698  0.00  0.00    +0.000 C 
ATOM     11  C   UNL     1      47.893   2.165   6.960  0.00  0.00    +0.000 C 
ATOM     12  C   UNL     1      46.808   1.184   7.382  0.00  0.00    +0.000 C 
ATOM     13  C   UNL     1      46.014   1.718   8.567  0.00  0.00    +0.000 C 
BRANCH  11  14
ATOM     14  O   UNL     1      48.536   1.680   5.786  0.00  0.00    +0.000 OA
ATOM     15  H   UNL     1      48.852   2.448   5.278  0.00  0.00    +0.000 HD
ENDBRANCH  11  14
ENDBRANCH   1   8
BRANCH   5  16
ATOM     16  C   UNL     1      44.497   6.963  11.523  0.00  0.00    +0.000 C 
BRANCH  16  17
ATOM     17  C   UNL     1      45.369   7.054  12.781  0.00  0.00    +0.000 C 
BRANCH  17  18
ATOM     18  C   UNL     1      46.794   6.540  12.571  0.00  0.00    +0.000 C 
BRANCH  18  19
ATOM     19  C   UNL     1      47.151   5.507  13.612  0.00  0.00    +0.000 A 
ATOM     20  C   UNL     1      47.830   5.833  14.768  0.00  0.00    +0.000 A 
ATOM     21  N   UNL     1      48.213   4.932  15.699  0.00  0.00    +0.000 NA
ATOM     22  C   UNL     1      47.891   3.645  15.425  0.00  0.00    +0.000 A 
ATOM     23  N   UNL     1      47.235   3.213  14.331  0.00  0.00    +0.000 NA
ATOM     24  C   UNL     1      46.879   4.163  13.442  0.00  0.00    +0.000 A 
BRANCH  22  25
ATOM     25  C   UNL     1      48.327   2.608  16.441  0.00  0.00    +0.000 C 
ATOM     26  N   UNL     1      47.661   2.641  17.646  0.00  0.00    +0.000 N 
ATOM     27  O   UNL     1      49.208   1.782  16.244  0.00  0.00    +0.000 OA
ATOM     28  H   UNL     1      46.940   3.332  17.813  0.00  0.00    +0.000 HD
ATOM     29  H   UNL     1      47.916   1.977  18.362  0.00  0.00    +0.000 HD
ENDBRANCH  22  25
ENDBRANCH  18  19
ENDBRANCH  17  18
ENDBRANCH  16  17
ENDBRANCH   5  16
TORSDOF 7
ENDMDL
MODEL 2
REMARK VINA RESULT:    -7.423      3.779      7.388
REMARK INTER + INTRA:         -11.677
REMARK INTER:                 -10.483
REMARK INTRA:                  -1.194
REMARK UNBOUND:                -1.433
REMARK  Name = 
REMARK  8 active torsions:
REMARK  status: ('A' for Active; 'I' for Inactive)
REMARK    1  A    between atoms: C_1  and  C_2
REMARK    2  A    between atoms: C_2  and  C_3
REMARK    3  A    between atoms: C_7  and  C_8
REMARK    4  A    between atoms: C_8  and  C_9
REMARK    5  A    between atoms: C_9  and  C_10
REMARK    6  A    between atoms: C_10  and  C_11
REMARK    7  A    between atoms: C_14  and  C_15
REMARK    8  A    between atoms: C_23  and  O_24
REMARK                            x       y       z     vdW  Elec       q    Type
REMARK                         _______ _______ _______ _____ _____    ______ ____
ROOT
ATOM      1  C   UNL     1      47.128   6.605  13.103  0.00  0.00    +0.000 A 
ATOM      2  C   UNL     1      47.573   5.539  13.906  0.00  0.00    +0.000 A 
ATOM      3  C   UNL     1      46.762   4.432  14.151  0.00  0.00    +0.000 A 
ATOM      4  C   UNL     1      45.479   4.370  13.610  0.00  0.00    +0.000 A 
ATOM      5  C   UNL     1      45.002   5.413  12.809  0.00  0.00    +0.000 A 
ATOM      6  C   UNL     1      45.848   6.493  12.532  0.00  0.00    +0.000 A 
ENDROOT
BRANCH   1   8
ATOM      7  C   UNL     1      48.810   7.996  14.271  0.00  0.00    +0.000 C 
ATOM      8  C   UNL     1      47.968   7.892  12.973  0.00  0.00    +0.000 C 
ATOM      9  C   UNL     1      48.887   7.814  11.725  0.00  0.00    +0.000 C 
ATOM     10  C   UNL     1      49.685   9.096  11.478  0.00  0.00    +0.000 C 
ATOM     11  C   UNL     1      48.787  10.328  11.399  0.00  0.00    +0.000 C 
ATOM     12  C   UNL     1      47.882  10.451  12.618  0.00  0.00    +0.000 C 
ATOM     13  C   UNL     1      47.088   9.172  12.845  0.00  0.00    +0.000 C 
BRANCH  11  14
ATOM     14  O   UNL     1      49.589  11.498  11.288  0.00  0.00    +0.000 OA
ATOM     15  H   UNL     1      49.271  12.143  11.944  0.00  0.00    +0.000 HD
ENDBRANCH  11  14
ENDBRANCH   1   8
BRANCH   5  16
ATOM     16  C   UNL     1      43.571   5.451  12.315  0.00  0.00    +0.000 C 
BRANCH  16  17
ATOM     17  C   UNL     1      43.495   5.031  10.842  0.00  0.00    +0.000 C 
BRANCH  17  18
ATOM     18  C   UNL     1      43.776   3.544  10.619  0.00  0.00    +0.000 C 
BRANCH  18  19
ATOM     19  C   UNL     1      44.750   3.346   9.485  0.00  0.00    +0.000 A 
ATOM     20  C   UNL     1      45.176   4.390   8.689  0.00  0.00    +0.000 A 
ATOM     21  N   UNL     1      46.006   4.247   7.634  0.00  0.00    +0.000 NA
ATOM     22  C   UNL     1      46.407   2.978   7.381  0.00  0.00    +0.000 A 
ATOM     23  N   UNL     1      46.054   1.886   8.085  0.00  0.00    +0.000 NA
ATOM     24  C   UNL     1      45.226   2.098   9.128  0.00  0.00    +0.000 A 
BRANCH  22  25
ATOM     25  C   UNL     1      47.322   2.783   6.189  0.00  0.00    +0.000 C 
ATOM     26  N   UNL     1      48.613   2.406   6.486  0.00  0.00    +0.000 N 
ATOM     27  O   UNL     1      46.977   2.942   5.025  0.00  0.00    +0.000 OA
ATOM     28  H   UNL     1      48.901   2.287   7.448  0.00  0.00    +0.000 HD
ATOM     29  H   UNL     1      49.267   2.270   5.729  0.00  0.00    +0.000 HD
ENDBRANCH  22  25
ENDBRANCH  18  19
ENDBRANCH  17  18
ENDBRANCH  16  17
ENDBRANCH   5  16
TORSDOF 7
ENDMDL
MODEL 3
REMARK VINA RESULT:    -7.330      2.900      4.563
REMARK INTER + INTRA:         -11.549
REMARK INTER:                  -9.994
REMARK INTRA:                  -1.555
REMARK UNBOUND:                -1.433
REMARK  Name = 
REMARK  8 active torsions:
REMARK  status: ('A' for Active; 'I' for Inactive)
REMARK    1  A    between atoms: C_1  and  C_2
REMARK    2  A    between atoms: C_2  and  C_3
REMARK    3  A    between atoms: C_7  and  C_8
REMARK    4  A    between atoms: C_8  and  C_9
REMARK    5  A    between atoms: C_9  and  C_10
REMARK    6  A    between atoms: C_10  and  C_11
REMARK    7  A    between atoms: C_14  and  C_15
REMARK    8  A    between atoms: C_23  and  O_24
REMARK                            x       y       z     vdW  Elec       q    Type
REMARK                         _______ _______ _______ _____ _____    ______ ____
ROOT
ATOM      1  C   UNL     1      45.890   7.056  11.642  0.00  0.00    +0.000 A 
ATOM      2  C   UNL     1      45.102   8.129  12.099  0.00  0.00    +0.000 A 
ATOM      3  C   UNL     1      45.685   9.319  12.534  0.00  0.00    +0.000 A 
ATOM      4  C   UNL     1      47.071   9.459  12.538  0.00  0.00    +0.000 A 
ATOM      5  C   UNL     1      47.886   8.412  12.094  0.00  0.00    +0.000 A 
ATOM      6  C   UNL     1      47.282   7.244  11.612  0.00  0.00    +0.000 A 
ENDROOT
BRANCH   1   8
ATOM      7  C   UNL     1      45.661   5.348   9.865  0.00  0.00    +0.000 C 
ATOM      8  C   UNL     1      45.244   5.694  11.318  0.00  0.00    +0.000 C 
ATOM      9  C   UNL     1      45.746   4.609  12.309  0.00  0.00    +0.000 C 
ATOM     10  C   UNL     1      45.076   3.247  12.108  0.00  0.00    +0.000 C 
ATOM     11  C   UNL     1      43.554   3.342  12.152  0.00  0.00    +0.000 C 
ATOM     12  C   UNL     1      43.020   4.384  11.178  0.00  0.00    +0.000 C 
ATOM     13  C   UNL     1      43.688   5.735  11.396  0.00  0.00    +0.000 C 
BRANCH  11  14
ATOM     14  O   UNL     1      42.987   2.074  11.842  0.00  0.00    +0.000 OA
ATOM     15  H   UNL     1      42.311   1.875  12.514  0.00  0.00    +0.000 HD
ENDBRANCH  11  14
ENDBRANCH   1   8
BRANCH   5  16
ATOM     16  C   UNL     1      49.395   8.469  12.208  0.00  0.00    +0.000 C 
BRANCH  16  17
ATOM     17  C   UNL     1      49.882   7.603  13.376  0.00  0.00    +0.000 C 
BRANCH  17  18
ATOM     18  C   UNL     1      49.345   8.056  14.735  0.00  0.00    +0.000 C 
BRANCH  18  19
ATOM     19  C   UNL     1      48.820   6.883  15.523  0.00  0.00    +0.000 A 
ATOM     20  C   UNL     1      49.017   6.762  16.884  0.00  0.00    +0.000 A 
ATOM     21  N   UNL     1      48.608   5.704  17.616  0.00  0.00    +0.000 NA
ATOM     22  C   UNL     1      47.978   4.727  16.921  0.00  0.00    +0.000 A 
ATOM     23  N   UNL     1      47.734   4.736  15.597  0.00  0.00    +0.000 NA
ATOM     24  C   UNL     1      48.166   5.823  14.923  0.00  0.00    +0.000 A 
BRANCH  22  25
ATOM     25  C   UNL     1      47.527   3.517  17.713  0.00  0.00    +0.000 C 
ATOM     26  N   UNL     1      48.336   3.161  18.768  0.00  0.00    +0.000 N 
ATOM     27  O   UNL     1      46.517   2.871  17.463  0.00  0.00    +0.000 OA
ATOM     28  H   UNL     1      49.177   3.688  18.967  0.00  0.00    +0.000 HD
ATOM     29  H   UNL     1      48.086   2.357  19.325  0.00  0.00    +0.000 HD
ENDBRANCH  22  25
ENDBRANCH  18  19
ENDBRANCH  17  18
ENDBRANCH  16  17
ENDBRANCH   5  16
TORSDOF 7
ENDMDL
MODEL 4
REMARK VINA RESULT:    -7.325      3.264      8.746
REMARK INTER + INTRA:         -11.541
REMARK INTER:                 -10.611
REMARK INTRA:                  -0.930
REMARK UNBOUND:                -1.433
REMARK  Name = 
REMARK  8 active torsions:
REMARK  status: ('A' for Active; 'I' for Inactive)
REMARK    1  A    between atoms: C_1  and  C_2
REMARK    2  A    between atoms: C_2  and  C_3
REMARK    3  A    between atoms: C_7  and  C_8
REMARK    4  A    between atoms: C_8  and  C_9
REMARK    5  A    between atoms: C_9  and  C_10
REMARK    6  A    between atoms: C_10  and  C_11
REMARK    7  A    between atoms: C_14  and  C_15
REMARK    8  A    between atoms: C_23  and  O_24
REMARK                            x       y       z     vdW  Elec       q    Type
REMARK                         _______ _______ _______ _____ _____    ______ ____
ROOT
ATOM      1  C   UNL     1      47.807   5.050  15.558  0.00  0.00    +0.000 A 
ATOM      2  C   UNL     1      48.246   6.261  14.991  0.00  0.00    +0.000 A 
ATOM      3  C   UNL     1      47.807   6.669  13.731  0.00  0.00    +0.000 A 
ATOM      4  C   UNL     1      46.929   5.868  13.003  0.00  0.00    +0.000 A 
ATOM      5  C   UNL     1      46.474   4.657  13.534  0.00  0.00    +0.000 A 
ATOM      6  C   UNL     1      46.885   4.288  14.821  0.00  0.00    +0.000 A 
ENDROOT
BRANCH   1   8
ATOM      7  C   UNL     1      48.380   2.986  16.800  0.00  0.00    +0.000 C 
ATOM      8  C   UNL     1      48.423   4.535  16.875  0.00  0.00    +0.000 C 
ATOM      9  C   UNL     1      49.884   5.039  17.022  0.00  0.00    +0.000 C 
ATOM     10  C   UNL     1      50.531   4.643  18.351  0.00  0.00    +0.000 C 
ATOM     11  C   UNL     1      49.696   5.080  19.551  0.00  0.00    +0.000 C 
ATOM     12  C   UNL     1      48.258   4.588  19.454  0.00  0.00    +0.000 C 
ATOM     13  C   UNL     1      47.625   4.996  18.131  0.00  0.00    +0.000 C 
BRANCH  11  14
ATOM     14  O   UNL     1      50.284   4.584  20.748  0.00  0.00    +0.000 OA
ATOM     15  H   UNL     1      51.243   4.509  20.603  0.00  0.00    +0.000 HD
ENDBRANCH  11  14
ENDBRANCH   1   8
BRANCH   5  16
ATOM     16  C   UNL     1      45.632   3.695  12.724  0.00  0.00    +0.000 C 
BRANCH  16  17
ATOM     17  C   UNL     1      44.714   4.457  11.761  0.00  0.00    +0.000 C 
BRANCH  17  18
ATOM     18  C   UNL     1      43.992   3.550  10.762  0.00  0.00    +0.000 C 
BRANCH  18  19
ATOM     19  C   UNL     1      44.825   3.350   9.520  0.00  0.00    +0.000 A 
ATOM     20  C   UNL     1      45.302   2.109   9.147  0.00  0.00    +0.000 A 
ATOM     21  N   UNL     1      46.092   1.896   8.072  0.00  0.00    +0.000 NA
ATOM     22  C   UNL     1      46.410   3.003   7.358  0.00  0.00    +0.000 A 
ATOM     23  N   UNL     1      46.005   4.258   7.631  0.00  0.00    +0.000 NA
ATOM     24  C   UNL     1      45.217   4.403   8.716  0.00  0.00    +0.000 A 
BRANCH  22  25
ATOM     25  C   UNL     1      47.313   2.798   6.159  0.00  0.00    +0.000 C 
ATOM     26  N   UNL     1      48.607   2.428   6.445  0.00  0.00    +0.000 N 
ATOM     27  O   UNL     1      46.954   2.943   4.997  0.00  0.00    +0.000 OA
ATOM     28  H   UNL     1      48.907   2.320   7.406  0.00  0.00    +0.000 HD
ATOM     29  H   UNL     1      49.254   2.285   5.683  0.00  0.00    +0.000 HD
ENDBRANCH  22  25
ENDBRANCH  18  19
ENDBRANCH  17  18
ENDBRANCH  16  17
ENDBRANCH   5  16
TORSDOF 7
ENDMDL
MODEL 5
REMARK VINA RESULT:    -6.897      3.245      8.271
REMARK INTER + INTRA:         -10.951
REMARK INTER:                  -9.896
REMARK INTRA:                  -1.055
REMARK UNBOUND:                -1.433
REMARK  Name = 
REMARK  8 active torsions:
REMARK  status: ('A' for Active; 'I' for Inactive)
REMARK    1  A    between atoms: C_1  and  C_2
REMARK    2  A    between atoms: C_2  and  C_3
REMARK    3  A    between atoms: C_7  and  C_8
REMARK    4  A    between atoms: C_8  and  C_9
REMARK    5  A    between atoms: C_9  and  C_10
REMARK    6  A    between atoms: C_10  and  C_11
REMARK    7  A    between atoms: C_14  and  C_15
REMARK    8  A    between atoms: C_23  and  O_24
REMARK                            x       y       z     vdW  Elec       q    Type
REMARK                         _______ _______ _______ _____ _____    ______ ____
ROOT
ATOM      1  C   UNL     1      48.378   7.127  14.109  0.00  0.00    +0.000 A 
ATOM      2  C   UNL     1      48.952   7.850  13.046  0.00  0.00    +0.000 A 
ATOM      3  C   UNL     1      48.407   7.800  11.763  0.00  0.00    +0.000 A 
ATOM      4  C   UNL     1      47.285   7.015  11.508  0.00  0.00    +0.000 A 
ATOM      5  C   UNL     1      46.690   6.281  12.540  0.00  0.00    +0.000 A 
ATOM      6  C   UNL     1      47.218   6.383  13.832  0.00  0.00    +0.000 A 
ENDROOT
BRANCH   1   8
ATOM      7  C   UNL     1      48.670   8.347  16.243  0.00  0.00    +0.000 C 
ATOM      8  C   UNL     1      49.081   7.062  15.480  0.00  0.00    +0.000 C 
ATOM      9  C   UNL     1      48.635   5.793  16.256  0.00  0.00    +0.000 C 
ATOM     10  C   UNL     1      49.363   5.610  17.590  0.00  0.00    +0.000 C 
ATOM     11  C   UNL     1      50.880   5.625  17.425  0.00  0.00    +0.000 C 
ATOM     12  C   UNL     1      51.361   6.866  16.684  0.00  0.00    +0.000 C 
ATOM     13  C   UNL     1      50.634   7.029  15.355  0.00  0.00    +0.000 C 
BRANCH  11  14
ATOM     14  O   UNL     1      51.501   5.571  18.704  0.00  0.00    +0.000 OA
ATOM     15  H   UNL     1      51.147   6.302  19.240  0.00  0.00    +0.000 HD
ENDBRANCH  11  14
ENDBRANCH   1   8
BRANCH   5  16
ATOM     16  C   UNL     1      45.556   5.312  12.281  0.00  0.00    +0.000 C 
BRANCH  16  17
ATOM     17  C   UNL     1      44.663   5.815  11.141  0.00  0.00    +0.000 C 
BRANCH  17  18
ATOM     18  C   UNL     1      43.914   4.696  10.415  0.00  0.00    +0.000 C 
BRANCH  18  19
ATOM     19  C   UNL     1      44.839   3.938   9.496  0.00  0.00    +0.000 A 
ATOM     20  C   UNL     1      45.615   4.573   8.547  0.00  0.00    +0.000 A 
ATOM     21  N   UNL     1      46.417   3.929   7.672  0.00  0.00    +0.000 NA
ATOM     22  C   UNL     1      46.414   2.577   7.770  0.00  0.00    +0.000 A 
ATOM     23  N   UNL     1      45.698   1.855   8.652  0.00  0.00    +0.000 NA
ATOM     24  C   UNL     1      44.919   2.559   9.500  0.00  0.00    +0.000 A 
BRANCH  22  25
ATOM     25  C   UNL     1      47.288   1.826   6.787  0.00  0.00    +0.000 C 
ATOM     26  N   UNL     1      48.283   2.566   6.190  0.00  0.00    +0.000 N 
ATOM     27  O   UNL     1      47.150   0.640   6.513  0.00  0.00    +0.000 OA
ATOM     28  H   UNL     1      48.390   3.548   6.408  0.00  0.00    +0.000 HD
ATOM     29  H   UNL     1      48.891   2.116   5.521  0.00  0.00    +0.000 HD
ENDBRANCH  22  25
ENDBRANCH  18  19
ENDBRANCH  17  18
ENDBRANCH  16  17
ENDBRANCH   5  16
TORSDOF 7
ENDMDL
MODEL 6
REMARK VINA RESULT:    -6.809      1.871      2.262
REMARK INTER + INTRA:         -10.830
REMARK INTER:                  -9.871
REMARK INTRA:                  -0.959
REMARK UNBOUND:                -1.433
REMARK  Name = 
REMARK  8 active torsions:
REMARK  status: ('A' for Active; 'I' for Inactive)
REMARK    1  A    between atoms: C_1  and  C_2
REMARK    2  A    between atoms: C_2  and  C_3
REMARK    3  A    between atoms: C_7  and  C_8
REMARK    4  A    between atoms: C_8  and  C_9
REMARK    5  A    between atoms: C_9  and  C_10
REMARK    6  A    between atoms: C_10  and  C_11
REMARK    7  A    between atoms: C_14  and  C_15
REMARK    8  A    between atoms: C_23  and  O_24
REMARK                            x       y       z     vdW  Elec       q    Type
REMARK                         _______ _______ _______ _____ _____    ______ ____
ROOT
ATOM      1  C   UNL     1      44.754   3.555   9.679  0.00  0.00    +0.000 A 
ATOM      2  C   UNL     1      44.001   2.660  10.462  0.00  0.00    +0.000 A 
ATOM      3  C   UNL     1      43.511   3.033  11.713  0.00  0.00    +0.000 A 
ATOM      4  C   UNL     1      43.774   4.305  12.218  0.00  0.00    +0.000 A 
ATOM      5  C   UNL     1      44.522   5.220  11.468  0.00  0.00    +0.000 A 
ATOM      6  C   UNL     1      44.963   4.847  10.193  0.00  0.00    +0.000 A 
ENDROOT
BRANCH   1   8
ATOM      7  C   UNL     1      44.303   3.008   7.306  0.00  0.00    +0.000 C 
ATOM      8  C   UNL     1      45.425   3.079   8.374  0.00  0.00    +0.000 C 
ATOM      9  C   UNL     1      46.535   4.076   7.942  0.00  0.00    +0.000 C 
ATOM     10  C   UNL     1      47.310   3.621   6.704  0.00  0.00    +0.000 C 
ATOM     11  C   UNL     1      47.891   2.219   6.870  0.00  0.00    +0.000 C 
ATOM     12  C   UNL     1      46.829   1.206   7.275  0.00  0.00    +0.000 C 
ATOM     13  C   UNL     1      46.072   1.668   8.514  0.00  0.00    +0.000 C 
BRANCH  11  14
ATOM     14  O   UNL     1      48.496   1.805   5.651  0.00  0.00    +0.000 OA
ATOM     15  H   UNL     1      48.421   0.836   5.592  0.00  0.00    +0.000 HD
ENDBRANCH  11  14
ENDBRANCH   1   8
BRANCH   5  16
ATOM     16  C   UNL     1      44.947   6.559  12.033  0.00  0.00    +0.000 C 
BRANCH  16  17
ATOM     17  C   UNL     1      46.323   6.963  11.491  0.00  0.00    +0.000 C 
BRANCH  17  18
ATOM     18  C   UNL     1      46.943   8.150  12.229  0.00  0.00    +0.000 C 
BRANCH  18  19
ATOM     19  C   UNL     1      47.678   7.690  13.463  0.00  0.00    +0.000 A 
ATOM     20  C   UNL     1      47.970   6.361  13.694  0.00  0.00    +0.000 A 
ATOM     21  N   UNL     1      48.580   5.903  14.808  0.00  0.00    +0.000 NA
ATOM     22  C   UNL     1      48.895   6.848  15.726  0.00  0.00    +0.000 A 
ATOM     23  N   UNL     1      48.656   8.168  15.610  0.00  0.00    +0.000 NA
ATOM     24  C   UNL     1      48.047   8.561  14.472  0.00  0.00    +0.000 A 
BRANCH  22  25
ATOM     25  C   UNL     1      49.562   6.361  16.996  0.00  0.00    +0.000 C 
ATOM     26  N   UNL     1      49.499   5.004  17.218  0.00  0.00    +0.000 N 
ATOM     27  O   UNL     1      50.128   7.093  17.799  0.00  0.00    +0.000 OA
ATOM     28  H   UNL     1      49.021   4.401  16.561  0.00  0.00    +0.000 HD
ATOM     29  H   UNL     1      49.921   4.626  18.054  0.00  0.00    +0.000 HD
ENDBRANCH  22  25
ENDBRANCH  18  19
ENDBRANCH  17  18
ENDBRANCH  16  17
ENDBRANCH   5  16
TORSDOF 7
ENDMDL
MODEL 7
REMARK VINA RESULT:    -6.574      2.377      4.307
REMARK INTER + INTRA:         -10.505
REMARK INTER:                  -9.436
REMARK INTRA:                  -1.069
REMARK UNBOUND:                -1.433
REMARK  Name = 
REMARK  8 active torsions:
REMARK  status: ('A' for Active; 'I' for Inactive)
REMARK    1  A    between atoms: C_1  and  C_2
REMARK    2  A    between atoms: C_2  and  C_3
REMARK    3  A    between atoms: C_7  and  C_8
REMARK    4  A    between atoms: C_8  and  C_9
REMARK    5  A    between atoms: C_9  and  C_10
REMARK    6  A    between atoms: C_10  and  C_11
REMARK    7  A    between atoms: C_14  and  C_15
REMARK    8  A    between atoms: C_23  and  O_24
REMARK                            x       y       z     vdW  Elec       q    Type
REMARK                         _______ _______ _______ _____ _____    ______ ____
ROOT
ATOM      1  C   UNL     1      45.841   6.419  12.015  0.00  0.00    +0.000 A 
ATOM      2  C   UNL     1      45.368   7.731  12.208  0.00  0.00    +0.000 A 
ATOM      3  C   UNL     1      46.001   8.602  13.096  0.00  0.00    +0.000 A 
ATOM      4  C   UNL     1      47.111   8.177  13.822  0.00  0.00    +0.000 A 
ATOM      5  C   UNL     1      47.606   6.879  13.657  0.00  0.00    +0.000 A 
ATOM      6  C   UNL     1      46.991   6.035  12.725  0.00  0.00    +0.000 A 
ENDROOT
BRANCH   1   8
ATOM      7  C   UNL     1      43.582   5.945  11.117  0.00  0.00    +0.000 C 
ATOM      8  C   UNL     1      45.040   5.418  11.157  0.00  0.00    +0.000 C 
ATOM      9  C   UNL     1      45.636   5.336   9.725  0.00  0.00    +0.000 C 
ATOM     10  C   UNL     1      44.949   4.291   8.842  0.00  0.00    +0.000 C 
ATOM     11  C   UNL     1      44.933   2.910   9.490  0.00  0.00    +0.000 C 
ATOM     12  C   UNL     1      44.337   2.944  10.891  0.00  0.00    +0.000 C 
ATOM     13  C   UNL     1      45.036   3.981  11.761  0.00  0.00    +0.000 C 
BRANCH  11  14
ATOM     14  O   UNL     1      44.183   2.011   8.682  0.00  0.00    +0.000 OA
ATOM     15  H   UNL     1      43.615   2.539   8.094  0.00  0.00    +0.000 HD
ENDBRANCH  11  14
ENDBRANCH   1   8
BRANCH   5  16
ATOM     16  C   UNL     1      48.722   6.333  14.523  0.00  0.00    +0.000 C 
BRANCH  16  17
ATOM     17  C   UNL     1      48.283   6.260  15.990  0.00  0.00    +0.000 C 
BRANCH  17  18
ATOM     18  C   UNL     1      47.700   4.901  16.384  0.00  0.00    +0.000 C 
BRANCH  18  19
ATOM     19  C   UNL     1      48.797   3.933  16.752  0.00  0.00    +0.000 A 
ATOM     20  C   UNL     1      49.900   4.316  17.490  0.00  0.00    +0.000 A 
ATOM     21  N   UNL     1      50.926   3.494  17.796  0.00  0.00    +0.000 NA
ATOM     22  C   UNL     1      50.820   2.231  17.318  0.00  0.00    +0.000 A 
ATOM     23  N   UNL     1      49.796   1.750  16.588  0.00  0.00    +0.000 NA
ATOM     24  C   UNL     1      48.801   2.621  16.319  0.00  0.00    +0.000 A 
BRANCH  22  25
ATOM     25  C   UNL     1      51.967   1.291  17.628  0.00  0.00    +0.000 C 
ATOM     26  N   UNL     1      51.614   0.087  18.194  0.00  0.00    +0.000 N 
ATOM     27  O   UNL     1      53.144   1.549  17.406  0.00  0.00    +0.000 OA
ATOM     28  H   UNL     1      50.642  -0.120  18.388  0.00  0.00    +0.000 HD
ATOM     29  H   UNL     1      52.340  -0.574  18.428  0.00  0.00    +0.000 HD
ENDBRANCH  22  25
ENDBRANCH  18  19
ENDBRANCH  17  18
ENDBRANCH  16  17
ENDBRANCH   5  16
TORSDOF 7
ENDMDL
MODEL 8
REMARK VINA RESULT:    -6.457      2.757      4.923
REMARK INTER + INTRA:         -10.343
REMARK INTER:                  -9.062
REMARK INTRA:                  -1.281
REMARK UNBOUND:                -1.433
REMARK  Name = 
REMARK  8 active torsions:
REMARK  status: ('A' for Active; 'I' for Inactive)
REMARK    1  A    between atoms: C_1  and  C_2
REMARK    2  A    between atoms: C_2  and  C_3
REMARK    3  A    between atoms: C_7  and  C_8
REMARK    4  A    between atoms: C_8  and  C_9
REMARK    5  A    between atoms: C_9  and  C_10
REMARK    6  A    between atoms: C_10  and  C_11
REMARK    7  A    between atoms: C_14  and  C_15
REMARK    8  A    between atoms: C_23  and  O_24
REMARK                            x       y       z     vdW  Elec       q    Type
REMARK                         _______ _______ _______ _____ _____    ______ ____
ROOT
ATOM      1  C   UNL     1      47.117   6.849  12.472  0.00  0.00    +0.000 A 
ATOM      2  C   UNL     1      48.007   7.247  11.457  0.00  0.00    +0.000 A 
ATOM      3  C   UNL     1      48.988   8.210  11.693  0.00  0.00    +0.000 A 
ATOM      4  C   UNL     1      49.092   8.810  12.947  0.00  0.00    +0.000 A 
ATOM      5  C   UNL     1      48.222   8.442  13.978  0.00  0.00    +0.000 A 
ATOM      6  C   UNL     1      47.277   7.437  13.739  0.00  0.00    +0.000 A 
ENDROOT
BRANCH   1   8
ATOM      7  C   UNL     1      44.667   6.590  12.720  0.00  0.00    +0.000 C 
ATOM      8  C   UNL     1      45.939   5.906  12.154  0.00  0.00    +0.000 C 
ATOM      9  C   UNL     1      45.814   5.694  10.621  0.00  0.00    +0.000 C 
ATOM     10  C   UNL     1      44.723   4.694  10.233  0.00  0.00    +0.000 C 
ATOM     11  C   UNL     1      44.892   3.354  10.942  0.00  0.00    +0.000 C 
ATOM     12  C   UNL     1      44.998   3.517  12.452  0.00  0.00    +0.000 C 
ATOM     13  C   UNL     1      46.094   4.507  12.823  0.00  0.00    +0.000 C 
BRANCH  11  14
ATOM     14  O   UNL     1      43.788   2.509  10.636  0.00  0.00    +0.000 OA
ATOM     15  H   UNL     1      43.939   1.650  11.067  0.00  0.00    +0.000 HD
ENDBRANCH  11  14
ENDBRANCH   1   8
BRANCH   5  16
ATOM     16  C   UNL     1      48.210   9.163  15.310  0.00  0.00    +0.000 C 
BRANCH  16  17
ATOM     17  C   UNL     1      49.252   8.562  16.260  0.00  0.00    +0.000 C 
BRANCH  17  18
ATOM     18  C   UNL     1      48.636   7.789  17.428  0.00  0.00    +0.000 C 
BRANCH  18  19
ATOM     19  C   UNL     1      48.996   6.326  17.353  0.00  0.00    +0.000 A 
ATOM     20  C   UNL     1      50.302   5.894  17.234  0.00  0.00    +0.000 A 
ATOM     21  N   UNL     1      50.662   4.598  17.112  0.00  0.00    +0.000 NA
ATOM     22  C   UNL     1      49.637   3.711  17.104  0.00  0.00    +0.000 A 
ATOM     23  N   UNL     1      48.330   4.018  17.210  0.00  0.00    +0.000 NA
ATOM     24  C   UNL     1      48.039   5.329  17.332  0.00  0.00    +0.000 A 
BRANCH  22  25
ATOM     25  C   UNL     1      50.009   2.251  16.948  0.00  0.00    +0.000 C 
ATOM     26  N   UNL     1      50.886   1.756  17.886  0.00  0.00    +0.000 N 
ATOM     27  O   UNL     1      49.581   1.525  16.059  0.00  0.00    +0.000 OA
ATOM     28  H   UNL     1      51.249   2.359  18.614  0.00  0.00    +0.000 HD
ATOM     29  H   UNL     1      51.173   0.790  17.825  0.00  0.00    +0.000 HD
ENDBRANCH  22  25
ENDBRANCH  18  19
ENDBRANCH  17  18
ENDBRANCH  16  17
ENDBRANCH   5  16
TORSDOF 7
ENDMDL
MODEL 9
REMARK VINA RESULT:    -5.939      3.163      5.042
REMARK INTER + INTRA:          -9.629
REMARK INTER:                  -8.260
REMARK INTRA:                  -1.369
REMARK UNBOUND:                -1.433
REMARK  Name = 
REMARK  8 active torsions:
REMARK  status: ('A' for Active; 'I' for Inactive)
REMARK    1  A    between atoms: C_1  and  C_2
REMARK    2  A    between atoms: C_2  and  C_3
REMARK    3  A    between atoms: C_7  and  C_8
REMARK    4  A    between atoms: C_8  and  C_9
REMARK    5  A    between atoms: C_9  and  C_10
REMARK    6  A    between atoms: C_10  and  C_11
REMARK    7  A    between atoms: C_14  and  C_15
REMARK    8  A    between atoms: C_23  and  O_24
REMARK                            x       y       z     vdW  Elec       q    Type
REMARK                         _______ _______ _______ _____ _____    ______ ____
ROOT
ATOM      1  C   UNL     1      45.295   7.352  11.792  0.00  0.00    +0.000 A 
ATOM      2  C   UNL     1      44.253   8.191  11.355  0.00  0.00    +0.000 A 
ATOM      3  C   UNL     1      44.406   9.577  11.329  0.00  0.00    +0.000 A 
ATOM      4  C   UNL     1      45.598  10.159  11.754  0.00  0.00    +0.000 A 
ATOM      5  C   UNL     1      46.654   9.356  12.199  0.00  0.00    +0.000 A 
ATOM      6  C   UNL     1      46.503   7.965  12.170  0.00  0.00    +0.000 A 
ENDROOT
BRANCH   1   8
ATOM      7  C   UNL     1      46.272   5.298  12.770  0.00  0.00    +0.000 C 
ATOM      8  C   UNL     1      45.059   5.839  11.969  0.00  0.00    +0.000 C 
ATOM      9  C   UNL     1      43.734   5.585  12.739  0.00  0.00    +0.000 C 
ATOM     10  C   UNL     1      43.385   4.101  12.872  0.00  0.00    +0.000 C 
ATOM     11  C   UNL     1      43.358   3.392  11.520  0.00  0.00    +0.000 C 
ATOM     12  C   UNL     1      44.650   3.601  10.742  0.00  0.00    +0.000 C 
ATOM     13  C   UNL     1      44.980   5.082  10.610  0.00  0.00    +0.000 C 
BRANCH  11  14
ATOM     14  O   UNL     1      43.146   1.998  11.716  0.00  0.00    +0.000 OA
ATOM     15  H   UNL     1      43.575   1.743  12.551  0.00  0.00    +0.000 HD
ENDBRANCH  11  14
ENDBRANCH   1   8
BRANCH   5  16
ATOM     16  C   UNL     1      47.913   9.949  12.796  0.00  0.00    +0.000 C 
BRANCH  16  17
ATOM     17  C   UNL     1      49.158   9.240  12.249  0.00  0.00    +0.000 C 
BRANCH  17  18
ATOM     18  C   UNL     1      50.290   9.124  13.272  0.00  0.00    +0.000 C 
BRANCH  18  19
ATOM     19  C   UNL     1      49.890   8.226  14.416  0.00  0.00    +0.000 A 
ATOM     20  C   UNL     1      49.332   6.979  14.212  0.00  0.00    +0.000 A 
ATOM     21  N   UNL     1      48.914   6.167  15.206  0.00  0.00    +0.000 NA
ATOM     22  C   UNL     1      49.067   6.659  16.459  0.00  0.00    +0.000 A 
ATOM     23  N   UNL     1      49.593   7.858  16.775  0.00  0.00    +0.000 NA
ATOM     24  C   UNL     1      49.994   8.620  15.736  0.00  0.00    +0.000 A 
BRANCH  22  25
ATOM     25  C   UNL     1      48.587   5.779  17.595  0.00  0.00    +0.000 C 
ATOM     26  N   UNL     1      49.173   4.535  17.672  0.00  0.00    +0.000 N 
ATOM     27  O   UNL     1      47.736   6.113  18.410  0.00  0.00    +0.000 OA
ATOM     28  H   UNL     1      49.867   4.255  16.991  0.00  0.00    +0.000 HD
ATOM     29  H   UNL     1      48.884   3.905  18.406  0.00  0.00    +0.000 HD
ENDBRANCH  22  25
ENDBRANCH  18  19
ENDBRANCH  17  18
ENDBRANCH  16  17
ENDBRANCH   5  16
TORSDOF 7
ENDMDL
