MODEL 1
REMARK VINA RESULT:    -7.190      0.000      0.000
REMARK INTER + INTRA:         -12.060
REMARK INTER:                 -10.553
REMARK INTRA:                  -1.507
REMARK UNBOUND:                -1.507
REMARK  Name = 
REMARK  11 active torsions:
REMARK  status: ('A' for Active; 'I' for Inactive)
REMARK    1  A    between atoms: C_1  and  O_2
REMARK    2  A    between atoms: O_2  and  C_3
REMARK    3  A    between atoms: C_10  and  C_11
REMARK    4  A    between atoms: N_13  and  C_14
REMARK    5  A    between atoms: C_14  and  C_15
REMARK    6  A    between atoms: C_18  and  C_19
REMARK    7  A    between atoms: C_19  and  N_20
REMARK    8  A    between atoms: N_20  and  C_21
REMARK    9  A    between atoms: N_20  and  C_22
REMARK   10  A    between atoms: C_22  and  C_23
REMARK   11  A    between atoms: C_22  and  C_24
REMARK                            x       y       z     vdW  Elec       q    Type
REMARK                         _______ _______ _______ _____ _____    ______ ____
ROOT
ATOM      1  C   UNL     1      47.890   6.438  13.063  0.00  0.00    +0.000 A 
ATOM      2  C   UNL     1      47.326   5.337  13.719  0.00  0.00    +0.000 A 
ATOM      3  C   UNL     1      46.186   4.709  13.208  0.00  0.00    +0.000 A 
ATOM      4  C   UNL     1      45.588   5.167  12.026  0.00  0.00    +0.000 A 
ATOM      5  C   UNL     1      46.178   6.242  11.347  0.00  0.00    +0.000 A 
ATOM      6  C   UNL     1      47.318   6.869  11.857  0.00  0.00    +0.000 A 
ENDROOT
BRANCH   1   7
ATOM      7  C   UNL     1      49.128   7.108  13.607  0.00  0.00    +0.000 C 
BRANCH   7  10
ATOM      8  C   UNL     1      50.273   7.198  15.788  0.00  0.00    +0.000 C 
ATOM      9  O   UNL     1      51.367   7.374  15.255  0.00  0.00    +0.000 OA
ATOM     10  N   UNL     1      49.134   7.063  15.047  0.00  0.00    +0.000 N 
ATOM     11  H   UNL     1      48.248   6.896  15.501  0.00  0.00    +0.000 HD
BRANCH   8  19
ATOM     12  C   UNL     1      49.021   4.823  17.949  0.00  0.00    +0.000 A 
ATOM     13  N   UNL     1      48.642   4.070  19.001  0.00  0.00    +0.000 NA
ATOM     14  C   UNL     1      48.812   4.574  20.226  0.00  0.00    +0.000 A 
ATOM     15  N   UNL     1      49.316   5.763  20.537  0.00  0.00    +0.000 NA
ATOM     16  C   UNL     1      49.690   6.478  19.464  0.00  0.00    +0.000 A 
ATOM     17  S   UNL     1      50.350   8.027  19.678  0.00  0.00    +0.000 S 
ATOM     18  C   UNL     1      50.548   8.228  18.003  0.00  0.00    +0.000 A 
ATOM     19  C   UNL     1      50.129   7.136  17.254  0.00  0.00    +0.000 A 
ATOM     20  C   UNL     1      49.598   6.094  18.131  0.00  0.00    +0.000 A 
BRANCH  12  22
ATOM     21  C   UNL     1      47.858   3.291  16.610  0.00  0.00    +0.000 C 
ATOM     22  O   UNL     1      48.872   4.293  16.685  0.00  0.00    +0.000 OA
ENDBRANCH  12  22
ENDBRANCH   8  19
ENDBRANCH   7  10
ENDBRANCH   1   7
BRANCH   4  23
ATOM     23  C   UNL     1      44.319   4.523  11.491  0.00  0.00    +0.000 C 
BRANCH  23  24
ATOM     24  N   UNL     1      44.540   3.239  10.800  0.00  0.00    +0.000 NA
ATOM     25  C   UNL     1      43.690   2.178  11.359  0.00  0.00    +0.000 C 
BRANCH  24  26
ATOM     26  C   UNL     1      44.377   3.318   9.325  0.00  0.00    +0.000 C 
ATOM     27  C   UNL     1      43.997   4.706   8.768  0.00  0.00    +0.000 C 
BRANCH  26  28
ATOM     28  C   UNL     1      45.541   2.709   8.536  0.00  0.00    +0.000 A 
ATOM     29  C   UNL     1      45.758   1.322   8.570  0.00  0.00    +0.000 A 
ATOM     30  C   UNL     1      46.720   0.728   7.747  0.00  0.00    +0.000 A 
ATOM     31  C   UNL     1      47.494   1.514   6.896  0.00  0.00    +0.000 A 
ATOM     32  C   UNL     1      47.330   2.895   6.889  0.00  0.00    +0.000 A 
ATOM     33  C   UNL     1      46.367   3.487   7.707  0.00  0.00    +0.000 A 
ENDBRANCH  26  28
ENDBRANCH  24  26
ENDBRANCH  23  24
ENDBRANCH   4  23
TORSDOF 8
ENDMDL
MODEL 2
REMARK VINA RESULT:    -7.083      3.424      8.423
REMARK INTER + INTRA:         -11.902
REMARK INTER:                  -9.780
REMARK INTRA:                  -2.122
REMARK UNBOUND:                -1.507
REMARK  Name = 
REMARK  11 active torsions:
REMARK  status: ('A' for Active; 'I' for Inactive)
REMARK    1  A    between atoms: C_1  and  O_2
REMARK    2  A    between atoms: O_2  and  C_3
REMARK    3  A    between atoms: C_10  and  C_11
REMARK    4  A    between atoms: N_13  and  C_14
REMARK    5  A    between atoms: C_14  and  C_15
REMARK    6  A    between atoms: C_18  and  C_19
REMARK    7  A    between atoms: C_19  and  N_20
REMARK    8  A    between atoms: N_20  and  C_21
REMARK    9  A    between atoms: N_20  and  C_22
REMARK   10  A    between atoms: C_22  and  C_23
REMARK   11  A    between atoms: C_22  and  C_24
REMARK                            x       y       z     vdW  Elec       q    Type
REMARK                         _______ _______ _______ _____ _____    ______ ____
ROOT
ATOM      1  C   UNL     1      48.541   7.960  13.389  0.00  0.00    +0.000 A 
ATOM      2  C   UNL     1      47.886   8.956  14.126  0.00  0.00    +0.000 A 
ATOM      3  C   UNL     1      47.939   8.960  15.523  0.00  0.00    +0.000 A 
ATOM      4  C   UNL     1      48.653   7.971  16.214  0.00  0.00    +0.000 A 
ATOM      5  C   UNL     1      49.342   6.999  15.475  0.00  0.00    +0.000 A 
ATOM      6  C   UNL     1      49.290   6.995  14.078  0.00  0.00    +0.000 A 
ENDROOT
BRANCH   1   7
ATOM      7  C   UNL     1      48.495   7.962  11.881  0.00  0.00    +0.000 C 
BRANCH   7  10
ATOM      8  C   UNL     1      46.347   6.925  11.257  0.00  0.00    +0.000 C 
ATOM      9  O   UNL     1      45.724   7.949  11.533  0.00  0.00    +0.000 OA
ATOM     10  N   UNL     1      47.703   6.858  11.398  0.00  0.00    +0.000 N 
ATOM     11  H   UNL     1      48.196   6.002  11.190  0.00  0.00    +0.000 HD
BRANCH   8  19
ATOM     12  C   UNL     1      44.588   4.378  12.771  0.00  0.00    +0.000 A 
ATOM     13  N   UNL     1      43.836   3.304  13.087  0.00  0.00    +0.000 NA
ATOM     14  C   UNL     1      43.430   2.509  12.094  0.00  0.00    +0.000 A 
ATOM     15  N   UNL     1      43.692   2.651  10.800  0.00  0.00    +0.000 NA
ATOM     16  C   UNL     1      44.434   3.735  10.525  0.00  0.00    +0.000 A 
ATOM     17  S   UNL     1      44.869   4.067   8.918  0.00  0.00    +0.000 S 
ATOM     18  C   UNL     1      45.704   5.471   9.382  0.00  0.00    +0.000 A 
ATOM     19  C   UNL     1      45.668   5.720  10.748  0.00  0.00    +0.000 A 
ATOM     20  C   UNL     1      44.921   4.668  11.434  0.00  0.00    +0.000 A 
BRANCH  12  22
ATOM     21  C   UNL     1      46.276   4.899  14.310  0.00  0.00    +0.000 C 
ATOM     22  O   UNL     1      44.985   5.214  13.792  0.00  0.00    +0.000 OA
ENDBRANCH  12  22
ENDBRANCH   8  19
ENDBRANCH   7  10
ENDBRANCH   1   7
BRANCH   4  23
ATOM     23  C   UNL     1      48.673   7.939  17.733  0.00  0.00    +0.000 C 
BRANCH  23  24
ATOM     24  N   UNL     1      49.527   6.881  18.302  0.00  0.00    +0.000 NA
ATOM     25  C   UNL     1      50.474   7.429  19.284  0.00  0.00    +0.000 C 
BRANCH  24  26
ATOM     26  C   UNL     1      48.766   5.747  18.887  0.00  0.00    +0.000 C 
ATOM     27  C   UNL     1      47.260   5.998  19.114  0.00  0.00    +0.000 C 
BRANCH  26  28
ATOM     28  C   UNL     1      48.999   4.408  18.178  0.00  0.00    +0.000 A 
ATOM     29  C   UNL     1      47.954   3.806  17.461  0.00  0.00    +0.000 A 
ATOM     30  C   UNL     1      48.182   2.662  16.689  0.00  0.00    +0.000 A 
ATOM     31  C   UNL     1      49.452   2.091  16.641  0.00  0.00    +0.000 A 
ATOM     32  C   UNL     1      50.487   2.644  17.388  0.00  0.00    +0.000 A 
ATOM     33  C   UNL     1      50.261   3.787  18.155  0.00  0.00    +0.000 A 
ENDBRANCH  26  28
ENDBRANCH  24  26
ENDBRANCH  23  24
ENDBRANCH   4  23
TORSDOF 8
ENDMDL
MODEL 3
REMARK VINA RESULT:    -6.968      3.527      9.170
REMARK INTER + INTRA:         -11.734
REMARK INTER:                  -9.111
REMARK INTRA:                  -2.623
REMARK UNBOUND:                -1.507
REMARK  Name = 
REMARK  11 active torsions:
REMARK  status: ('A' for Active; 'I' for Inactive)
REMARK    1  A    between atoms: C_1  and  O_2
REMARK    2  A    between atoms: O_2  and  C_3
REMARK    3  A    between atoms: C_10  and  C_11
REMARK    4  A    between atoms: N_13  and  C_14
REMARK    5  A    between atoms: C_14  and  C_15
REMARK    6  A    between atoms: C_18  and  C_19
REMARK    7  A    between atoms: C_19  and  N_20
REMARK    8  A    between atoms: N_20  and  C_21
REMARK    9  A    between atoms: N_20  and  C_22
REMARK   10  A    between atoms: C_22  and  C_23
REMARK   11  A    between atoms: C_22  and  C_24
REMARK                            x       y       z     vdW  Elec       q    Type
REMARK                         _______ _______ _______ _____ _____    ______ ____
ROOT
ATOM      1  C   UNL     1      48.410   3.738  17.567  0.00  0.00    +0.000 A 
ATOM      2  C   UNL     1      49.638   3.249  17.102  0.00  0.00    +0.000 A 
ATOM      3  C   UNL     1      50.828   3.561  17.767  0.00  0.00    +0.000 A 
ATOM      4  C   UNL     1      50.815   4.366  18.914  0.00  0.00    +0.000 A 
ATOM      5  C   UNL     1      49.582   4.820  19.403  0.00  0.00    +0.000 A 
ATOM      6  C   UNL     1      48.392   4.507  18.739  0.00  0.00    +0.000 A 
ENDROOT
BRANCH   1   7
ATOM      7  C   UNL     1      47.125   3.391  16.857  0.00  0.00    +0.000 C 
BRANCH   7  10
ATOM      8  C   UNL     1      46.873   4.155  14.527  0.00  0.00    +0.000 C 
ATOM      9  O   UNL     1      47.205   3.056  14.086  0.00  0.00    +0.000 OA
ATOM     10  N   UNL     1      46.807   4.392  15.869  0.00  0.00    +0.000 N 
ATOM     11  H   UNL     1      46.555   5.307  16.214  0.00  0.00    +0.000 HD
BRANCH   8  19
ATOM     12  C   UNL     1      44.080   4.882  12.644  0.00  0.00    +0.000 A 
ATOM     13  N   UNL     1      43.121   5.424  11.866  0.00  0.00    +0.000 NA
ATOM     14  C   UNL     1      43.375   6.600  11.287  0.00  0.00    +0.000 A 
ATOM     15  N   UNL     1      44.491   7.313  11.384  0.00  0.00    +0.000 NA
ATOM     16  C   UNL     1      45.416   6.745  12.173  0.00  0.00    +0.000 A 
ATOM     17  S   UNL     1      46.909   7.519  12.405  0.00  0.00    +0.000 S 
ATOM     18  C   UNL     1      47.446   6.282  13.437  0.00  0.00    +0.000 A 
ATOM     19  C   UNL     1      46.515   5.270  13.632  0.00  0.00    +0.000 A 
ATOM     20  C   UNL     1      45.305   5.541  12.859  0.00  0.00    +0.000 A 
BRANCH  12  22
ATOM     21  C   UNL     1      43.536   2.622  12.348  0.00  0.00    +0.000 C 
ATOM     22  O   UNL     1      43.809   3.681  13.264  0.00  0.00    +0.000 OA
ENDBRANCH  12  22
ENDBRANCH   8  19
ENDBRANCH   7  10
ENDBRANCH   1   7
BRANCH   4  23
ATOM     23  C   UNL     1      52.108   4.752  19.613  0.00  0.00    +0.000 C 
BRANCH  23  24
ATOM     24  N   UNL     1      52.316   6.207  19.735  0.00  0.00    +0.000 NA
ATOM     25  C   UNL     1      53.329   6.518  20.754  0.00  0.00    +0.000 C 
BRANCH  24  26
ATOM     26  C   UNL     1      52.646   6.874  18.449  0.00  0.00    +0.000 C 
ATOM     27  C   UNL     1      53.670   6.139  17.557  0.00  0.00    +0.000 C 
BRANCH  26  28
ATOM     28  C   UNL     1      51.420   7.304  17.637  0.00  0.00    +0.000 A 
ATOM     29  C   UNL     1      51.261   6.850  16.318  0.00  0.00    +0.000 A 
ATOM     30  C   UNL     1      50.084   7.110  15.609  0.00  0.00    +0.000 A 
ATOM     31  C   UNL     1      49.058   7.846  16.200  0.00  0.00    +0.000 A 
ATOM     32  C   UNL     1      49.221   8.349  17.486  0.00  0.00    +0.000 A 
ATOM     33  C   UNL     1      50.394   8.086  18.195  0.00  0.00    +0.000 A 
ENDBRANCH  26  28
ENDBRANCH  24  26
ENDBRANCH  23  24
ENDBRANCH   4  23
TORSDOF 8
ENDMDL
MODEL 4
REMARK VINA RESULT:    -6.837      1.877      2.431
REMARK INTER + INTRA:         -11.541
REMARK INTER:                 -10.192
REMARK INTRA:                  -1.349
REMARK UNBOUND:                -1.507
REMARK  Name = 
REMARK  11 active torsions:
REMARK  status: ('A' for Active; 'I' for Inactive)
REMARK    1  A    between atoms: C_1  and  O_2
REMARK    2  A    between atoms: O_2  and  C_3
REMARK    3  A    between atoms: C_10  and  C_11
REMARK    4  A    between atoms: N_13  and  C_14
REMARK    5  A    between atoms: C_14  and  C_15
REMARK    6  A    between atoms: C_18  and  C_19
REMARK    7  A    between atoms: C_19  and  N_20
REMARK    8  A    between atoms: N_20  and  C_21
REMARK    9  A    between atoms: N_20  and  C_22
REMARK   10  A    between atoms: C_22  and  C_23
REMARK   11  A    between atoms: C_22  and  C_24
REMARK                            x       y       z     vdW  Elec       q    Type
REMARK                         _______ _______ _______ _____ _____    ______ ____
ROOT
ATOM      1  C   UNL     1      47.935   7.185  12.952  0.00  0.00    +0.000 A 
ATOM      2  C   UNL     1      46.716   7.779  12.599  0.00  0.00    +0.000 A 
ATOM      3  C   UNL     1      45.535   7.030  12.584  0.00  0.00    +0.000 A 
ATOM      4  C   UNL     1      45.548   5.671  12.927  0.00  0.00    +0.000 A 
ATOM      5  C   UNL     1      46.761   5.088  13.321  0.00  0.00    +0.000 A 
ATOM      6  C   UNL     1      47.941   5.837  13.337  0.00  0.00    +0.000 A 
ENDROOT
BRANCH   1   7
ATOM      7  C   UNL     1      49.207   7.997  12.981  0.00  0.00    +0.000 C 
BRANCH   7  10
ATOM      8  C   UNL     1      50.443   7.804  15.105  0.00  0.00    +0.000 C 
ATOM      9  O   UNL     1      49.838   8.758  15.592  0.00  0.00    +0.000 OA
ATOM     10  N   UNL     1      50.185   7.373  13.835  0.00  0.00    +0.000 N 
ATOM     11  H   UNL     1      50.707   6.603  13.443  0.00  0.00    +0.000 HD
BRANCH   8  19
ATOM     12  C   UNL     1      50.348   5.003  17.109  0.00  0.00    +0.000 A 
ATOM     13  N   UNL     1      50.603   3.932  17.887  0.00  0.00    +0.000 NA
ATOM     14  C   UNL     1      51.864   3.726  18.275  0.00  0.00    +0.000 A 
ATOM     15  N   UNL     1      52.922   4.475  17.985  0.00  0.00    +0.000 NA
ATOM     16  C   UNL     1      52.629   5.525  17.202  0.00  0.00    +0.000 A 
ATOM     17  S   UNL     1      53.862   6.594  16.737  0.00  0.00    +0.000 S 
ATOM     18  C   UNL     1      52.773   7.539  15.839  0.00  0.00    +0.000 A 
ATOM     19  C   UNL     1      51.467   7.068  15.866  0.00  0.00    +0.000 A 
ATOM     20  C   UNL     1      51.379   5.870  16.699  0.00  0.00    +0.000 A 
BRANCH  12  22
ATOM     21  C   UNL     1      48.289   6.022  17.567  0.00  0.00    +0.000 C 
ATOM     22  O   UNL     1      49.052   5.201  16.685  0.00  0.00    +0.000 OA
ENDBRANCH  12  22
ENDBRANCH   8  19
ENDBRANCH   7  10
ENDBRANCH   1   7
BRANCH   4  23
ATOM     23  C   UNL     1      44.279   4.837  12.864  0.00  0.00    +0.000 C 
BRANCH  23  24
ATOM     24  N   UNL     1      44.361   3.683  11.950  0.00  0.00    +0.000 NA
ATOM     25  C   UNL     1      43.700   2.501  12.521  0.00  0.00    +0.000 C 
BRANCH  24  26
ATOM     26  C   UNL     1      43.843   3.963  10.585  0.00  0.00    +0.000 C 
ATOM     27  C   UNL     1      43.396   5.417  10.324  0.00  0.00    +0.000 C 
BRANCH  26  28
ATOM     28  C   UNL     1      44.750   3.456   9.459  0.00  0.00    +0.000 A 
ATOM     29  C   UNL     1      45.399   4.374   8.617  0.00  0.00    +0.000 A 
ATOM     30  C   UNL     1      46.341   3.942   7.678  0.00  0.00    +0.000 A 
ATOM     31  C   UNL     1      46.631   2.584   7.551  0.00  0.00    +0.000 A 
ATOM     32  C   UNL     1      45.959   1.657   8.340  0.00  0.00    +0.000 A 
ATOM     33  C   UNL     1      45.022   2.089   9.280  0.00  0.00    +0.000 A 
ENDBRANCH  26  28
ENDBRANCH  24  26
ENDBRANCH  23  24
ENDBRANCH   4  23
TORSDOF 8
ENDMDL
MODEL 5
REMARK VINA RESULT:    -6.827      3.292      5.278
REMARK INTER + INTRA:         -11.526
REMARK INTER:                  -9.729
REMARK INTRA:                  -1.797
REMARK UNBOUND:                -1.507
REMARK  Name = 
REMARK  11 active torsions:
REMARK  status: ('A' for Active; 'I' for Inactive)
REMARK    1  A    between atoms: C_1  and  O_2
REMARK    2  A    between atoms: O_2  and  C_3
REMARK    3  A    between atoms: C_10  and  C_11
REMARK    4  A    between atoms: N_13  and  C_14
REMARK    5  A    between atoms: C_14  and  C_15
REMARK    6  A    between atoms: C_18  and  C_19
REMARK    7  A    between atoms: C_19  and  N_20
REMARK    8  A    between atoms: N_20  and  C_21
REMARK    9  A    between atoms: N_20  and  C_22
REMARK   10  A    between atoms: C_22  and  C_23
REMARK   11  A    between atoms: C_22  and  C_24
REMARK                            x       y       z     vdW  Elec       q    Type
REMARK                         _______ _______ _______ _____ _____    ______ ____
ROOT
ATOM      1  C   UNL     1      47.879   4.142  16.490  0.00  0.00    +0.000 A 
ATOM      2  C   UNL     1      47.194   3.775  15.323  0.00  0.00    +0.000 A 
ATOM      3  C   UNL     1      47.062   4.673  14.260  0.00  0.00    +0.000 A 
ATOM      4  C   UNL     1      47.615   5.958  14.339  0.00  0.00    +0.000 A 
ATOM      5  C   UNL     1      48.336   6.311  15.489  0.00  0.00    +0.000 A 
ATOM      6  C   UNL     1      48.469   5.412  16.551  0.00  0.00    +0.000 A 
ENDROOT
BRANCH   1   7
ATOM      7  C   UNL     1      48.033   3.168  17.631  0.00  0.00    +0.000 C 
BRANCH   7  10
ATOM      8  C   UNL     1      50.226   2.168  17.120  0.00  0.00    +0.000 C 
ATOM      9  O   UNL     1      49.792   1.630  16.103  0.00  0.00    +0.000 OA
ATOM     10  N   UNL     1      49.427   2.938  17.914  0.00  0.00    +0.000 N 
ATOM     11  H   UNL     1      49.795   3.353  18.757  0.00  0.00    +0.000 HD
BRANCH   8  19
ATOM     12  C   UNL     1      52.745   4.423  17.786  0.00  0.00    +0.000 A 
ATOM     13  N   UNL     1      53.876   5.067  18.139  0.00  0.00    +0.000 NA
ATOM     14  C   UNL     1      54.931   4.331  18.497  0.00  0.00    +0.000 A 
ATOM     15  N   UNL     1      55.002   3.006  18.540  0.00  0.00    +0.000 NA
ATOM     16  C   UNL     1      53.855   2.402  18.191  0.00  0.00    +0.000 A 
ATOM     17  S   UNL     1      53.770   0.707  18.183  0.00  0.00    +0.000 S 
ATOM     18  C   UNL     1      52.145   0.741  17.691  0.00  0.00    +0.000 A 
ATOM     19  C   UNL     1      51.635   2.023  17.528  0.00  0.00    +0.000 A 
ATOM     20  C   UNL     1      52.668   3.017  17.812  0.00  0.00    +0.000 A 
BRANCH  12  22
ATOM     21  C   UNL     1      51.975   6.323  16.653  0.00  0.00    +0.000 C 
ATOM     22  O   UNL     1      51.647   5.182  17.443  0.00  0.00    +0.000 OA
ENDBRANCH  12  22
ENDBRANCH   8  19
ENDBRANCH   7  10
ENDBRANCH   1   7
BRANCH   4  23
ATOM     23  C   UNL     1      47.432   6.959  13.209  0.00  0.00    +0.000 C 
BRANCH  23  24
ATOM     24  N   UNL     1      46.024   7.270  12.903  0.00  0.00    +0.000 NA
ATOM     25  C   UNL     1      45.774   8.718  12.950  0.00  0.00    +0.000 C 
BRANCH  24  26
ATOM     26  C   UNL     1      45.551   6.700  11.615  0.00  0.00    +0.000 C 
ATOM     27  C   UNL     1      46.627   6.540  10.519  0.00  0.00    +0.000 C 
BRANCH  26  28
ATOM     28  C   UNL     1      44.727   5.417  11.766  0.00  0.00    +0.000 A 
ATOM     29  C   UNL     1      44.837   4.398  10.807  0.00  0.00    +0.000 A 
ATOM     30  C   UNL     1      44.207   3.164  10.998  0.00  0.00    +0.000 A 
ATOM     31  C   UNL     1      43.440   2.939  12.140  0.00  0.00    +0.000 A 
ATOM     32  C   UNL     1      43.276   3.956  13.074  0.00  0.00    +0.000 A 
ATOM     33  C   UNL     1      43.908   5.186  12.885  0.00  0.00    +0.000 A 
ENDBRANCH  26  28
ENDBRANCH  24  26
ENDBRANCH  23  24
ENDBRANCH   4  23
TORSDOF 8
ENDMDL
MODEL 6
REMARK VINA RESULT:    -6.763      3.435      8.729
REMARK INTER + INTRA:         -11.433
REMARK INTER:                  -8.760
REMARK INTRA:                  -2.673
REMARK UNBOUND:                -1.507
REMARK  Name = 
REMARK  11 active torsions:
REMARK  status: ('A' for Active; 'I' for Inactive)
REMARK    1  A    between atoms: C_1  and  O_2
REMARK    2  A    between atoms: O_2  and  C_3
REMARK    3  A    between atoms: C_10  and  C_11
REMARK    4  A    between atoms: N_13  and  C_14
REMARK    5  A    between atoms: C_14  and  C_15
REMARK    6  A    between atoms: C_18  and  C_19
REMARK    7  A    between atoms: C_19  and  N_20
REMARK    8  A    between atoms: N_20  and  C_21
REMARK    9  A    between atoms: N_20  and  C_22
REMARK   10  A    between atoms: C_22  and  C_23
REMARK   11  A    between atoms: C_22  and  C_24
REMARK                            x       y       z     vdW  Elec       q    Type
REMARK                         _______ _______ _______ _____ _____    ______ ____
ROOT
ATOM      1  C   UNL     1      48.876   8.079  15.777  0.00  0.00    +0.000 A 
ATOM      2  C   UNL     1      48.265   8.646  16.904  0.00  0.00    +0.000 A 
ATOM      3  C   UNL     1      48.714   8.337  18.191  0.00  0.00    +0.000 A 
ATOM      4  C   UNL     1      49.788   7.456  18.379  0.00  0.00    +0.000 A 
ATOM      5  C   UNL     1      50.426   6.922  17.251  0.00  0.00    +0.000 A 
ATOM      6  C   UNL     1      49.978   7.232  15.964  0.00  0.00    +0.000 A 
ENDROOT
BRANCH   1   7
ATOM      7  C   UNL     1      48.399   8.423  14.388  0.00  0.00    +0.000 C 
BRANCH   7  10
ATOM      8  C   UNL     1      47.671   6.378  13.220  0.00  0.00    +0.000 C 
ATOM      9  O   UNL     1      48.823   6.105  12.889  0.00  0.00    +0.000 OA
ATOM     10  N   UNL     1      47.387   7.492  13.956  0.00  0.00    +0.000 N 
ATOM     11  H   UNL     1      46.432   7.713  14.199  0.00  0.00    +0.000 HD
BRANCH   8  19
ATOM     12  C   UNL     1      44.547   6.996  11.903  0.00  0.00    +0.000 A 
ATOM     13  N   UNL     1      43.312   6.946  11.365  0.00  0.00    +0.000 NA
ATOM     14  C   UNL     1      42.740   5.748  11.221  0.00  0.00    +0.000 A 
ATOM     15  N   UNL     1      43.254   4.571  11.560  0.00  0.00    +0.000 NA
ATOM     16  C   UNL     1      44.487   4.662  12.082  0.00  0.00    +0.000 A 
ATOM     17  S   UNL     1      45.294   3.253  12.577  0.00  0.00    +0.000 S 
ATOM     18  C   UNL     1      46.657   4.144  13.059  0.00  0.00    +0.000 A 
ATOM     19  C   UNL     1      46.536   5.512  12.853  0.00  0.00    +0.000 A 
ATOM     20  C   UNL     1      45.226   5.823  12.283  0.00  0.00    +0.000 A 
BRANCH  12  22
ATOM     21  C   UNL     1      44.495   9.255  11.282  0.00  0.00    +0.000 C 
ATOM     22  O   UNL     1      45.150   8.230  12.027  0.00  0.00    +0.000 OA
ENDBRANCH  12  22
ENDBRANCH   8  19
ENDBRANCH   7  10
ENDBRANCH   1   7
BRANCH   4  23
ATOM     23  C   UNL     1      50.250   7.075  19.776  0.00  0.00    +0.000 C 
BRANCH  23  24
ATOM     24  N   UNL     1      50.396   5.623  19.987  0.00  0.00    +0.000 NA
ATOM     25  C   UNL     1      51.267   5.335  21.136  0.00  0.00    +0.000 C 
BRANCH  24  26
ATOM     26  C   UNL     1      49.102   4.905  20.119  0.00  0.00    +0.000 C 
ATOM     27  C   UNL     1      47.963   5.696  20.797  0.00  0.00    +0.000 C 
BRANCH  26  28
ATOM     28  C   UNL     1      48.618   4.248  18.822  0.00  0.00    +0.000 A 
ATOM     29  C   UNL     1      47.489   4.756  18.160  0.00  0.00    +0.000 A 
ATOM     30  C   UNL     1      47.116   4.268  16.904  0.00  0.00    +0.000 A 
ATOM     31  C   UNL     1      47.851   3.249  16.302  0.00  0.00    +0.000 A 
ATOM     32  C   UNL     1      48.941   2.697  16.967  0.00  0.00    +0.000 A 
ATOM     33  C   UNL     1      49.316   3.187  18.219  0.00  0.00    +0.000 A 
ENDBRANCH  26  28
ENDBRANCH  24  26
ENDBRANCH  23  24
ENDBRANCH   4  23
TORSDOF 8
ENDMDL
MODEL 7
REMARK VINA RESULT:    -6.566      3.208      8.859
REMARK INTER + INTRA:         -11.143
REMARK INTER:                  -9.110
REMARK INTRA:                  -2.033
REMARK UNBOUND:                -1.507
REMARK  Name = 
REMARK  11 active torsions:
REMARK  status: ('A' for Active; 'I' for Inactive)
REMARK    1  A    between atoms: C_1  and  O_2
REMARK    2  A    between atoms: O_2  and  C_3
REMARK    3  A    between atoms: C_10  and  C_11
REMARK    4  A    between atoms: N_13  and  C_14
REMARK    5  A    between atoms: C_14  and  C_15
REMARK    6  A    between atoms: C_18  and  C_19
REMARK    7  A    between atoms: C_19  and  N_20
REMARK    8  A    between atoms: N_20  and  C_21
REMARK    9  A    between atoms: N_20  and  C_22
REMARK   10  A    between atoms: C_22  and  C_23
REMARK   11  A    between atoms: C_22  and  C_24
REMARK                            x       y       z     vdW  Elec       q    Type
REMARK                         _______ _______ _______ _____ _____    ______ ____
ROOT
ATOM      1  C   UNL     1      48.389   7.960  13.130  0.00  0.00    +0.000 A 
ATOM      2  C   UNL     1      49.550   7.286  13.530  0.00  0.00    +0.000 A 
ATOM      3  C   UNL     1      50.066   7.457  14.818  0.00  0.00    +0.000 A 
ATOM      4  C   UNL     1      49.429   8.304  15.736  0.00  0.00    +0.000 A 
ATOM      5  C   UNL     1      48.244   8.945  15.349  0.00  0.00    +0.000 A 
ATOM      6  C   UNL     1      47.728   8.773  14.061  0.00  0.00    +0.000 A 
ENDROOT
BRANCH   1   7
ATOM      7  C   UNL     1      47.825   7.765  11.744  0.00  0.00    +0.000 C 
BRANCH   7  10
ATOM      8  C   UNL     1      45.640   6.625  11.706  0.00  0.00    +0.000 C 
ATOM      9  O   UNL     1      45.033   7.693  11.751  0.00  0.00    +0.000 OA
ATOM     10  N   UNL     1      47.004   6.581  11.695  0.00  0.00    +0.000 N 
ATOM     11  H   UNL     1      47.486   5.694  11.681  0.00  0.00    +0.000 HD
BRANCH   8  19
ATOM     12  C   UNL     1      45.325   4.201   9.277  0.00  0.00    +0.000 A 
ATOM     13  N   UNL     1      45.073   3.100   8.541  0.00  0.00    +0.000 NA
ATOM     14  C   UNL     1      44.325   2.138   9.088  0.00  0.00    +0.000 A 
ATOM     15  N   UNL     1      43.781   2.142  10.299  0.00  0.00    +0.000 NA
ATOM     16  C   UNL     1      44.062   3.250  11.004  0.00  0.00    +0.000 A 
ATOM     17  S   UNL     1      43.440   3.426  12.573  0.00  0.00    +0.000 S 
ATOM     18  C   UNL     1      44.194   4.937  12.756  0.00  0.00    +0.000 A 
ATOM     19  C   UNL     1      44.930   5.334  11.647  0.00  0.00    +0.000 A 
ATOM     20  C   UNL     1      44.834   4.330  10.590  0.00  0.00    +0.000 A 
BRANCH  12  22
ATOM     21  C   UNL     1      46.910   4.717   7.630  0.00  0.00    +0.000 C 
ATOM     22  O   UNL     1      46.120   5.182   8.723  0.00  0.00    +0.000 OA
ENDBRANCH  12  22
ENDBRANCH   8  19
ENDBRANCH   7  10
ENDBRANCH   1   7
BRANCH   4  23
ATOM     23  C   UNL     1      50.012   8.535  17.120  0.00  0.00    +0.000 C 
BRANCH  23  24
ATOM     24  N   UNL     1      50.503   7.311  17.780  0.00  0.00    +0.000 NA
ATOM     25  C   UNL     1      51.580   7.613  18.734  0.00  0.00    +0.000 C 
BRANCH  24  26
ATOM     26  C   UNL     1      49.433   6.515  18.434  0.00  0.00    +0.000 C 
ATOM     27  C   UNL     1      48.155   7.293  18.814  0.00  0.00    +0.000 C 
BRANCH  26  28
ATOM     28  C   UNL     1      49.086   5.215  17.701  0.00  0.00    +0.000 A 
ATOM     29  C   UNL     1      49.878   4.071  17.892  0.00  0.00    +0.000 A 
ATOM     30  C   UNL     1      49.500   2.840  17.348  0.00  0.00    +0.000 A 
ATOM     31  C   UNL     1      48.337   2.738  16.587  0.00  0.00    +0.000 A 
ATOM     32  C   UNL     1      47.569   3.871  16.343  0.00  0.00    +0.000 A 
ATOM     33  C   UNL     1      47.944   5.100  16.889  0.00  0.00    +0.000 A 
ENDBRANCH  26  28
ENDBRANCH  24  26
ENDBRANCH  23  24
ENDBRANCH   4  23
TORSDOF 8
ENDMDL
MODEL 8
REMARK VINA RESULT:    -6.544      3.601      8.511
REMARK INTER + INTRA:         -11.112
REMARK INTER:                  -9.238
REMARK INTRA:                  -1.874
REMARK UNBOUND:                -1.507
REMARK  Name = 
REMARK  11 active torsions:
REMARK  status: ('A' for Active; 'I' for Inactive)
REMARK    1  A    between atoms: C_1  and  O_2
REMARK    2  A    between atoms: O_2  and  C_3
REMARK    3  A    between atoms: C_10  and  C_11
REMARK    4  A    between atoms: N_13  and  C_14
REMARK    5  A    between atoms: C_14  and  C_15
REMARK    6  A    between atoms: C_18  and  C_19
REMARK    7  A    between atoms: C_19  and  N_20
REMARK    8  A    between atoms: N_20  and  C_21
REMARK    9  A    between atoms: N_20  and  C_22
REMARK   10  A    between atoms: C_22  and  C_23
REMARK   11  A    between atoms: C_22  and  C_24
REMARK                            x       y       z     vdW  Elec       q    Type
REMARK                         _______ _______ _______ _____ _____    ______ ____
ROOT
ATOM      1  C   UNL     1      48.298   8.622  15.445  0.00  0.00    +0.000 A 
ATOM      2  C   UNL     1      47.931   9.384  16.562  0.00  0.00    +0.000 A 
ATOM      3  C   UNL     1      48.278   8.972  17.852  0.00  0.00    +0.000 A 
ATOM      4  C   UNL     1      49.003   7.789  18.053  0.00  0.00    +0.000 A 
ATOM      5  C   UNL     1      49.406   7.049  16.933  0.00  0.00    +0.000 A 
ATOM      6  C   UNL     1      49.061   7.462  15.643  0.00  0.00    +0.000 A 
ENDROOT
BRANCH   1   7
ATOM      7  C   UNL     1      47.935   9.073  14.052  0.00  0.00    +0.000 C 
BRANCH   7  10
ATOM      8  C   UNL     1      46.831   7.459  12.552  0.00  0.00    +0.000 C 
ATOM      9  O   UNL     1      47.889   7.201  11.981  0.00  0.00    +0.000 OA
ATOM     10  N   UNL     1      46.777   8.360  13.576  0.00  0.00    +0.000 N 
ATOM     11  H   UNL     1      45.895   8.577  14.018  0.00  0.00    +0.000 HD
BRANCH   8  19
ATOM     12  C   UNL     1      45.688   4.216  12.774  0.00  0.00    +0.000 A 
ATOM     13  N   UNL     1      44.986   3.065  12.778  0.00  0.00    +0.000 NA
ATOM     14  C   UNL     1      43.740   3.090  12.297  0.00  0.00    +0.000 A 
ATOM     15  N   UNL     1      43.098   4.139  11.796  0.00  0.00    +0.000 NA
ATOM     16  C   UNL     1      43.826   5.266  11.819  0.00  0.00    +0.000 A 
ATOM     17  S   UNL     1      43.163   6.705  11.211  0.00  0.00    +0.000 S 
ATOM     18  C   UNL     1      44.576   7.572  11.581  0.00  0.00    +0.000 A 
ATOM     19  C   UNL     1      45.568   6.801  12.173  0.00  0.00    +0.000 A 
ATOM     20  C   UNL     1      45.123   5.414  12.298  0.00  0.00    +0.000 A 
BRANCH  12  22
ATOM     21  C   UNL     1      47.013   4.542  14.679  0.00  0.00    +0.000 C 
ATOM     22  O   UNL     1      46.964   4.197  13.295  0.00  0.00    +0.000 OA
ENDBRANCH  12  22
ENDBRANCH   8  19
ENDBRANCH   7  10
ENDBRANCH   1   7
BRANCH   4  23
ATOM     23  C   UNL     1      49.340   7.307  19.455  0.00  0.00    +0.000 C 
BRANCH  23  24
ATOM     24  N   UNL     1      50.342   6.227  19.496  0.00  0.00    +0.000 NA
ATOM     25  C   UNL     1      51.471   6.578  20.370  0.00  0.00    +0.000 C 
BRANCH  24  26
ATOM     26  C   UNL     1      49.781   4.904  19.873  0.00  0.00    +0.000 C 
ATOM     27  C   UNL     1      48.598   4.936  20.864  0.00  0.00    +0.000 C 
BRANCH  26  28
ATOM     28  C   UNL     1      49.473   3.994  18.679  0.00  0.00    +0.000 A 
ATOM     29  C   UNL     1      50.524   3.393  17.969  0.00  0.00    +0.000 A 
ATOM     30  C   UNL     1      50.265   2.448  16.970  0.00  0.00    +0.000 A 
ATOM     31  C   UNL     1      48.951   2.109  16.652  0.00  0.00    +0.000 A 
ATOM     32  C   UNL     1      47.896   2.735  17.308  0.00  0.00    +0.000 A 
ATOM     33  C   UNL     1      48.155   3.674  18.308  0.00  0.00    +0.000 A 
ENDBRANCH  26  28
ENDBRANCH  24  26
ENDBRANCH  23  24
ENDBRANCH   4  23
TORSDOF 8
ENDMDL
MODEL 9
REMARK VINA RESULT:    -6.334      1.469      2.226
REMARK INTER + INTRA:         -10.803
REMARK INTER:                  -9.391
REMARK INTRA:                  -1.412
REMARK UNBOUND:                -1.507
REMARK  Name = 
REMARK  11 active torsions:
REMARK  status: ('A' for Active; 'I' for Inactive)
REMARK    1  A    between atoms: C_1  and  O_2
REMARK    2  A    between atoms: O_2  and  C_3
REMARK    3  A    between atoms: C_10  and  C_11
REMARK    4  A    between atoms: N_13  and  C_14
REMARK    5  A    between atoms: C_14  and  C_15
REMARK    6  A    between atoms: C_18  and  C_19
REMARK    7  A    between atoms: C_19  and  N_20
REMARK    8  A    between atoms: N_20  and  C_21
REMARK    9  A    between atoms: N_20  and  C_22
REMARK   10  A    between atoms: C_22  and  C_23
REMARK   11  A    between atoms: C_22  and  C_24
REMARK                            x       y       z     vdW  Elec       q    Type
REMARK                         _______ _______ _______ _____ _____    ______ ____
ROOT
ATOM      1  C   UNL     1      48.770   8.279  14.022  0.00  0.00    +0.000 A 
ATOM      2  C   UNL     1      49.054   7.191  13.185  0.00  0.00    +0.000 A 
ATOM      3  C   UNL     1      48.048   6.604  12.412  0.00  0.00    +0.000 A 
ATOM      4  C   UNL     1      46.735   7.095  12.456  0.00  0.00    +0.000 A 
ATOM      5  C   UNL     1      46.461   8.209  13.260  0.00  0.00    +0.000 A 
ATOM      6  C   UNL     1      47.467   8.797  14.032  0.00  0.00    +0.000 A 
ENDROOT
BRANCH   1   7
ATOM      7  C   UNL     1      49.858   8.920  14.846  0.00  0.00    +0.000 C 
BRANCH   7  10
ATOM      8  C   UNL     1      49.696   8.890  17.305  0.00  0.00    +0.000 C 
ATOM      9  O   UNL     1      49.316  10.059  17.337  0.00  0.00    +0.000 OA
ATOM     10  N   UNL     1      49.976   8.265  16.124  0.00  0.00    +0.000 N 
ATOM     11  H   UNL     1      50.309   7.312  16.118  0.00  0.00    +0.000 HD
BRANCH   8  19
ATOM     12  C   UNL     1      48.528   5.807  18.307  0.00  0.00    +0.000 A 
ATOM     13  N   UNL     1      48.253   4.641  18.925  0.00  0.00    +0.000 NA
ATOM     14  C   UNL     1      48.765   4.441  20.142  0.00  0.00    +0.000 A 
ATOM     15  N   UNL     1      49.527   5.279  20.835  0.00  0.00    +0.000 NA
ATOM     16  C   UNL     1      49.786   6.423  20.182  0.00  0.00    +0.000 A 
ATOM     17  S   UNL     1      50.742   7.613  20.925  0.00  0.00    +0.000 S 
ATOM     18  C   UNL     1      50.614   8.631  19.571  0.00  0.00    +0.000 A 
ATOM     19  C   UNL     1      49.857   8.095  18.536  0.00  0.00    +0.000 A 
ATOM     20  C   UNL     1      49.347   6.778  18.912  0.00  0.00    +0.000 A 
BRANCH  12  22
ATOM     21  C   UNL     1      48.030   4.822  16.240  0.00  0.00    +0.000 C 
ATOM     22  O   UNL     1      48.022   6.003  17.040  0.00  0.00    +0.000 OA
ENDBRANCH  12  22
ENDBRANCH   8  19
ENDBRANCH   7  10
ENDBRANCH   1   7
BRANCH   4  23
ATOM     23  C   UNL     1      45.625   6.430  11.658  0.00  0.00    +0.000 C 
BRANCH  23  24
ATOM     24  N   UNL     1      45.519   4.975  11.871  0.00  0.00    +0.000 NA
ATOM     25  C   UNL     1      45.299   4.657  13.289  0.00  0.00    +0.000 C 
BRANCH  24  26
ATOM     26  C   UNL     1      44.490   4.320  11.022  0.00  0.00    +0.000 C 
ATOM     27  C   UNL     1      43.232   5.163  10.725  0.00  0.00    +0.000 C 
BRANCH  26  28
ATOM     28  C   UNL     1      45.046   3.693   9.740  0.00  0.00    +0.000 A 
ATOM     29  C   UNL     1      45.606   4.512   8.746  0.00  0.00    +0.000 A 
ATOM     30  C   UNL     1      46.248   3.954   7.637  0.00  0.00    +0.000 A 
ATOM     31  C   UNL     1      46.320   2.570   7.492  0.00  0.00    +0.000 A 
ATOM     32  C   UNL     1      45.725   1.743   8.439  0.00  0.00    +0.000 A 
ATOM     33  C   UNL     1      45.087   2.300   9.549  0.00  0.00    +0.000 A 
ENDBRANCH  26  28
ENDBRANCH  24  26
ENDBRANCH  23  24
ENDBRANCH   4  23
TORSDOF 8
ENDMDL
