MODEL 1
REMARK VINA RESULT:    -8.478      0.000      0.000
REMARK INTER + INTRA:         -11.775
REMARK INTER:                 -11.451
REMARK INTRA:                  -0.324
REMARK UNBOUND:                -0.324
REMARK  Name = 
REMARK  7 active torsions:
REMARK  status: ('A' for Active; 'I' for Inactive)
REMARK    1  A    between atoms: C_1  and  O_2
REMARK    2  A    between atoms: O_2  and  C_3
REMARK    3  A    between atoms: C_6  and  C_7
REMARK    4  A    between atoms: C_11  and  O_12
REMARK    5  A    between atoms: O_12  and  C_13
REMARK    6  A    between atoms: C_13  and  C_14
REMARK    7  A    between atoms: C_19  and  C_20
REMARK                            x       y       z     vdW  Elec       q    Type
REMARK                         _______ _______ _______ _____ _____    ______ ____
ROOT
ATOM      1  C   UNL     1      45.917   5.670  12.070  0.00  0.00    +0.000 A 
ATOM      2  N   UNL     1      45.797   4.763  13.048  0.00  0.00    +0.000 NA
ATOM      3  C   UNL     1      46.809   4.713  13.899  0.00  0.00    +0.000 A 
ATOM      4  N   UNL     1      46.744   3.789  14.924  0.00  0.00    +0.000 N 
ATOM      5  N   UNL     1      47.873   5.496  13.872  0.00  0.00    +0.000 NA
ATOM      6  C   UNL     1      47.900   6.370  12.866  0.00  0.00    +0.000 A 
ATOM      7  N   UNL     1      46.942   6.513  11.954  0.00  0.00    +0.000 NA
ATOM      8  H   UNL     1      45.790   3.532  15.118  0.00  0.00    +0.000 HD
ATOM      9  H   UNL     1      47.325   4.077  15.701  0.00  0.00    +0.000 HD
ENDROOT
BRANCH   6  10
ATOM     10  C   UNL     1      49.091   7.224  12.727  0.00  0.00    +0.000 A 
ATOM     11  C   UNL     1      49.873   7.591  13.840  0.00  0.00    +0.000 A 
ATOM     12  C   UNL     1      51.015   8.382  13.692  0.00  0.00    +0.000 A 
ATOM     13  C   UNL     1      51.391   8.822  12.426  0.00  0.00    +0.000 A 
ATOM     14 CL   UNL     1      52.795   9.797  12.242  0.00  0.00    +0.000 Cl
ATOM     15  C   UNL     1      50.639   8.481  11.309  0.00  0.00    +0.000 A 
ATOM     16  C   UNL     1      49.499   7.688  11.461  0.00  0.00    +0.000 A 
ENDBRANCH   6  10
BRANCH   1  17
ATOM     17  C   UNL     1      44.798   5.796  11.063  0.00  0.00    +0.000 C 
BRANCH  17  18
ATOM     18  O   UNL     1      45.264   5.555   9.729  0.00  0.00    +0.000 OA
BRANCH  18  24
ATOM     19  C   UNL     1      44.466   3.187   9.734  0.00  0.00    +0.000 A 
ATOM     20  C   UNL     1      44.659   1.910   9.197  0.00  0.00    +0.000 A 
ATOM     21  C   UNL     1      45.624   1.687   8.217  0.00  0.00    +0.000 A 
ATOM     22  C   UNL     1      46.409   2.737   7.736  0.00  0.00    +0.000 A 
ATOM     23  C   UNL     1      46.231   4.018   8.279  0.00  0.00    +0.000 A 
ATOM     24  C   UNL     1      45.274   4.250   9.287  0.00  0.00    +0.000 A 
BRANCH  22  25
ATOM     25  C   UNL     1      47.389   2.414   6.662  0.00  0.00    +0.000 C 
ATOM     26  N   UNL     1      47.302   3.071   5.468  0.00  0.00    +0.000 N 
ATOM     27  O   UNL     1      48.264   1.567   6.828  0.00  0.00    +0.000 OA
ATOM     28  H   UNL     1      46.625   3.782   5.241  0.00  0.00    +0.000 HD
ATOM     29  H   UNL     1      47.987   2.828   4.765  0.00  0.00    +0.000 HD
ENDBRANCH  22  25
BRANCH  19  31
ATOM     30  C   UNL     1      43.330   2.607  11.751  0.00  0.00    +0.000 C 
ATOM     31  O   UNL     1      43.453   3.451  10.614  0.00  0.00    +0.000 OA
ENDBRANCH  19  31
ENDBRANCH  18  24
ENDBRANCH  17  18
ENDBRANCH   1  17
TORSDOF 6
ENDMDL
MODEL 2
REMARK VINA RESULT:    -8.025      3.845      7.956
REMARK INTER + INTRA:         -11.164
REMARK INTER:                 -10.444
REMARK INTRA:                  -0.720
REMARK UNBOUND:                -0.324
REMARK  Name = 
REMARK  7 active torsions:
REMARK  status: ('A' for Active; 'I' for Inactive)
REMARK    1  A    between atoms: C_1  and  O_2
REMARK    2  A    between atoms: O_2  and  C_3
REMARK    3  A    between atoms: C_6  and  C_7
REMARK    4  A    between atoms: C_11  and  O_12
REMARK    5  A    between atoms: O_12  and  C_13
REMARK    6  A    between atoms: C_13  and  C_14
REMARK    7  A    between atoms: C_19  and  C_20
REMARK                            x       y       z     vdW  Elec       q    Type
REMARK                         _______ _______ _______ _____ _____    ______ ____
ROOT
ATOM      1  C   UNL     1      45.301   6.126  12.273  0.00  0.00    +0.000 A 
ATOM      2  N   UNL     1      43.991   6.329  12.471  0.00  0.00    +0.000 NA
ATOM      3  C   UNL     1      43.189   5.713  11.619  0.00  0.00    +0.000 A 
ATOM      4  N   UNL     1      41.828   5.894  11.770  0.00  0.00    +0.000 N 
ATOM      5  N   UNL     1      43.577   4.908  10.647  0.00  0.00    +0.000 NA
ATOM      6  C   UNL     1      44.897   4.762  10.532  0.00  0.00    +0.000 A 
ATOM      7  N   UNL     1      45.798   5.329  11.329  0.00  0.00    +0.000 NA
ATOM      8  H   UNL     1      41.602   6.161  12.714  0.00  0.00    +0.000 HD
ATOM      9  H   UNL     1      41.318   5.122  11.361  0.00  0.00    +0.000 HD
ENDROOT
BRANCH   6  10
ATOM     10  C   UNL     1      45.406   3.941   9.422  0.00  0.00    +0.000 A 
ATOM     11  C   UNL     1      46.012   4.521   8.290  0.00  0.00    +0.000 A 
ATOM     12  C   UNL     1      46.514   3.730   7.253  0.00  0.00    +0.000 A 
ATOM     13  C   UNL     1      46.414   2.344   7.331  0.00  0.00    +0.000 A 
ATOM     14 CL   UNL     1      47.028   1.369   6.056  0.00  0.00    +0.000 Cl
ATOM     15  C   UNL     1      45.818   1.742   8.433  0.00  0.00    +0.000 A 
ATOM     16  C   UNL     1      45.319   2.536   9.468  0.00  0.00    +0.000 A 
ENDBRANCH   6  10
BRANCH   1  17
ATOM     17  C   UNL     1      46.283   6.788  13.211  0.00  0.00    +0.000 C 
BRANCH  17  18
ATOM     18  O   UNL     1      47.455   5.982  13.396  0.00  0.00    +0.000 OA
BRANCH  18  24
ATOM     19  C   UNL     1      48.986   6.812  15.188  0.00  0.00    +0.000 A 
ATOM     20  C   UNL     1      49.466   6.587  16.481  0.00  0.00    +0.000 A 
ATOM     21  C   UNL     1      48.974   5.534  17.252  0.00  0.00    +0.000 A 
ATOM     22  C   UNL     1      47.977   4.691  16.755  0.00  0.00    +0.000 A 
ATOM     23  C   UNL     1      47.501   4.903  15.453  0.00  0.00    +0.000 A 
ATOM     24  C   UNL     1      48.008   5.949  14.657  0.00  0.00    +0.000 A 
BRANCH  22  25
ATOM     25  C   UNL     1      47.484   3.617  17.661  0.00  0.00    +0.000 C 
ATOM     26  N   UNL     1      48.109   3.425  18.859  0.00  0.00    +0.000 N 
ATOM     27  O   UNL     1      46.537   2.900  17.346  0.00  0.00    +0.000 OA
ATOM     28  H   UNL     1      48.887   3.963  19.205  0.00  0.00    +0.000 HD
ATOM     29  H   UNL     1      47.744   2.688  19.449  0.00  0.00    +0.000 HD
ENDBRANCH  22  25
BRANCH  19  31
ATOM     30  C   UNL     1      50.266   8.822  15.069  0.00  0.00    +0.000 C 
ATOM     31  O   UNL     1      49.373   7.902  14.457  0.00  0.00    +0.000 OA
ENDBRANCH  19  31
ENDBRANCH  18  24
ENDBRANCH  17  18
ENDBRANCH   1  17
TORSDOF 6
ENDMDL
MODEL 3
REMARK VINA RESULT:    -7.886      3.749      7.401
REMARK INTER + INTRA:         -10.976
REMARK INTER:                 -10.150
REMARK INTRA:                  -0.826
REMARK UNBOUND:                -0.324
REMARK  Name = 
REMARK  7 active torsions:
REMARK  status: ('A' for Active; 'I' for Inactive)
REMARK    1  A    between atoms: C_1  and  O_2
REMARK    2  A    between atoms: O_2  and  C_3
REMARK    3  A    between atoms: C_6  and  C_7
REMARK    4  A    between atoms: C_11  and  O_12
REMARK    5  A    between atoms: O_12  and  C_13
REMARK    6  A    between atoms: C_13  and  C_14
REMARK    7  A    between atoms: C_19  and  C_20
REMARK                            x       y       z     vdW  Elec       q    Type
REMARK                         _______ _______ _______ _____ _____    ______ ____
ROOT
ATOM      1  C   UNL     1      45.110   4.850  12.808  0.00  0.00    +0.000 A 
ATOM      2  N   UNL     1      43.888   5.395  12.872  0.00  0.00    +0.000 NA
ATOM      3  C   UNL     1      43.195   5.361  11.746  0.00  0.00    +0.000 A 
ATOM      4  N   UNL     1      41.931   5.917  11.751  0.00  0.00    +0.000 N 
ATOM      5  N   UNL     1      43.597   4.811  10.615  0.00  0.00    +0.000 NA
ATOM      6  C   UNL     1      44.823   4.288  10.650  0.00  0.00    +0.000 A 
ATOM      7  N   UNL     1      45.609   4.262  11.723  0.00  0.00    +0.000 NA
ATOM      8  H   UNL     1      41.551   5.942  12.683  0.00  0.00    +0.000 HD
ATOM      9  H   UNL     1      41.361   5.515  11.017  0.00  0.00    +0.000 HD
ENDROOT
BRANCH   6  10
ATOM     10  C   UNL     1      45.369   3.725   9.405  0.00  0.00    +0.000 A 
ATOM     11  C   UNL     1      45.899   4.548   8.391  0.00  0.00    +0.000 A 
ATOM     12  C   UNL     1      46.437   4.001   7.223  0.00  0.00    +0.000 A 
ATOM     13  C   UNL     1      46.450   2.620   7.050  0.00  0.00    +0.000 A 
ATOM     14 CL   UNL     1      47.109   1.945   5.613  0.00  0.00    +0.000 Cl
ATOM     15  C   UNL     1      45.931   1.782   8.029  0.00  0.00    +0.000 A 
ATOM     16  C   UNL     1      45.396   2.332   9.197  0.00  0.00    +0.000 A 
ENDBRANCH   6  10
BRANCH   1  17
ATOM     17  C   UNL     1      45.961   4.841  14.056  0.00  0.00    +0.000 C 
BRANCH  17  18
ATOM     18  O   UNL     1      47.345   5.060  13.748  0.00  0.00    +0.000 OA
BRANCH  18  24
ATOM     19  C   UNL     1      48.665   6.627  15.178  0.00  0.00    +0.000 A 
ATOM     20  C   UNL     1      49.072   7.954  15.352  0.00  0.00    +0.000 A 
ATOM     21  C   UNL     1      48.722   8.935  14.426  0.00  0.00    +0.000 A 
ATOM     22  C   UNL     1      47.972   8.612  13.293  0.00  0.00    +0.000 A 
ATOM     23  C   UNL     1      47.549   7.287  13.118  0.00  0.00    +0.000 A 
ATOM     24  C   UNL     1      47.876   6.291  14.061  0.00  0.00    +0.000 A 
BRANCH  22  25
ATOM     25  C   UNL     1      47.677   9.716  12.338  0.00  0.00    +0.000 C 
ATOM     26  N   UNL     1      46.530  10.439  12.498  0.00  0.00    +0.000 N 
ATOM     27  O   UNL     1      48.439   9.980  11.411  0.00  0.00    +0.000 OA
ATOM     28  H   UNL     1      45.849  10.301  13.227  0.00  0.00    +0.000 HD
ATOM     29  H   UNL     1      46.366  11.183  11.832  0.00  0.00    +0.000 HD
ENDBRANCH  22  25
BRANCH  19  31
ATOM     30  C   UNL     1      48.234   5.265  17.089  0.00  0.00    +0.000 C 
ATOM     31  O   UNL     1      49.088   5.630  16.013  0.00  0.00    +0.000 OA
ENDBRANCH  19  31
ENDBRANCH  18  24
ENDBRANCH  17  18
ENDBRANCH   1  17
TORSDOF 6
ENDMDL
MODEL 4
REMARK VINA RESULT:    -7.813      1.688      2.253
REMARK INTER + INTRA:         -10.877
REMARK INTER:                 -10.302
REMARK INTRA:                  -0.575
REMARK UNBOUND:                -0.324
REMARK  Name = 
REMARK  7 active torsions:
REMARK  status: ('A' for Active; 'I' for Inactive)
REMARK    1  A    between atoms: C_1  and  O_2
REMARK    2  A    between atoms: O_2  and  C_3
REMARK    3  A    between atoms: C_6  and  C_7
REMARK    4  A    between atoms: C_11  and  O_12
REMARK    5  A    between atoms: O_12  and  C_13
REMARK    6  A    between atoms: C_13  and  C_14
REMARK    7  A    between atoms: C_19  and  C_20
REMARK                            x       y       z     vdW  Elec       q    Type
REMARK                         _______ _______ _______ _____ _____    ______ ____
ROOT
ATOM      1  C   UNL     1      45.966   6.907  11.661  0.00  0.00    +0.000 A 
ATOM      2  N   UNL     1      45.043   7.792  12.061  0.00  0.00    +0.000 NA
ATOM      3  C   UNL     1      45.499   9.007  12.316  0.00  0.00    +0.000 A 
ATOM      4  N   UNL     1      44.593   9.960  12.741  0.00  0.00    +0.000 N 
ATOM      5  N   UNL     1      46.751   9.403  12.169  0.00  0.00    +0.000 NA
ATOM      6  C   UNL     1      47.594   8.455  11.761  0.00  0.00    +0.000 A 
ATOM      7  N   UNL     1      47.251   7.202  11.473  0.00  0.00    +0.000 NA
ATOM      8  H   UNL     1      43.659   9.723  12.450  0.00  0.00    +0.000 HD
ATOM      9  H   UNL     1      44.932  10.891  12.536  0.00  0.00    +0.000 HD
ENDROOT
BRANCH   6  10
ATOM     10  C   UNL     1      49.020   8.801  11.649  0.00  0.00    +0.000 A 
ATOM     11  C   UNL     1      49.459  10.140  11.660  0.00  0.00    +0.000 A 
ATOM     12  C   UNL     1      50.818  10.457  11.578  0.00  0.00    +0.000 A 
ATOM     13  C   UNL     1      51.760   9.437  11.480  0.00  0.00    +0.000 A 
ATOM     14 CL   UNL     1      53.431   9.824  11.377  0.00  0.00    +0.000 Cl
ATOM     15  C   UNL     1      51.359   8.106  11.464  0.00  0.00    +0.000 A 
ATOM     16  C   UNL     1      50.000   7.794  11.548  0.00  0.00    +0.000 A 
ENDBRANCH   6  10
BRANCH   1  17
ATOM     17  C   UNL     1      45.523   5.499  11.341  0.00  0.00    +0.000 C 
BRANCH  17  18
ATOM     18  O   UNL     1      45.182   5.360   9.955  0.00  0.00    +0.000 OA
BRANCH  18  24
ATOM     19  C   UNL     1      44.376   3.000   9.800  0.00  0.00    +0.000 A 
ATOM     20  C   UNL     1      44.565   1.762   9.177  0.00  0.00    +0.000 A 
ATOM     21  C   UNL     1      45.527   1.603   8.181  0.00  0.00    +0.000 A 
ATOM     22  C   UNL     1      46.313   2.682   7.771  0.00  0.00    +0.000 A 
ATOM     23  C   UNL     1      46.140   3.923   8.400  0.00  0.00    +0.000 A 
ATOM     24  C   UNL     1      45.187   4.088   9.425  0.00  0.00    +0.000 A 
BRANCH  22  25
ATOM     25  C   UNL     1      47.290   2.431   6.674  0.00  0.00    +0.000 C 
ATOM     26  N   UNL     1      47.218   3.187   5.540  0.00  0.00    +0.000 N 
ATOM     27  O   UNL     1      48.146   1.555   6.770  0.00  0.00    +0.000 OA
ATOM     28  H   UNL     1      46.557   3.928   5.373  0.00  0.00    +0.000 HD
ATOM     29  H   UNL     1      47.901   2.990   4.820  0.00  0.00    +0.000 HD
ENDBRANCH  22  25
BRANCH  19  31
ATOM     30  C   UNL     1      43.451   2.537  11.950  0.00  0.00    +0.000 C 
ATOM     31  O   UNL     1      43.366   3.206  10.699  0.00  0.00    +0.000 OA
ENDBRANCH  19  31
ENDBRANCH  18  24
ENDBRANCH  17  18
ENDBRANCH   1  17
TORSDOF 6
ENDMDL
MODEL 5
REMARK VINA RESULT:    -7.655      4.747      6.533
REMARK INTER + INTRA:         -10.664
REMARK INTER:                  -9.984
REMARK INTRA:                  -0.680
REMARK UNBOUND:                -0.324
REMARK  Name = 
REMARK  7 active torsions:
REMARK  status: ('A' for Active; 'I' for Inactive)
REMARK    1  A    between atoms: C_1  and  O_2
REMARK    2  A    between atoms: O_2  and  C_3
REMARK    3  A    between atoms: C_6  and  C_7
REMARK    4  A    between atoms: C_11  and  O_12
REMARK    5  A    between atoms: O_12  and  C_13
REMARK    6  A    between atoms: C_13  and  C_14
REMARK    7  A    between atoms: C_19  and  C_20
REMARK                            x       y       z     vdW  Elec       q    Type
REMARK                         _______ _______ _______ _____ _____    ______ ____
ROOT
ATOM      1  C   UNL     1      47.853   4.243  16.740  0.00  0.00    +0.000 A 
ATOM      2  N   UNL     1      47.372   4.839  17.840  0.00  0.00    +0.000 NA
ATOM      3  C   UNL     1      48.164   4.794  18.898  0.00  0.00    +0.000 A 
ATOM      4  N   UNL     1      47.715   5.384  20.064  0.00  0.00    +0.000 N 
ATOM      5  N   UNL     1      49.369   4.256  18.931  0.00  0.00    +0.000 NA
ATOM      6  C   UNL     1      49.764   3.694  17.789  0.00  0.00    +0.000 A 
ATOM      7  N   UNL     1      49.057   3.679  16.663  0.00  0.00    +0.000 NA
ATOM      8  H   UNL     1      47.022   6.088  19.868  0.00  0.00    +0.000 HD
ATOM      9  H   UNL     1      48.494   5.639  20.658  0.00  0.00    +0.000 HD
ENDROOT
BRANCH   6  10
ATOM     10  C   UNL     1      51.066   3.007  17.773  0.00  0.00    +0.000 A 
ATOM     11  C   UNL     1      52.252   3.660  18.163  0.00  0.00    +0.000 A 
ATOM     12  C   UNL     1      53.479   2.990  18.166  0.00  0.00    +0.000 A 
ATOM     13  C   UNL     1      53.537   1.655  17.775  0.00  0.00    +0.000 A 
ATOM     14 CL   UNL     1      55.045   0.830  17.776  0.00  0.00    +0.000 Cl
ATOM     15  C   UNL     1      52.386   0.984  17.381  0.00  0.00    +0.000 A 
ATOM     16  C   UNL     1      51.161   1.657  17.382  0.00  0.00    +0.000 A 
ENDBRANCH   6  10
BRANCH   1  17
ATOM     17  C   UNL     1      47.012   4.259  15.485  0.00  0.00    +0.000 C 
BRANCH  17  18
ATOM     18  O   UNL     1      47.579   5.118  14.486  0.00  0.00    +0.000 OA
BRANCH  18  24
ATOM     19  C   UNL     1      46.856   6.517  12.546  0.00  0.00    +0.000 A 
ATOM     20  C   UNL     1      45.967   6.615  11.472  0.00  0.00    +0.000 A 
ATOM     21  C   UNL     1      45.067   5.588  11.193  0.00  0.00    +0.000 A 
ATOM     22  C   UNL     1      45.046   4.428  11.971  0.00  0.00    +0.000 A 
ATOM     23  C   UNL     1      45.925   4.328  13.059  0.00  0.00    +0.000 A 
ATOM     24  C   UNL     1      46.822   5.371  13.364  0.00  0.00    +0.000 A 
BRANCH  22  25
ATOM     25  C   UNL     1      44.078   3.366  11.579  0.00  0.00    +0.000 C 
ATOM     26  N   UNL     1      43.836   2.340  12.446  0.00  0.00    +0.000 N 
ATOM     27  O   UNL     1      43.504   3.395  10.492  0.00  0.00    +0.000 OA
ATOM     28  H   UNL     1      44.253   2.234  13.356  0.00  0.00    +0.000 HD
ATOM     29  H   UNL     1      43.170   1.640  12.145  0.00  0.00    +0.000 HD
ENDBRANCH  22  25
BRANCH  19  31
ATOM     30  C   UNL     1      49.067   7.300  12.110  0.00  0.00    +0.000 C 
ATOM     31  O   UNL     1      47.820   7.461  12.771  0.00  0.00    +0.000 OA
ENDBRANCH  19  31
ENDBRANCH  18  24
ENDBRANCH  17  18
ENDBRANCH   1  17
TORSDOF 6
ENDMDL
MODEL 6
REMARK VINA RESULT:    -7.236      3.551      5.486
REMARK INTER + INTRA:         -10.098
REMARK INTER:                  -9.181
REMARK INTRA:                  -0.917
REMARK UNBOUND:                -0.324
REMARK  Name = 
REMARK  7 active torsions:
REMARK  status: ('A' for Active; 'I' for Inactive)
REMARK    1  A    between atoms: C_1  and  O_2
REMARK    2  A    between atoms: O_2  and  C_3
REMARK    3  A    between atoms: C_6  and  C_7
REMARK    4  A    between atoms: C_11  and  O_12
REMARK    5  A    between atoms: O_12  and  C_13
REMARK    6  A    between atoms: C_13  and  C_14
REMARK    7  A    between atoms: C_19  and  C_20
REMARK                            x       y       z     vdW  Elec       q    Type
REMARK                         _______ _______ _______ _____ _____    ______ ____
ROOT
ATOM      1  C   UNL     1      47.931   4.283  16.812  0.00  0.00    +0.000 A 
ATOM      2  N   UNL     1      47.682   3.894  18.070  0.00  0.00    +0.000 NA
ATOM      3  C   UNL     1      48.663   4.104  18.931  0.00  0.00    +0.000 A 
ATOM      4  N   UNL     1      48.466   3.714  20.241  0.00  0.00    +0.000 N 
ATOM      5  N   UNL     1      49.815   4.688  18.652  0.00  0.00    +0.000 NA
ATOM      6  C   UNL     1      49.968   5.046  17.378  0.00  0.00    +0.000 A 
ATOM      7  N   UNL     1      49.052   4.887  16.426  0.00  0.00    +0.000 NA
ATOM      8  H   UNL     1      47.484   3.663  20.458  0.00  0.00    +0.000 HD
ATOM      9  H   UNL     1      49.062   4.243  20.865  0.00  0.00    +0.000 HD
ENDROOT
BRANCH   6  10
ATOM     10  C   UNL     1      51.257   5.633  16.977  0.00  0.00    +0.000 A 
ATOM     11  C   UNL     1      52.484   5.083  17.400  0.00  0.00    +0.000 A 
ATOM     12  C   UNL     1      53.702   5.633  16.992  0.00  0.00    +0.000 A 
ATOM     13  C   UNL     1      53.711   6.747  16.157  0.00  0.00    +0.000 A 
ATOM     14 CL   UNL     1      55.208   7.428  15.657  0.00  0.00    +0.000 Cl
ATOM     15  C   UNL     1      52.518   7.315  15.726  0.00  0.00    +0.000 A 
ATOM     16  C   UNL     1      51.303   6.760  16.133  0.00  0.00    +0.000 A 
ENDBRANCH   6  10
BRANCH   1  17
ATOM     17  C   UNL     1      46.854   4.085  15.770  0.00  0.00    +0.000 C 
BRANCH  17  18
ATOM     18  O   UNL     1      47.419   3.867  14.470  0.00  0.00    +0.000 OA
BRANCH  18  24
ATOM     19  C   UNL     1      47.510   5.867  12.974  0.00  0.00    +0.000 A 
ATOM     20  C   UNL     1      46.868   6.556  11.942  0.00  0.00    +0.000 A 
ATOM     21  C   UNL     1      45.707   6.051  11.359  0.00  0.00    +0.000 A 
ATOM     22  C   UNL     1      45.168   4.834  11.783  0.00  0.00    +0.000 A 
ATOM     23  C   UNL     1      45.799   4.142  12.827  0.00  0.00    +0.000 A 
ATOM     24  C   UNL     1      46.960   4.657  13.439  0.00  0.00    +0.000 A 
BRANCH  22  25
ATOM     25  C   UNL     1      43.948   4.351  11.079  0.00  0.00    +0.000 C 
ATOM     26  N   UNL     1      43.741   4.725   9.782  0.00  0.00    +0.000 N 
ATOM     27  O   UNL     1      43.126   3.633  11.644  0.00  0.00    +0.000 OA
ATOM     28  H   UNL     1      44.359   5.304   9.236  0.00  0.00    +0.000 HD
ATOM     29  H   UNL     1      42.903   4.374   9.337  0.00  0.00    +0.000 HD
ENDBRANCH  22  25
BRANCH  19  31
ATOM     30  C   UNL     1      49.386   7.331  12.798  0.00  0.00    +0.000 C 
ATOM     31  O   UNL     1      48.708   6.287  13.484  0.00  0.00    +0.000 OA
ENDBRANCH  19  31
ENDBRANCH  18  24
ENDBRANCH  17  18
ENDBRANCH   1  17
TORSDOF 6
ENDMDL
MODEL 7
REMARK VINA RESULT:    -7.015      4.210      6.034
REMARK INTER + INTRA:          -9.800
REMARK INTER:                  -9.047
REMARK INTRA:                  -0.753
REMARK UNBOUND:                -0.324
REMARK  Name = 
REMARK  7 active torsions:
REMARK  status: ('A' for Active; 'I' for Inactive)
REMARK    1  A    between atoms: C_1  and  O_2
REMARK    2  A    between atoms: O_2  and  C_3
REMARK    3  A    between atoms: C_6  and  C_7
REMARK    4  A    between atoms: C_11  and  O_12
REMARK    5  A    between atoms: O_12  and  C_13
REMARK    6  A    between atoms: C_13  and  C_14
REMARK    7  A    between atoms: C_19  and  C_20
REMARK                            x       y       z     vdW  Elec       q    Type
REMARK                         _______ _______ _______ _____ _____    ______ ____
ROOT
ATOM      1  C   UNL     1      48.658   3.575  16.633  0.00  0.00    +0.000 A 
ATOM      2  N   UNL     1      49.233   2.369  16.736  0.00  0.00    +0.000 NA
ATOM      3  C   UNL     1      50.382   2.345  17.390  0.00  0.00    +0.000 A 
ATOM      4  N   UNL     1      51.025   1.129  17.519  0.00  0.00    +0.000 N 
ATOM      5  N   UNL     1      50.961   3.386  17.961  0.00  0.00    +0.000 NA
ATOM      6  C   UNL     1      50.312   4.540  17.811  0.00  0.00    +0.000 A 
ATOM      7  N   UNL     1      49.151   4.685  17.178  0.00  0.00    +0.000 NA
ATOM      8  H   UNL     1      50.374   0.366  17.431  0.00  0.00    +0.000 HD
ATOM      9  H   UNL     1      51.643   1.135  18.321  0.00  0.00    +0.000 HD
ENDROOT
BRANCH   6  10
ATOM     10  C   UNL     1      50.935   5.758  18.355  0.00  0.00    +0.000 A 
ATOM     11  C   UNL     1      52.335   5.916  18.397  0.00  0.00    +0.000 A 
ATOM     12  C   UNL     1      52.916   7.087  18.893  0.00  0.00    +0.000 A 
ATOM     13  C   UNL     1      52.103   8.117  19.360  0.00  0.00    +0.000 A 
ATOM     14 CL   UNL     1      52.814   9.556  19.973  0.00  0.00    +0.000 Cl
ATOM     15  C   UNL     1      50.719   7.989  19.335  0.00  0.00    +0.000 A 
ATOM     16  C   UNL     1      50.143   6.818  18.836  0.00  0.00    +0.000 A 
ENDBRANCH   6  10
BRANCH   1  17
ATOM     17  C   UNL     1      47.337   3.684  15.908  0.00  0.00    +0.000 C 
BRANCH  17  18
ATOM     18  O   UNL     1      47.441   3.215  14.557  0.00  0.00    +0.000 OA
BRANCH  18  24
ATOM     19  C   UNL     1      47.242   5.285  13.173  0.00  0.00    +0.000 A 
ATOM     20  C   UNL     1      46.502   5.934  12.180  0.00  0.00    +0.000 A 
ATOM     21  C   UNL     1      45.416   5.305  11.573  0.00  0.00    +0.000 A 
ATOM     22  C   UNL     1      45.055   4.004  11.930  0.00  0.00    +0.000 A 
ATOM     23  C   UNL     1      45.784   3.351  12.934  0.00  0.00    +0.000 A 
ATOM     24  C   UNL     1      46.868   3.988  13.572  0.00  0.00    +0.000 A 
BRANCH  22  25
ATOM     25  C   UNL     1      43.906   3.396  11.203  0.00  0.00    +0.000 C 
ATOM     26  N   UNL     1      43.390   2.215  11.653  0.00  0.00    +0.000 N 
ATOM     27  O   UNL     1      43.423   3.932  10.208  0.00  0.00    +0.000 OA
ATOM     28  H   UNL     1      43.713   1.705  12.460  0.00  0.00    +0.000 HD
ATOM     29  H   UNL     1      42.608   1.835  11.135  0.00  0.00    +0.000 HD
ENDBRANCH  22  25
BRANCH  19  31
ATOM     30  C   UNL     1      48.262   7.120  14.307  0.00  0.00    +0.000 C 
ATOM     31  O   UNL     1      48.375   5.839  13.703  0.00  0.00    +0.000 OA
ENDBRANCH  19  31
ENDBRANCH  18  24
ENDBRANCH  17  18
ENDBRANCH   1  17
TORSDOF 6
ENDMDL
MODEL 8
REMARK VINA RESULT:    -6.990      5.011      8.256
REMARK INTER + INTRA:          -9.765
REMARK INTER:                  -8.901
REMARK INTRA:                  -0.865
REMARK UNBOUND:                -0.324
REMARK  Name = 
REMARK  7 active torsions:
REMARK  status: ('A' for Active; 'I' for Inactive)
REMARK    1  A    between atoms: C_1  and  O_2
REMARK    2  A    between atoms: O_2  and  C_3
REMARK    3  A    between atoms: C_6  and  C_7
REMARK    4  A    between atoms: C_11  and  O_12
REMARK    5  A    between atoms: O_12  and  C_13
REMARK    6  A    between atoms: C_13  and  C_14
REMARK    7  A    between atoms: C_19  and  C_20
REMARK                            x       y       z     vdW  Elec       q    Type
REMARK                         _______ _______ _______ _____ _____    ______ ____
ROOT
ATOM      1  C   UNL     1      48.561   7.348  14.537  0.00  0.00    +0.000 A 
ATOM      2  N   UNL     1      48.404   8.659  14.311  0.00  0.00    +0.000 NA
ATOM      3  C   UNL     1      47.519   8.969  13.378  0.00  0.00    +0.000 A 
ATOM      4  N   UNL     1      47.322  10.307  13.095  0.00  0.00    +0.000 N 
ATOM      5  N   UNL     1      46.778   8.106  12.708  0.00  0.00    +0.000 NA
ATOM      6  C   UNL     1      47.000   6.826  13.006  0.00  0.00    +0.000 A 
ATOM      7  N   UNL     1      47.860   6.396  13.925  0.00  0.00    +0.000 NA
ATOM      8  H   UNL     1      47.592  10.884  13.875  0.00  0.00    +0.000 HD
ATOM      9  H   UNL     1      46.406  10.456  12.690  0.00  0.00    +0.000 HD
ENDROOT
BRANCH   6  10
ATOM     10  C   UNL     1      46.266   5.803  12.244  0.00  0.00    +0.000 A 
ATOM     11  C   UNL     1      45.901   6.003  10.898  0.00  0.00    +0.000 A 
ATOM     12  C   UNL     1      45.226   5.014  10.177  0.00  0.00    +0.000 A 
ATOM     13  C   UNL     1      44.901   3.810  10.795  0.00  0.00    +0.000 A 
ATOM     14 CL   UNL     1      44.068   2.593   9.911  0.00  0.00    +0.000 Cl
ATOM     15  C   UNL     1      45.243   3.583  12.122  0.00  0.00    +0.000 A 
ATOM     16  C   UNL     1      45.921   4.573  12.839  0.00  0.00    +0.000 A 
ENDBRANCH   6  10
BRANCH   1  17
ATOM     17  C   UNL     1      49.547   6.913  15.596  0.00  0.00    +0.000 C 
BRANCH  17  18
ATOM     18  O   UNL     1      48.994   7.042  16.912  0.00  0.00    +0.000 OA
BRANCH  18  24
ATOM     19  C   UNL     1      48.220   5.754  18.908  0.00  0.00    +0.000 A 
ATOM     20  C   UNL     1      48.205   4.501  19.529  0.00  0.00    +0.000 A 
ATOM     21  C   UNL     1      48.775   3.391  18.910  0.00  0.00    +0.000 A 
ATOM     22  C   UNL     1      49.359   3.500  17.646  0.00  0.00    +0.000 A 
ATOM     23  C   UNL     1      49.390   4.756  17.022  0.00  0.00    +0.000 A 
ATOM     24  C   UNL     1      48.838   5.890  17.651  0.00  0.00    +0.000 A 
BRANCH  22  25
ATOM     25  C   UNL     1      49.909   2.254  17.043  0.00  0.00    +0.000 C 
ATOM     26  N   UNL     1      50.954   1.628  17.659  0.00  0.00    +0.000 N 
ATOM     27  O   UNL     1      49.447   1.789  16.003  0.00  0.00    +0.000 OA
ATOM     28  H   UNL     1      51.394   1.929  18.513  0.00  0.00    +0.000 HD
ATOM     29  H   UNL     1      51.298   0.782  17.222  0.00  0.00    +0.000 HD
ENDBRANCH  22  25
BRANCH  19  31
ATOM     30  C   UNL     1      48.158   7.453  20.583  0.00  0.00    +0.000 C 
ATOM     31  O   UNL     1      47.572   6.831  19.447  0.00  0.00    +0.000 OA
ENDBRANCH  19  31
ENDBRANCH  18  24
ENDBRANCH  17  18
ENDBRANCH   1  17
TORSDOF 6
ENDMDL
MODEL 9
REMARK VINA RESULT:    -6.859      5.285      8.635
REMARK INTER + INTRA:          -9.589
REMARK INTER:                  -8.712
REMARK INTRA:                  -0.877
REMARK UNBOUND:                -0.324
REMARK  Name = 
REMARK  7 active torsions:
REMARK  status: ('A' for Active; 'I' for Inactive)
REMARK    1  A    between atoms: C_1  and  O_2
REMARK    2  A    between atoms: O_2  and  C_3
REMARK    3  A    between atoms: C_6  and  C_7
REMARK    4  A    between atoms: C_11  and  O_12
REMARK    5  A    between atoms: O_12  and  C_13
REMARK    6  A    between atoms: C_13  and  C_14
REMARK    7  A    between atoms: C_19  and  C_20
REMARK                            x       y       z     vdW  Elec       q    Type
REMARK                         _______ _______ _______ _____ _____    ______ ____
ROOT
ATOM      1  C   UNL     1      48.992   7.194  15.278  0.00  0.00    +0.000 A 
ATOM      2  N   UNL     1      49.984   7.636  14.494  0.00  0.00    +0.000 NA
ATOM      3  C   UNL     1      49.884   7.307  13.217  0.00  0.00    +0.000 A 
ATOM      4  N   UNL     1      50.884   7.728  12.362  0.00  0.00    +0.000 N 
ATOM      5  N   UNL     1      48.886   6.631  12.676  0.00  0.00    +0.000 NA
ATOM      6  C   UNL     1      47.944   6.240  13.533  0.00  0.00    +0.000 A 
ATOM      7  N   UNL     1      47.937   6.513  14.835  0.00  0.00    +0.000 NA
ATOM      8  H   UNL     1      51.361   8.534  12.734  0.00  0.00    +0.000 HD
ATOM      9  H   UNL     1      50.543   7.777  11.410  0.00  0.00    +0.000 HD
ENDROOT
BRANCH   6  10
ATOM     10  C   UNL     1      46.840   5.416  13.015  0.00  0.00    +0.000 A 
ATOM     11  C   UNL     1      45.856   5.950  12.160  0.00  0.00    +0.000 A 
ATOM     12  C   UNL     1      44.825   5.153  11.654  0.00  0.00    +0.000 A 
ATOM     13  C   UNL     1      44.762   3.806  12.001  0.00  0.00    +0.000 A 
ATOM     14 CL   UNL     1      43.495   2.823  11.383  0.00  0.00    +0.000 Cl
ATOM     15  C   UNL     1      45.715   3.250  12.846  0.00  0.00    +0.000 A 
ATOM     16  C   UNL     1      46.745   4.050  13.347  0.00  0.00    +0.000 A 
ENDBRANCH   6  10
BRANCH   1  17
ATOM     17  C   UNL     1      49.029   7.536  16.749  0.00  0.00    +0.000 C 
BRANCH  17  18
ATOM     18  O   UNL     1      48.725   6.393  17.560  0.00  0.00    +0.000 OA
BRANCH  18  24
ATOM     19  C   UNL     1      50.896   5.859  18.675  0.00  0.00    +0.000 A 
ATOM     20  C   UNL     1      51.881   4.884  18.859  0.00  0.00    +0.000 A 
ATOM     21  C   UNL     1      51.746   3.617  18.294  0.00  0.00    +0.000 A 
ATOM     22  C   UNL     1      50.615   3.287  17.545  0.00  0.00    +0.000 A 
ATOM     23  C   UNL     1      49.629   4.264  17.345  0.00  0.00    +0.000 A 
ATOM     24  C   UNL     1      49.767   5.556  17.891  0.00  0.00    +0.000 A 
BRANCH  22  25
ATOM     25  C   UNL     1      50.536   1.899  17.011  0.00  0.00    +0.000 C 
ATOM     26  N   UNL     1      51.252   0.913  17.627  0.00  0.00    +0.000 N 
ATOM     27  O   UNL     1      49.850   1.631  16.028  0.00  0.00    +0.000 OA
ATOM     28  H   UNL     1      51.836   1.035  18.439  0.00  0.00    +0.000 HD
ATOM     29  H   UNL     1      51.170  -0.018  17.238  0.00  0.00    +0.000 HD
ENDBRANCH  22  25
BRANCH  19  31
ATOM     30  C   UNL     1      50.623   7.106  20.691  0.00  0.00    +0.000 C 
ATOM     31  O   UNL     1      50.955   7.069  19.310  0.00  0.00    +0.000 OA
ENDBRANCH  19  31
ENDBRANCH  18  24
ENDBRANCH  17  18
ENDBRANCH   1  17
TORSDOF 6
ENDMDL
