MODEL 1
REMARK VINA RESULT:    -7.711      0.000      0.000
REMARK INTER + INTRA:          -9.873
REMARK INTER:                  -9.739
REMARK INTRA:                  -0.134
REMARK UNBOUND:                -0.134
REMARK  Name = 
REMARK  5 active torsions:
REMARK  status: ('A' for Active; 'I' for Inactive)
REMARK    1  A    between atoms: N_1  and  C_2
REMARK    2  A    between atoms: C_2  and  C_3
REMARK    3  A    between atoms: C_3  and  C_4
REMARK    4  A    between atoms: N_10  and  C_11
REMARK    5  A    between atoms: C_11  and  C_12
REMARK                            x       y       z     vdW  Elec       q    Type
REMARK                         _______ _______ _______ _____ _____    ______ ____
ROOT
ATOM      1  C   UNL     1      46.612   6.156  12.356  0.00  0.00    +0.000 A 
ATOM      2  C   UNL     1      46.349   5.428  13.511  0.00  0.00    +0.000 A 
ATOM      3  N   UNL     1      45.495   4.383  13.601  0.00  0.00    +0.000 NA
ATOM      4  C   UNL     1      44.900   4.020  12.439  0.00  0.00    +0.000 A 
ATOM      5  C   UNL     1      43.994   2.962  12.207  0.00  0.00    +0.000 A 
ATOM      6  C   UNL     1      43.703   2.955  10.870  0.00  0.00    +0.000 A 
ATOM      7  N   UNL     1      44.380   3.980  10.252  0.00  0.00    +0.000 N 
ATOM      8  C   UNL     1      45.105   4.682  11.221  0.00  0.00    +0.000 A 
ATOM      9  C   UNL     1      45.926   5.808  11.180  0.00  0.00    +0.000 A 
ENDROOT
BRANCH   1  10
ATOM     10  C   UNL     1      47.626   7.273  12.321  0.00  0.00    +0.000 C 
BRANCH  10  11
ATOM     11  C   UNL     1      47.002   8.645  12.587  0.00  0.00    +0.000 C 
BRANCH  11  12
ATOM     12  N   UNL     1      46.837   8.876  14.021  0.00  0.00    +0.000 NA
ATOM     13  H   UNL     1      46.247   9.696  14.161  0.00  0.00    +0.000 HD
ATOM     14  H   UNL     1      47.738   9.100  14.443  0.00  0.00    +0.000 HD
ENDBRANCH  11  12
ENDBRANCH  10  11
ENDBRANCH   1  10
BRANCH   7  15
ATOM     15  C   UNL     1      44.431   4.134   8.791  0.00  0.00    +0.000 C 
BRANCH  15  16
ATOM     16  C   UNL     1      45.398   3.180   8.144  0.00  0.00    +0.000 A 
ATOM     17  C   UNL     1      46.356   3.615   7.225  0.00  0.00    +0.000 A 
ATOM     18  C   UNL     1      47.379   2.750   6.832  0.00  0.00    +0.000 A 
ATOM     19  C   UNL     1      47.375   1.463   7.343  0.00  0.00    +0.000 A 
ATOM     20  N   UNL     1      46.402   0.974   8.141  0.00  0.00    +0.000 NA
ATOM     21  C   UNL     1      45.442   1.846   8.529  0.00  0.00    +0.000 A 
ENDBRANCH  15  16
ENDBRANCH   7  15
TORSDOF 5
ENDMDL
MODEL 2
REMARK VINA RESULT:    -7.224      1.355      6.022
REMARK INTER + INTRA:          -9.258
REMARK INTER:                  -8.761
REMARK INTRA:                  -0.498
REMARK UNBOUND:                -0.134
REMARK  Name = 
REMARK  5 active torsions:
REMARK  status: ('A' for Active; 'I' for Inactive)
REMARK    1  A    between atoms: N_1  and  C_2
REMARK    2  A    between atoms: C_2  and  C_3
REMARK    3  A    between atoms: C_3  and  C_4
REMARK    4  A    between atoms: N_10  and  C_11
REMARK    5  A    between atoms: C_11  and  C_12
REMARK                            x       y       z     vdW  Elec       q    Type
REMARK                         _______ _______ _______ _____ _____    ______ ____
ROOT
ATOM      1  C   UNL     1      45.706   3.466   8.161  0.00  0.00    +0.000 A 
ATOM      2  C   UNL     1      45.050   2.278   8.465  0.00  0.00    +0.000 A 
ATOM      3  N   UNL     1      44.291   2.061   9.563  0.00  0.00    +0.000 NA
ATOM      4  C   UNL     1      44.145   3.128  10.387  0.00  0.00    +0.000 A 
ATOM      5  C   UNL     1      43.397   3.223  11.581  0.00  0.00    +0.000 A 
ATOM      6  C   UNL     1      43.511   4.508  12.037  0.00  0.00    +0.000 A 
ATOM      7  N   UNL     1      44.318   5.224  11.183  0.00  0.00    +0.000 N 
ATOM      8  C   UNL     1      44.756   4.369  10.165  0.00  0.00    +0.000 A 
ATOM      9  C   UNL     1      45.601   4.533   9.068  0.00  0.00    +0.000 A 
ENDROOT
BRANCH   1  10
ATOM     10  C   UNL     1      46.487   3.651   6.884  0.00  0.00    +0.000 C 
BRANCH  10  11
ATOM     11  C   UNL     1      47.176   2.365   6.423  0.00  0.00    +0.000 C 
BRANCH  11  12
ATOM     12  N   UNL     1      48.622   2.555   6.315  0.00  0.00    +0.000 NA
ATOM     13  H   UNL     1      48.936   2.218   5.405  0.00  0.00    +0.000 HD
ATOM     14  H   UNL     1      49.101   1.982   7.010  0.00  0.00    +0.000 HD
ENDBRANCH  11  12
ENDBRANCH  10  11
ENDBRANCH   1  10
BRANCH   7  15
ATOM     15  C   UNL     1      44.492   6.679  11.286  0.00  0.00    +0.000 C 
BRANCH  15  16
ATOM     16  C   UNL     1      45.659   7.060  12.157  0.00  0.00    +0.000 A 
ATOM     17  C   UNL     1      46.838   6.311  12.176  0.00  0.00    +0.000 A 
ATOM     18  C   UNL     1      47.972   6.825  12.808  0.00  0.00    +0.000 A 
ATOM     19  C   UNL     1      47.865   8.052  13.438  0.00  0.00    +0.000 A 
ATOM     20  N   UNL     1      46.713   8.749  13.538  0.00  0.00    +0.000 NA
ATOM     21  C   UNL     1      45.639   8.240  12.889  0.00  0.00    +0.000 A 
ENDBRANCH  15  16
ENDBRANCH   7  15
TORSDOF 5
ENDMDL
MODEL 3
REMARK VINA RESULT:    -6.854      2.133      2.655
REMARK INTER + INTRA:          -8.791
REMARK INTER:                  -8.207
REMARK INTRA:                  -0.584
REMARK UNBOUND:                -0.134
REMARK  Name = 
REMARK  5 active torsions:
REMARK  status: ('A' for Active; 'I' for Inactive)
REMARK    1  A    between atoms: N_1  and  C_2
REMARK    2  A    between atoms: C_2  and  C_3
REMARK    3  A    between atoms: C_3  and  C_4
REMARK    4  A    between atoms: N_10  and  C_11
REMARK    5  A    between atoms: C_11  and  C_12
REMARK                            x       y       z     vdW  Elec       q    Type
REMARK                         _______ _______ _______ _____ _____    ______ ____
ROOT
ATOM      1  C   UNL     1      44.924   8.296  11.760  0.00  0.00    +0.000 A 
ATOM      2  C   UNL     1      45.925   8.235  12.724  0.00  0.00    +0.000 A 
ATOM      3  N   UNL     1      46.401   7.102  13.288  0.00  0.00    +0.000 NA
ATOM      4  C   UNL     1      45.864   5.950  12.816  0.00  0.00    +0.000 A 
ATOM      5  C   UNL     1      46.172   4.621  13.179  0.00  0.00    +0.000 A 
ATOM      6  C   UNL     1      45.409   3.794  12.401  0.00  0.00    +0.000 A 
ATOM      7  N   UNL     1      44.618   4.553  11.571  0.00  0.00    +0.000 N 
ATOM      8  C   UNL     1      44.859   5.905  11.841  0.00  0.00    +0.000 A 
ATOM      9  C   UNL     1      44.331   7.094  11.342  0.00  0.00    +0.000 A 
ENDROOT
BRANCH   1  10
ATOM     10  C   UNL     1      44.489   9.598  11.133  0.00  0.00    +0.000 C 
BRANCH  10  11
ATOM     11  C   UNL     1      43.039   9.561  10.646  0.00  0.00    +0.000 C 
BRANCH  11  12
ATOM     12  N   UNL     1      42.176  10.372  11.504  0.00  0.00    +0.000 NA
ATOM     13  H   UNL     1      41.576   9.757  12.052  0.00  0.00    +0.000 HD
ATOM     14  H   UNL     1      41.552  10.940  10.932  0.00  0.00    +0.000 HD
ENDBRANCH  11  12
ENDBRANCH  10  11
ENDBRANCH   1  10
BRANCH   7  15
ATOM     15  C   UNL     1      43.819   3.972  10.483  0.00  0.00    +0.000 C 
BRANCH  15  16
ATOM     16  C   UNL     1      44.671   3.430   9.367  0.00  0.00    +0.000 A 
ATOM     17  C   UNL     1      45.343   4.273   8.479  0.00  0.00    +0.000 A 
ATOM     18  C   UNL     1      46.303   3.743   7.616  0.00  0.00    +0.000 A 
ATOM     19  C   UNL     1      46.519   2.376   7.645  0.00  0.00    +0.000 A 
ATOM     20  N   UNL     1      45.808   1.518   8.406  0.00  0.00    +0.000 NA
ATOM     21  C   UNL     1      44.906   2.066   9.255  0.00  0.00    +0.000 A 
ENDBRANCH  15  16
ENDBRANCH   7  15
TORSDOF 5
ENDMDL
MODEL 4
REMARK VINA RESULT:    -6.549      2.083      4.065
REMARK INTER + INTRA:          -8.406
REMARK INTER:                  -7.831
REMARK INTRA:                  -0.575
REMARK UNBOUND:                -0.134
REMARK  Name = 
REMARK  5 active torsions:
REMARK  status: ('A' for Active; 'I' for Inactive)
REMARK    1  A    between atoms: N_1  and  C_2
REMARK    2  A    between atoms: C_2  and  C_3
REMARK    3  A    between atoms: C_3  and  C_4
REMARK    4  A    between atoms: N_10  and  C_11
REMARK    5  A    between atoms: C_11  and  C_12
REMARK                            x       y       z     vdW  Elec       q    Type
REMARK                         _______ _______ _______ _____ _____    ______ ____
ROOT
ATOM      1  C   UNL     1      47.003   5.056  14.380  0.00  0.00    +0.000 A 
ATOM      2  C   UNL     1      47.774   6.209  14.482  0.00  0.00    +0.000 A 
ATOM      3  N   UNL     1      47.574   7.350  13.785  0.00  0.00    +0.000 NA
ATOM      4  C   UNL     1      46.495   7.345  12.963  0.00  0.00    +0.000 A 
ATOM      5  C   UNL     1      46.011   8.384  12.138  0.00  0.00    +0.000 A 
ATOM      6  C   UNL     1      44.871   7.932  11.532  0.00  0.00    +0.000 A 
ATOM      7  N   UNL     1      44.627   6.638  11.932  0.00  0.00    +0.000 N 
ATOM      8  C   UNL     1      45.651   6.239  12.797  0.00  0.00    +0.000 A 
ATOM      9  C   UNL     1      45.936   5.050  13.466  0.00  0.00    +0.000 A 
ENDROOT
BRANCH   1  10
ATOM     10  C   UNL     1      47.254   3.841  15.237  0.00  0.00    +0.000 C 
BRANCH  10  11
ATOM     11  C   UNL     1      47.241   4.162  16.734  0.00  0.00    +0.000 C 
BRANCH  11  12
ATOM     12  N   UNL     1      46.633   3.073  17.498  0.00  0.00    +0.000 NA
ATOM     13  H   UNL     1      46.343   3.426  18.409  0.00  0.00    +0.000 HD
ATOM     14  H   UNL     1      47.327   2.349  17.682  0.00  0.00    +0.000 HD
ENDBRANCH  11  12
ENDBRANCH  10  11
ENDBRANCH   1  10
BRANCH   7  15
ATOM     15  C   UNL     1      43.382   5.928  11.608  0.00  0.00    +0.000 C 
BRANCH  15  16
ATOM     16  C   UNL     1      43.622   4.685  10.794  0.00  0.00    +0.000 A 
ATOM     17  C   UNL     1      44.225   4.736   9.535  0.00  0.00    +0.000 A 
ATOM     18  C   UNL     1      44.643   3.555   8.921  0.00  0.00    +0.000 A 
ATOM     19  C   UNL     1      44.397   2.360   9.575  0.00  0.00    +0.000 A 
ATOM     20  N   UNL     1      43.714   2.264  10.735  0.00  0.00    +0.000 NA
ATOM     21  C   UNL     1      43.349   3.429  11.321  0.00  0.00    +0.000 A 
ENDBRANCH  15  16
ENDBRANCH   7  15
TORSDOF 5
ENDMDL
MODEL 5
REMARK VINA RESULT:    -6.512      2.427      4.386
REMARK INTER + INTRA:          -8.359
REMARK INTER:                  -8.125
REMARK INTRA:                  -0.234
REMARK UNBOUND:                -0.134
REMARK  Name = 
REMARK  5 active torsions:
REMARK  status: ('A' for Active; 'I' for Inactive)
REMARK    1  A    between atoms: N_1  and  C_2
REMARK    2  A    between atoms: C_2  and  C_3
REMARK    3  A    between atoms: C_3  and  C_4
REMARK    4  A    between atoms: N_10  and  C_11
REMARK    5  A    between atoms: C_11  and  C_12
REMARK                            x       y       z     vdW  Elec       q    Type
REMARK                         _______ _______ _______ _____ _____    ______ ____
ROOT
ATOM      1  C   UNL     1      47.486   4.445  15.504  0.00  0.00    +0.000 A 
ATOM      2  C   UNL     1      48.349   5.525  15.653  0.00  0.00    +0.000 A 
ATOM      3  N   UNL     1      48.475   6.554  14.784  0.00  0.00    +0.000 NA
ATOM      4  C   UNL     1      47.643   6.513  13.715  0.00  0.00    +0.000 A 
ATOM      5  C   UNL     1      47.516   7.446  12.662  0.00  0.00    +0.000 A 
ATOM      6  C   UNL     1      46.514   7.005  11.840  0.00  0.00    +0.000 A 
ATOM      7  N   UNL     1      46.015   5.819  12.327  0.00  0.00    +0.000 N 
ATOM      8  C   UNL     1      46.733   5.475  13.478  0.00  0.00    +0.000 A 
ATOM      9  C   UNL     1      46.688   4.387  14.349  0.00  0.00    +0.000 A 
ENDROOT
BRANCH   1  10
ATOM     10  C   UNL     1      47.359   3.365  16.549  0.00  0.00    +0.000 C 
BRANCH  10  11
ATOM     11  C   UNL     1      48.717   2.855  17.038  0.00  0.00    +0.000 C 
BRANCH  11  12
ATOM     12  N   UNL     1      49.276   1.877  16.105  0.00  0.00    +0.000 NA
ATOM     13  H   UNL     1      50.266   2.078  15.965  0.00  0.00    +0.000 HD
ATOM     14  H   UNL     1      48.835   1.977  15.191  0.00  0.00    +0.000 HD
ENDBRANCH  11  12
ENDBRANCH  10  11
ENDBRANCH   1  10
BRANCH   7  15
ATOM     15  C   UNL     1      44.810   5.180  11.782  0.00  0.00    +0.000 C 
BRANCH  15  16
ATOM     16  C   UNL     1      45.081   4.430  10.506  0.00  0.00    +0.000 A 
ATOM     17  C   UNL     1      44.751   3.080  10.362  0.00  0.00    +0.000 A 
ATOM     18  C   UNL     1      44.798   2.489   9.099  0.00  0.00    +0.000 A 
ATOM     19  C   UNL     1      45.220   3.265   8.033  0.00  0.00    +0.000 A 
ATOM     20  N   UNL     1      45.656   4.536   8.155  0.00  0.00    +0.000 NA
ATOM     21  C   UNL     1      45.569   5.091   9.387  0.00  0.00    +0.000 A 
ENDBRANCH  15  16
ENDBRANCH   7  15
TORSDOF 5
ENDMDL
MODEL 6
REMARK VINA RESULT:    -5.861      2.299      6.372
REMARK INTER + INTRA:          -7.536
REMARK INTER:                  -7.161
REMARK INTRA:                  -0.375
REMARK UNBOUND:                -0.134
REMARK  Name = 
REMARK  5 active torsions:
REMARK  status: ('A' for Active; 'I' for Inactive)
REMARK    1  A    between atoms: N_1  and  C_2
REMARK    2  A    between atoms: C_2  and  C_3
REMARK    3  A    between atoms: C_3  and  C_4
REMARK    4  A    between atoms: N_10  and  C_11
REMARK    5  A    between atoms: C_11  and  C_12
REMARK                            x       y       z     vdW  Elec       q    Type
REMARK                         _______ _______ _______ _____ _____    ______ ____
ROOT
ATOM      1  C   UNL     1      45.132   4.014   9.017  0.00  0.00    +0.000 A 
ATOM      2  C   UNL     1      44.145   3.168   9.508  0.00  0.00    +0.000 A 
ATOM      3  N   UNL     1      43.608   3.227  10.748  0.00  0.00    +0.000 NA
ATOM      4  C   UNL     1      44.065   4.236  11.530  0.00  0.00    +0.000 A 
ATOM      5  C   UNL     1      43.680   4.575  12.845  0.00  0.00    +0.000 A 
ATOM      6  C   UNL     1      44.378   5.696  13.203  0.00  0.00    +0.000 A 
ATOM      7  N   UNL     1      45.203   6.068  12.167  0.00  0.00    +0.000 N 
ATOM      8  C   UNL     1      45.050   5.146  11.125  0.00  0.00    +0.000 A 
ATOM      9  C   UNL     1      45.644   5.005   9.871  0.00  0.00    +0.000 A 
ENDROOT
BRANCH   1  10
ATOM     10  C   UNL     1      45.639   3.923   7.599  0.00  0.00    +0.000 C 
BRANCH  10  11
ATOM     11  C   UNL     1      46.793   2.929   7.448  0.00  0.00    +0.000 C 
BRANCH  11  12
ATOM     12  N   UNL     1      47.455   3.088   6.154  0.00  0.00    +0.000 NA
ATOM     13  H   UNL     1      47.213   3.998   5.764  0.00  0.00    +0.000 HD
ATOM     14  H   UNL     1      47.102   2.394   5.495  0.00  0.00    +0.000 HD
ENDBRANCH  11  12
ENDBRANCH  10  11
ENDBRANCH   1  10
BRANCH   7  15
ATOM     15  C   UNL     1      45.948   7.334  12.158  0.00  0.00    +0.000 C 
BRANCH  15  16
ATOM     16  C   UNL     1      45.099   8.500  11.726  0.00  0.00    +0.000 A 
ATOM     17  C   UNL     1      43.953   8.326  10.946  0.00  0.00    +0.000 A 
ATOM     18  C   UNL     1      43.071   9.393  10.769  0.00  0.00    +0.000 A 
ATOM     19  C   UNL     1      43.397  10.609  11.343  0.00  0.00    +0.000 A 
ATOM     20  N   UNL     1      44.550  10.844  12.004  0.00  0.00    +0.000 NA
ATOM     21  C   UNL     1      45.371   9.782  12.186  0.00  0.00    +0.000 A 
ENDBRANCH  15  16
ENDBRANCH   7  15
TORSDOF 5
ENDMDL
MODEL 7
REMARK VINA RESULT:    -5.827      2.017      6.233
REMARK INTER + INTRA:          -7.493
REMARK INTER:                  -6.956
REMARK INTRA:                  -0.538
REMARK UNBOUND:                -0.134
REMARK  Name = 
REMARK  5 active torsions:
REMARK  status: ('A' for Active; 'I' for Inactive)
REMARK    1  A    between atoms: N_1  and  C_2
REMARK    2  A    between atoms: C_2  and  C_3
REMARK    3  A    between atoms: C_3  and  C_4
REMARK    4  A    between atoms: N_10  and  C_11
REMARK    5  A    between atoms: C_11  and  C_12
REMARK                            x       y       z     vdW  Elec       q    Type
REMARK                         _______ _______ _______ _____ _____    ______ ____
ROOT
ATOM      1  C   UNL     1      44.901   4.391  10.876  0.00  0.00    +0.000 A 
ATOM      2  C   UNL     1      44.909   3.258  11.682  0.00  0.00    +0.000 A 
ATOM      3  N   UNL     1      45.575   3.135  12.853  0.00  0.00    +0.000 NA
ATOM      4  C   UNL     1      46.240   4.243  13.261  0.00  0.00    +0.000 A 
ATOM      5  C   UNL     1      46.993   4.435  14.440  0.00  0.00    +0.000 A 
ATOM      6  C   UNL     1      47.435   5.730  14.440  0.00  0.00    +0.000 A 
ATOM      7  N   UNL     1      47.003   6.358  13.296  0.00  0.00    +0.000 N 
ATOM      8  C   UNL     1      46.285   5.435  12.526  0.00  0.00    +0.000 A 
ATOM      9  C   UNL     1      45.659   5.501  11.282  0.00  0.00    +0.000 A 
ENDROOT
BRANCH   1  10
ATOM     10  C   UNL     1      44.083   4.473   9.611  0.00  0.00    +0.000 C 
BRANCH  10  11
ATOM     11  C   UNL     1      44.755   3.771   8.428  0.00  0.00    +0.000 C 
BRANCH  11  12
ATOM     12  N   UNL     1      45.911   4.531   7.955  0.00  0.00    +0.000 NA
ATOM     13  H   UNL     1      46.370   4.971   8.752  0.00  0.00    +0.000 HD
ATOM     14  H   UNL     1      45.602   5.292   7.350  0.00  0.00    +0.000 HD
ENDBRANCH  11  12
ENDBRANCH  10  11
ENDBRANCH   1  10
BRANCH   7  15
ATOM     15  C   UNL     1      47.150   7.804  13.078  0.00  0.00    +0.000 C 
BRANCH  15  16
ATOM     16  C   UNL     1      48.572   8.201  12.784  0.00  0.00    +0.000 A 
ATOM     17  C   UNL     1      49.297   7.620  11.742  0.00  0.00    +0.000 A 
ATOM     18  C   UNL     1      50.516   8.178  11.354  0.00  0.00    +0.000 A 
ATOM     19  C   UNL     1      50.984   9.273  12.059  0.00  0.00    +0.000 A 
ATOM     20  N   UNL     1      50.366   9.789  13.143  0.00  0.00    +0.000 NA
ATOM     21  C   UNL     1      49.171   9.246  13.475  0.00  0.00    +0.000 A 
ENDBRANCH  15  16
ENDBRANCH   7  15
TORSDOF 5
ENDMDL
MODEL 8
REMARK VINA RESULT:    -5.619      2.702      5.437
REMARK INTER + INTRA:          -7.231
REMARK INTER:                  -6.631
REMARK INTRA:                  -0.601
REMARK UNBOUND:                -0.134
REMARK  Name = 
REMARK  5 active torsions:
REMARK  status: ('A' for Active; 'I' for Inactive)
REMARK    1  A    between atoms: N_1  and  C_2
REMARK    2  A    between atoms: C_2  and  C_3
REMARK    3  A    between atoms: C_3  and  C_4
REMARK    4  A    between atoms: N_10  and  C_11
REMARK    5  A    between atoms: C_11  and  C_12
REMARK                            x       y       z     vdW  Elec       q    Type
REMARK                         _______ _______ _______ _____ _____    ______ ____
ROOT
ATOM      1  C   UNL     1      48.601   5.587  16.270  0.00  0.00    +0.000 A 
ATOM      2  C   UNL     1      49.825   6.239  16.170  0.00  0.00    +0.000 A 
ATOM      3  N   UNL     1      50.221   7.007  15.129  0.00  0.00    +0.000 NA
ATOM      4  C   UNL     1      49.303   7.165  14.144  0.00  0.00    +0.000 A 
ATOM      5  C   UNL     1      49.406   7.924  12.958  0.00  0.00    +0.000 A 
ATOM      6  C   UNL     1      48.212   7.820  12.298  0.00  0.00    +0.000 A 
ATOM      7  N   UNL     1      47.364   7.010  13.017  0.00  0.00    +0.000 N 
ATOM      8  C   UNL     1      48.040   6.559  14.156  0.00  0.00    +0.000 A 
ATOM      9  C   UNL     1      47.696   5.705  15.203  0.00  0.00    +0.000 A 
ENDROOT
BRANCH   1  10
ATOM     10  C   UNL     1      48.209   4.796  17.493  0.00  0.00    +0.000 C 
BRANCH  10  11
ATOM     11  C   UNL     1      47.879   3.336  17.171  0.00  0.00    +0.000 C 
BRANCH  11  12
ATOM     12  N   UNL     1      46.546   2.981  17.654  0.00  0.00    +0.000 NA
ATOM     13  H   UNL     1      46.533   1.992  17.903  0.00  0.00    +0.000 HD
ATOM     14  H   UNL     1      45.863   3.093  16.905  0.00  0.00    +0.000 HD
ENDBRANCH  11  12
ENDBRANCH  10  11
ENDBRANCH   1  10
BRANCH   7  15
ATOM     15  C   UNL     1      45.944   6.844  12.677  0.00  0.00    +0.000 C 
BRANCH  15  16
ATOM     16  C   UNL     1      45.679   5.577  11.909  0.00  0.00    +0.000 A 
ATOM     17  C   UNL     1      45.433   4.363  12.555  0.00  0.00    +0.000 A 
ATOM     18  C   UNL     1      44.960   3.274  11.821  0.00  0.00    +0.000 A 
ATOM     19  C   UNL     1      44.796   3.432  10.456  0.00  0.00    +0.000 A 
ATOM     20  N   UNL     1      45.132   4.552   9.782  0.00  0.00    +0.000 NA
ATOM     21  C   UNL     1      45.558   5.601  10.525  0.00  0.00    +0.000 A 
ENDBRANCH  15  16
ENDBRANCH   7  15
TORSDOF 5
ENDMDL
MODEL 9
REMARK VINA RESULT:    -5.548      2.898      7.390
REMARK INTER + INTRA:          -7.141
REMARK INTER:                  -6.605
REMARK INTRA:                  -0.536
REMARK UNBOUND:                -0.134
REMARK  Name = 
REMARK  5 active torsions:
REMARK  status: ('A' for Active; 'I' for Inactive)
REMARK    1  A    between atoms: N_1  and  C_2
REMARK    2  A    between atoms: C_2  and  C_3
REMARK    3  A    between atoms: C_3  and  C_4
REMARK    4  A    between atoms: N_10  and  C_11
REMARK    5  A    between atoms: C_11  and  C_12
REMARK                            x       y       z     vdW  Elec       q    Type
REMARK                         _______ _______ _______ _____ _____    ______ ____
ROOT
ATOM      1  C   UNL     1      45.402   4.785  12.046  0.00  0.00    +0.000 A 
ATOM      2  C   UNL     1      44.688   5.816  11.446  0.00  0.00    +0.000 A 
ATOM      3  N   UNL     1      44.868   7.135  11.684  0.00  0.00    +0.000 NA
ATOM      4  C   UNL     1      45.865   7.437  12.551  0.00  0.00    +0.000 A 
ATOM      5  C   UNL     1      46.312   8.708  12.972  0.00  0.00    +0.000 A 
ATOM      6  C   UNL     1      47.373   8.514  13.813  0.00  0.00    +0.000 A 
ATOM      7  N   UNL     1      47.603   7.165  13.951  0.00  0.00    +0.000 N 
ATOM      8  C   UNL     1      46.648   6.473  13.199  0.00  0.00    +0.000 A 
ATOM      9  C   UNL     1      46.380   5.119  12.997  0.00  0.00    +0.000 A 
ENDROOT
BRANCH   1  10
ATOM     10  C   UNL     1      45.184   3.337  11.683  0.00  0.00    +0.000 C 
BRANCH  10  11
ATOM     11  C   UNL     1      43.862   3.106  10.947  0.00  0.00    +0.000 C 
BRANCH  11  12
ATOM     12  N   UNL     1      43.016   2.160  11.673  0.00  0.00    +0.000 NA
ATOM     13  H   UNL     1      43.507   1.847  12.510  0.00  0.00    +0.000 HD
ATOM     14  H   UNL     1      42.862   1.326  11.106  0.00  0.00    +0.000 HD
ENDBRANCH  11  12
ENDBRANCH  10  11
ENDBRANCH   1  10
BRANCH   7  15
ATOM     15  C   UNL     1      48.785   6.626  14.637  0.00  0.00    +0.000 C 
BRANCH  15  16
ATOM     16  C   UNL     1      48.469   6.117  16.018  0.00  0.00    +0.000 A 
ATOM     17  C   UNL     1      47.946   4.839  16.230  0.00  0.00    +0.000 A 
ATOM     18  C   UNL     1      47.891   4.321  17.524  0.00  0.00    +0.000 A 
ATOM     19  C   UNL     1      48.320   5.126  18.566  0.00  0.00    +0.000 A 
ATOM     20  N   UNL     1      48.722   6.405  18.411  0.00  0.00    +0.000 NA
ATOM     21  C   UNL     1      48.794   6.868  17.141  0.00  0.00    +0.000 A 
ENDBRANCH  15  16
ENDBRANCH   7  15
TORSDOF 5
ENDMDL
