MODEL 1
REMARK VINA RESULT:    -8.643      0.000      0.000
REMARK INTER + INTRA:         -12.805
REMARK INTER:                 -11.675
REMARK INTRA:                  -1.130
REMARK UNBOUND:                -1.130
REMARK  Name = 
REMARK  8 active torsions:
REMARK  status: ('A' for Active; 'I' for Inactive)
REMARK    1  A    between atoms: C_1  and  O_2
REMARK    2  A    between atoms: O_2  and  C_3
REMARK    3  A    between atoms: C_6  and  C_7
REMARK    4  A    between atoms: C_7  and  N_8
REMARK    5  A    between atoms: N_8  and  C_9
REMARK    6  A    between atoms: C_12  and  C_13
REMARK    7  A    between atoms: C_21  and  C_22
REMARK    8  A    between atoms: C_25  and  C_26
REMARK                            x       y       z     vdW  Elec       q    Type
REMARK                         _______ _______ _______ _____ _____    ______ ____
ROOT
ATOM      1  C   UNL     1      43.804   4.955  11.436  0.00  0.00    +0.000 C 
ATOM      2  C   UNL     1      42.962   6.143  11.013  0.00  0.00    +0.000 C 
ATOM      3  C   UNL     1      42.426   5.225  12.056  0.00  0.00    +0.000 C 
ENDROOT
BRANCH   1   7
ATOM      4  C   UNL     1      47.463   5.676  13.717  0.00  0.00    +0.000 A 
ATOM      5  C   UNL     1      46.722   4.502  13.922  0.00  0.00    +0.000 A 
ATOM      6  C   UNL     1      45.534   4.266  13.215  0.00  0.00    +0.000 A 
ATOM      7  C   UNL     1      45.017   5.213  12.329  0.00  0.00    +0.000 A 
ATOM      8  C   UNL     1      45.718   6.421  12.224  0.00  0.00    +0.000 A 
ATOM      9  C   UNL     1      46.979   6.650  12.818  0.00  0.00    +0.000 A 
BRANCH   9  10
ATOM     10  C   UNL     1      47.729   7.850  12.372  0.00  0.00    +0.000 A 
ATOM     11  C   UNL     1      49.000   7.712  11.784  0.00  0.00    +0.000 A 
ATOM     12  C   UNL     1      49.705   8.814  11.308  0.00  0.00    +0.000 A 
ATOM     13  C   UNL     1      49.139  10.068  11.448  0.00  0.00    +0.000 A 
ATOM     14  C   UNL     1      49.851  11.283  10.938  0.00  0.00    +0.000 C 
ATOM     15  N   UNL     1      47.934  10.259  12.035  0.00  0.00    +0.000 NA
ATOM     16  C   UNL     1      47.267   9.158  12.478  0.00  0.00    +0.000 A 
ENDBRANCH   9  10
BRANCH   4  18
ATOM     17  C   UNL     1      48.660   6.400  15.658  0.00  0.00    +0.000 C 
ATOM     18  O   UNL     1      48.669   5.923  14.319  0.00  0.00    +0.000 OA
ENDBRANCH   4  18
ENDBRANCH   1   7
BRANCH   1  19
ATOM     19  N   UNL     1      43.879   3.719  10.653  0.00  0.00    +0.000 N 
ATOM     20  H   UNL     1      43.102   3.071  10.732  0.00  0.00    +0.000 HD
BRANCH  19  21
ATOM     21  C   UNL     1      44.741   3.464   9.579  0.00  0.00    +0.000 A 
ATOM     22  C   UNL     1      45.321   4.454   8.786  0.00  0.00    +0.000 A 
ATOM     23  C   UNL     1      46.208   4.102   7.761  0.00  0.00    +0.000 A 
ATOM     24  C   UNL     1      46.504   2.762   7.575  0.00  0.00    +0.000 A 
ATOM     25  N   UNL     1      45.988   1.761   8.336  0.00  0.00    +0.000 NA
ATOM     26  C   UNL     1      45.139   2.147   9.317  0.00  0.00    +0.000 A 
BRANCH  24  27
ATOM     27  C   UNL     1      47.430   2.342   6.477  0.00  0.00    +0.000 C 
ATOM     28  N   UNL     1      47.272   3.016   5.295  0.00  0.00    +0.000 N 
ATOM     29  O   UNL     1      48.265   1.456   6.613  0.00  0.00    +0.000 OA
ATOM     30  H   UNL     1      46.569   3.746   5.229  0.00  0.00    +0.000 HD
ATOM     31  H   UNL     1      47.864   2.797   4.508  0.00  0.00    +0.000 HD
ENDBRANCH  24  27
ENDBRANCH  19  21
ENDBRANCH   1  19
TORSDOF 6
ENDMDL
MODEL 2
REMARK VINA RESULT:    -8.346      2.035      3.940
REMARK INTER + INTRA:         -12.404
REMARK INTER:                 -12.390
REMARK INTRA:                  -0.014
REMARK UNBOUND:                -1.130
REMARK  Name = 
REMARK  8 active torsions:
REMARK  status: ('A' for Active; 'I' for Inactive)
REMARK    1  A    between atoms: C_1  and  O_2
REMARK    2  A    between atoms: O_2  and  C_3
REMARK    3  A    between atoms: C_6  and  C_7
REMARK    4  A    between atoms: C_7  and  N_8
REMARK    5  A    between atoms: N_8  and  C_9
REMARK    6  A    between atoms: C_12  and  C_13
REMARK    7  A    between atoms: C_21  and  C_22
REMARK    8  A    between atoms: C_25  and  C_26
REMARK                            x       y       z     vdW  Elec       q    Type
REMARK                         _______ _______ _______ _____ _____    ______ ____
ROOT
ATOM      1  C   UNL     1      44.009   4.895  11.574  0.00  0.00    +0.000 C 
ATOM      2  C   UNL     1      42.852   5.210  12.501  0.00  0.00    +0.000 C 
ATOM      3  C   UNL     1      43.397   3.824  12.487  0.00  0.00    +0.000 C 
ENDROOT
BRANCH   1   7
ATOM      4  C   UNL     1      47.840   6.507  12.927  0.00  0.00    +0.000 A 
ATOM      5  C   UNL     1      47.287   6.928  11.708  0.00  0.00    +0.000 A 
ATOM      6  C   UNL     1      46.070   6.405  11.249  0.00  0.00    +0.000 A 
ATOM      7  C   UNL     1      45.398   5.405  11.955  0.00  0.00    +0.000 A 
ATOM      8  C   UNL     1      46.025   4.926  13.112  0.00  0.00    +0.000 A 
ATOM      9  C   UNL     1      47.182   5.508  13.676  0.00  0.00    +0.000 A 
BRANCH   9  10
ATOM     10  C   UNL     1      47.550   5.088  15.051  0.00  0.00    +0.000 A 
ATOM     11  C   UNL     1      47.180   3.816  15.524  0.00  0.00    +0.000 A 
ATOM     12  C   UNL     1      47.556   3.373  16.789  0.00  0.00    +0.000 A 
ATOM     13  C   UNL     1      48.288   4.226  17.594  0.00  0.00    +0.000 A 
ATOM     14  C   UNL     1      48.730   3.791  18.958  0.00  0.00    +0.000 C 
ATOM     15  N   UNL     1      48.642   5.472  17.199  0.00  0.00    +0.000 NA
ATOM     16  C   UNL     1      48.268   5.868  15.952  0.00  0.00    +0.000 A 
ENDBRANCH   9  10
BRANCH   4  18
ATOM     17  C   UNL     1      49.113   8.457  13.479  0.00  0.00    +0.000 C 
ATOM     18  O   UNL     1      48.983   7.040  13.463  0.00  0.00    +0.000 OA
ENDBRANCH   4  18
ENDBRANCH   1   7
BRANCH   1  19
ATOM     19  N   UNL     1      43.828   4.637  10.142  0.00  0.00    +0.000 N 
ATOM     20  H   UNL     1      43.152   5.209   9.649  0.00  0.00    +0.000 HD
BRANCH  19  21
ATOM     21  C   UNL     1      44.691   3.911   9.312  0.00  0.00    +0.000 A 
ATOM     22  C   UNL     1      45.561   4.487   8.388  0.00  0.00    +0.000 A 
ATOM     23  C   UNL     1      46.420   3.679   7.632  0.00  0.00    +0.000 A 
ATOM     24  C   UNL     1      46.395   2.310   7.846  0.00  0.00    +0.000 A 
ATOM     25  N   UNL     1      45.587   1.701   8.752  0.00  0.00    +0.000 NA
ATOM     26  C   UNL     1      44.777   2.521   9.461  0.00  0.00    +0.000 A 
BRANCH  24  27
ATOM     27  C   UNL     1      47.281   1.409   7.044  0.00  0.00    +0.000 C 
ATOM     28  N   UNL     1      48.352   2.024   6.453  0.00  0.00    +0.000 N 
ATOM     29  O   UNL     1      47.067   0.209   6.914  0.00  0.00    +0.000 OA
ATOM     30  H   UNL     1      48.492   3.020   6.590  0.00  0.00    +0.000 HD
ATOM     31  H   UNL     1      49.001   1.483   5.901  0.00  0.00    +0.000 HD
ENDBRANCH  24  27
ENDBRANCH  19  21
ENDBRANCH   1  19
TORSDOF 6
ENDMDL
MODEL 3
REMARK VINA RESULT:    -6.558      1.615      1.870
REMARK INTER + INTRA:          -9.988
REMARK INTER:                  -9.217
REMARK INTRA:                  -0.772
REMARK UNBOUND:                -1.130
REMARK  Name = 
REMARK  8 active torsions:
REMARK  status: ('A' for Active; 'I' for Inactive)
REMARK    1  A    between atoms: C_1  and  O_2
REMARK    2  A    between atoms: O_2  and  C_3
REMARK    3  A    between atoms: C_6  and  C_7
REMARK    4  A    between atoms: C_7  and  N_8
REMARK    5  A    between atoms: N_8  and  C_9
REMARK    6  A    between atoms: C_12  and  C_13
REMARK    7  A    between atoms: C_21  and  C_22
REMARK    8  A    between atoms: C_25  and  C_26
REMARK                            x       y       z     vdW  Elec       q    Type
REMARK                         _______ _______ _______ _____ _____    ______ ____
ROOT
ATOM      1  C   UNL     1      44.683   5.819  11.452  0.00  0.00    +0.000 C 
ATOM      2  C   UNL     1      44.649   7.211  10.853  0.00  0.00    +0.000 C 
ATOM      3  C   UNL     1      43.478   6.749  11.650  0.00  0.00    +0.000 C 
ENDROOT
BRANCH   1   7
ATOM      4  C   UNL     1      47.464   5.053  14.737  0.00  0.00    +0.000 A 
ATOM      5  C   UNL     1      46.321   4.255  14.578  0.00  0.00    +0.000 A 
ATOM      6  C   UNL     1      45.407   4.501  13.543  0.00  0.00    +0.000 A 
ATOM      7  C   UNL     1      45.570   5.582  12.674  0.00  0.00    +0.000 A 
ATOM      8  C   UNL     1      46.659   6.426  12.921  0.00  0.00    +0.000 A 
ATOM      9  C   UNL     1      47.670   6.147  13.869  0.00  0.00    +0.000 A 
BRANCH   9  10
ATOM     10  C   UNL     1      48.904   6.968  13.805  0.00  0.00    +0.000 A 
ATOM     11  C   UNL     1      49.513   7.233  12.564  0.00  0.00    +0.000 A 
ATOM     12  C   UNL     1      50.641   8.043  12.467  0.00  0.00    +0.000 A 
ATOM     13  C   UNL     1      51.175   8.570  13.628  0.00  0.00    +0.000 A 
ATOM     14  C   UNL     1      52.379   9.461  13.575  0.00  0.00    +0.000 C 
ATOM     15  N   UNL     1      50.646   8.320  14.849  0.00  0.00    +0.000 NA
ATOM     16  C   UNL     1      49.537   7.533  14.907  0.00  0.00    +0.000 A 
ENDBRANCH   9  10
BRANCH   4  18
ATOM     17  C   UNL     1      48.154   3.842  16.682  0.00  0.00    +0.000 C 
ATOM     18  O   UNL     1      48.430   4.811  15.678  0.00  0.00    +0.000 OA
ENDBRANCH   4  18
ENDBRANCH   1   7
BRANCH   1  19
ATOM     19  N   UNL     1      44.390   4.614  10.671  0.00  0.00    +0.000 N 
ATOM     20  H   UNL     1      43.456   4.226  10.749  0.00  0.00    +0.000 HD
BRANCH  19  21
ATOM     21  C   UNL     1      45.140   4.113   9.600  0.00  0.00    +0.000 A 
ATOM     22  C   UNL     1      45.859   4.906   8.707  0.00  0.00    +0.000 A 
ATOM     23  C   UNL     1      46.618   4.310   7.691  0.00  0.00    +0.000 A 
ATOM     24  C   UNL     1      46.650   2.926   7.618  0.00  0.00    +0.000 A 
ATOM     25  N   UNL     1      45.990   2.108   8.479  0.00  0.00    +0.000 NA
ATOM     26  C   UNL     1      45.273   2.728   9.445  0.00  0.00    +0.000 A 
BRANCH  24  27
ATOM     27  C   UNL     1      47.430   2.250   6.536  0.00  0.00    +0.000 C 
ATOM     28  N   UNL     1      47.210   2.731   5.273  0.00  0.00    +0.000 N 
ATOM     29  O   UNL     1      48.206   1.326   6.752  0.00  0.00    +0.000 OA
ATOM     30  H   UNL     1      46.560   3.501   5.140  0.00  0.00    +0.000 HD
ATOM     31  H   UNL     1      47.704   2.333   4.489  0.00  0.00    +0.000 HD
ENDBRANCH  24  27
ENDBRANCH  19  21
ENDBRANCH   1  19
TORSDOF 6
ENDMDL
MODEL 4
REMARK VINA RESULT:    -6.476      3.672      6.866
REMARK INTER + INTRA:          -9.877
REMARK INTER:                  -8.584
REMARK INTRA:                  -1.293
REMARK UNBOUND:                -1.130
REMARK  Name = 
REMARK  8 active torsions:
REMARK  status: ('A' for Active; 'I' for Inactive)
REMARK    1  A    between atoms: C_1  and  O_2
REMARK    2  A    between atoms: O_2  and  C_3
REMARK    3  A    between atoms: C_6  and  C_7
REMARK    4  A    between atoms: C_7  and  N_8
REMARK    5  A    between atoms: N_8  and  C_9
REMARK    6  A    between atoms: C_12  and  C_13
REMARK    7  A    between atoms: C_21  and  C_22
REMARK    8  A    between atoms: C_25  and  C_26
REMARK                            x       y       z     vdW  Elec       q    Type
REMARK                         _______ _______ _______ _____ _____    ______ ____
ROOT
ATOM      1  C   UNL     1      48.400   8.016  13.967  0.00  0.00    +0.000 C 
ATOM      2  C   UNL     1      49.469   7.774  12.920  0.00  0.00    +0.000 C 
ATOM      3  C   UNL     1      49.117   9.179  13.268  0.00  0.00    +0.000 C 
ENDROOT
BRANCH   1   7
ATOM      4  C   UNL     1      49.227   7.058  18.151  0.00  0.00    +0.000 A 
ATOM      5  C   UNL     1      48.538   8.235  17.818  0.00  0.00    +0.000 A 
ATOM      6  C   UNL     1      48.285   8.568  16.480  0.00  0.00    +0.000 A 
ATOM      7  C   UNL     1      48.758   7.775  15.432  0.00  0.00    +0.000 A 
ATOM      8  C   UNL     1      49.534   6.665  15.789  0.00  0.00    +0.000 A 
ATOM      9  C   UNL     1      49.708   6.224  17.119  0.00  0.00    +0.000 A 
BRANCH   9  10
ATOM     10  C   UNL     1      50.296   4.875  17.314  0.00  0.00    +0.000 A 
ATOM     11  C   UNL     1      49.480   3.731  17.245  0.00  0.00    +0.000 A 
ATOM     12  C   UNL     1      50.011   2.451  17.371  0.00  0.00    +0.000 A 
ATOM     13  C   UNL     1      51.370   2.320  17.593  0.00  0.00    +0.000 A 
ATOM     14  C   UNL     1      51.992   0.963  17.720  0.00  0.00    +0.000 C 
ATOM     15  N   UNL     1      52.194   3.390  17.699  0.00  0.00    +0.000 NA
ATOM     16  C   UNL     1      51.643   4.626  17.559  0.00  0.00    +0.000 A 
ENDBRANCH   9  10
BRANCH   4  18
ATOM     17  C   UNL     1      48.304   6.207  20.189  0.00  0.00    +0.000 C 
ATOM     18  O   UNL     1      49.433   6.642  19.440  0.00  0.00    +0.000 OA
ENDBRANCH   4  18
ENDBRANCH   1   7
BRANCH   1  19
ATOM     19  N   UNL     1      46.967   7.930  13.670  0.00  0.00    +0.000 N 
ATOM     20  H   UNL     1      46.457   8.802  13.579  0.00  0.00    +0.000 HD
BRANCH  19  21
ATOM     21  C   UNL     1      46.282   6.804  13.194  0.00  0.00    +0.000 A 
ATOM     22  C   UNL     1      46.617   5.489  13.512  0.00  0.00    +0.000 A 
ATOM     23  C   UNL     1      45.843   4.429  13.023  0.00  0.00    +0.000 A 
ATOM     24  C   UNL     1      44.737   4.725  12.243  0.00  0.00    +0.000 A 
ATOM     25  N   UNL     1      44.352   5.989  11.926  0.00  0.00    +0.000 NA
ATOM     26  C   UNL     1      45.126   6.981  12.423  0.00  0.00    +0.000 A 
BRANCH  24  27
ATOM     27  C   UNL     1      43.896   3.622  11.682  0.00  0.00    +0.000 C 
ATOM     28  N   UNL     1      43.788   2.513  12.478  0.00  0.00    +0.000 N 
ATOM     29  O   UNL     1      43.349   3.692  10.588  0.00  0.00    +0.000 OA
ATOM     30  H   UNL     1      44.257   2.499  13.379  0.00  0.00    +0.000 HD
ATOM     31  H   UNL     1      43.231   1.728  12.174  0.00  0.00    +0.000 HD
ENDBRANCH  24  27
ENDBRANCH  19  21
ENDBRANCH   1  19
TORSDOF 6
ENDMDL
MODEL 5
REMARK VINA RESULT:    -6.348      4.864      8.682
REMARK INTER + INTRA:          -9.705
REMARK INTER:                  -8.673
REMARK INTRA:                  -1.033
REMARK UNBOUND:                -1.130
REMARK  Name = 
REMARK  8 active torsions:
REMARK  status: ('A' for Active; 'I' for Inactive)
REMARK    1  A    between atoms: C_1  and  O_2
REMARK    2  A    between atoms: O_2  and  C_3
REMARK    3  A    between atoms: C_6  and  C_7
REMARK    4  A    between atoms: C_7  and  N_8
REMARK    5  A    between atoms: N_8  and  C_9
REMARK    6  A    between atoms: C_12  and  C_13
REMARK    7  A    between atoms: C_21  and  C_22
REMARK    8  A    between atoms: C_25  and  C_26
REMARK                            x       y       z     vdW  Elec       q    Type
REMARK                         _______ _______ _______ _____ _____    ______ ____
ROOT
ATOM      1  C   UNL     1      49.207   5.664  17.685  0.00  0.00    +0.000 C 
ATOM      2  C   UNL     1      48.066   5.061  18.480  0.00  0.00    +0.000 C 
ATOM      3  C   UNL     1      48.518   6.440  18.816  0.00  0.00    +0.000 C 
ENDROOT
BRANCH   1   7
ATOM      4  C   UNL     1      48.453   6.706  13.507  0.00  0.00    +0.000 A 
ATOM      5  C   UNL     1      49.543   7.267  14.190  0.00  0.00    +0.000 A 
ATOM      6  C   UNL     1      49.786   6.961  15.536  0.00  0.00    +0.000 A 
ATOM      7  C   UNL     1      48.921   6.137  16.261  0.00  0.00    +0.000 A 
ATOM      8  C   UNL     1      47.783   5.677  15.586  0.00  0.00    +0.000 A 
ATOM      9  C   UNL     1      47.565   5.857  14.202  0.00  0.00    +0.000 A 
BRANCH   9  10
ATOM     10  C   UNL     1      46.479   5.060  13.579  0.00  0.00    +0.000 A 
ATOM     11  C   UNL     1      45.255   5.671  13.249  0.00  0.00    +0.000 A 
ATOM     12  C   UNL     1      44.237   4.963  12.616  0.00  0.00    +0.000 A 
ATOM     13  C   UNL     1      44.442   3.625  12.336  0.00  0.00    +0.000 A 
ATOM     14  C   UNL     1      43.383   2.824  11.641  0.00  0.00    +0.000 C 
ATOM     15  N   UNL     1      45.589   2.982  12.660  0.00  0.00    +0.000 NA
ATOM     16  C   UNL     1      46.567   3.708  13.268  0.00  0.00    +0.000 A 
ENDBRANCH   9  10
BRANCH   4  18
ATOM     17  C   UNL     1      49.111   7.739  11.451  0.00  0.00    +0.000 C 
ATOM     18  O   UNL     1      48.213   6.905  12.173  0.00  0.00    +0.000 OA
ENDBRANCH   4  18
ENDBRANCH   1   7
BRANCH   1  19
ATOM     19  N   UNL     1      50.612   5.342  17.948  0.00  0.00    +0.000 N 
ATOM     20  H   UNL     1      51.173   6.049  18.411  0.00  0.00    +0.000 HD
BRANCH  19  21
ATOM     21  C   UNL     1      51.194   4.068  17.916  0.00  0.00    +0.000 A 
ATOM     22  C   UNL     1      50.585   2.940  17.369  0.00  0.00    +0.000 A 
ATOM     23  C   UNL     1      51.266   1.717  17.342  0.00  0.00    +0.000 A 
ATOM     24  C   UNL     1      52.555   1.668  17.848  0.00  0.00    +0.000 A 
ATOM     25  N   UNL     1      53.204   2.743  18.367  0.00  0.00    +0.000 NA
ATOM     26  C   UNL     1      52.509   3.904  18.369  0.00  0.00    +0.000 A 
BRANCH  24  27
ATOM     27  C   UNL     1      53.309   0.376  17.859  0.00  0.00    +0.000 C 
ATOM     28  N   UNL     1      53.548  -0.167  16.624  0.00  0.00    +0.000 N 
ATOM     29  O   UNL     1      53.683  -0.168  18.891  0.00  0.00    +0.000 OA
ATOM     30  H   UNL     1      53.222   0.321  15.795  0.00  0.00    +0.000 HD
ATOM     31  H   UNL     1      54.058  -1.034  16.546  0.00  0.00    +0.000 HD
ENDBRANCH  24  27
ENDBRANCH  19  21
ENDBRANCH   1  19
TORSDOF 6
ENDMDL
MODEL 6
REMARK VINA RESULT:    -6.185      2.987      8.371
REMARK INTER + INTRA:          -9.484
REMARK INTER:                  -8.208
REMARK INTRA:                  -1.276
REMARK UNBOUND:                -1.130
REMARK  Name = 
REMARK  8 active torsions:
REMARK  status: ('A' for Active; 'I' for Inactive)
REMARK    1  A    between atoms: C_1  and  O_2
REMARK    2  A    between atoms: O_2  and  C_3
REMARK    3  A    between atoms: C_6  and  C_7
REMARK    4  A    between atoms: C_7  and  N_8
REMARK    5  A    between atoms: N_8  and  C_9
REMARK    6  A    between atoms: C_12  and  C_13
REMARK    7  A    between atoms: C_21  and  C_22
REMARK    8  A    between atoms: C_25  and  C_26
REMARK                            x       y       z     vdW  Elec       q    Type
REMARK                         _______ _______ _______ _____ _____    ______ ____
ROOT
ATOM      1  C   UNL     1      49.673   8.060  12.690  0.00  0.00    +0.000 C 
ATOM      2  C   UNL     1      50.475   9.193  12.082  0.00  0.00    +0.000 C 
ATOM      3  C   UNL     1      50.522   7.856  11.427  0.00  0.00    +0.000 C 
ENDROOT
BRANCH   1   7
ATOM      4  C   UNL     1      45.390   8.043  11.818  0.00  0.00    +0.000 A 
ATOM      5  C   UNL     1      46.004   9.200  12.321  0.00  0.00    +0.000 A 
ATOM      6  C   UNL     1      47.372   9.215  12.627  0.00  0.00    +0.000 A 
ATOM      7  C   UNL     1      48.157   8.067  12.500  0.00  0.00    +0.000 A 
ATOM      8  C   UNL     1      47.497   6.899  12.099  0.00  0.00    +0.000 A 
ATOM      9  C   UNL     1      46.154   6.867  11.661  0.00  0.00    +0.000 A 
BRANCH   9  10
ATOM     10  C   UNL     1      45.691   5.629  10.987  0.00  0.00    +0.000 A 
ATOM     11  C   UNL     1      45.805   5.500   9.590  0.00  0.00    +0.000 A 
ATOM     12  C   UNL     1      45.428   4.330   8.936  0.00  0.00    +0.000 A 
ATOM     13  C   UNL     1      44.909   3.293   9.688  0.00  0.00    +0.000 A 
ATOM     14  C   UNL     1      44.504   2.008   9.032  0.00  0.00    +0.000 C 
ATOM     15  N   UNL     1      44.750   3.378  11.029  0.00  0.00    +0.000 NA
ATOM     16  C   UNL     1      45.139   4.531  11.639  0.00  0.00    +0.000 A 
ENDBRANCH   9  10
BRANCH   4  18
ATOM     17  C   UNL     1      43.528   9.139  10.788  0.00  0.00    +0.000 C 
ATOM     18  O   UNL     1      44.077   7.993  11.427  0.00  0.00    +0.000 OA
ENDBRANCH   4  18
ENDBRANCH   1   7
BRANCH   1  19
ATOM     19  N   UNL     1      50.136   7.297  13.853  0.00  0.00    +0.000 N 
ATOM     20  H   UNL     1      51.036   6.837  13.779  0.00  0.00    +0.000 HD
BRANCH  19  21
ATOM     21  C   UNL     1      49.631   7.381  15.157  0.00  0.00    +0.000 A 
ATOM     22  C   UNL     1      49.497   8.569  15.872  0.00  0.00    +0.000 A 
ATOM     23  C   UNL     1      48.939   8.557  17.157  0.00  0.00    +0.000 A 
ATOM     24  C   UNL     1      48.509   7.347  17.678  0.00  0.00    +0.000 A 
ATOM     25  N   UNL     1      48.592   6.166  17.013  0.00  0.00    +0.000 NA
ATOM     26  C   UNL     1      49.135   6.226  15.774  0.00  0.00    +0.000 A 
BRANCH  24  27
ATOM     27  C   UNL     1      47.927   7.287  19.055  0.00  0.00    +0.000 C 
ATOM     28  N   UNL     1      48.249   8.341  19.868  0.00  0.00    +0.000 N 
ATOM     29  O   UNL     1      47.220   6.363  19.439  0.00  0.00    +0.000 OA
ATOM     30  H   UNL     1      48.836   9.087  19.507  0.00  0.00    +0.000 HD
ATOM     31  H   UNL     1      47.889   8.378  20.810  0.00  0.00    +0.000 HD
ENDBRANCH  24  27
ENDBRANCH  19  21
ENDBRANCH   1  19
TORSDOF 6
ENDMDL
MODEL 7
REMARK VINA RESULT:    -6.049      3.992      8.136
REMARK INTER + INTRA:          -9.301
REMARK INTER:                  -8.153
REMARK INTRA:                  -1.149
REMARK UNBOUND:                -1.130
REMARK  Name = 
REMARK  8 active torsions:
REMARK  status: ('A' for Active; 'I' for Inactive)
REMARK    1  A    between atoms: C_1  and  O_2
REMARK    2  A    between atoms: O_2  and  C_3
REMARK    3  A    between atoms: C_6  and  C_7
REMARK    4  A    between atoms: C_7  and  N_8
REMARK    5  A    between atoms: N_8  and  C_9
REMARK    6  A    between atoms: C_12  and  C_13
REMARK    7  A    between atoms: C_21  and  C_22
REMARK    8  A    between atoms: C_25  and  C_26
REMARK                            x       y       z     vdW  Elec       q    Type
REMARK                         _______ _______ _______ _____ _____    ______ ____
ROOT
ATOM      1  C   UNL     1      49.058   8.293  17.840  0.00  0.00    +0.000 C 
ATOM      2  C   UNL     1      47.913   9.148  18.344  0.00  0.00    +0.000 C 
ATOM      3  C   UNL     1      49.294   9.704  18.397  0.00  0.00    +0.000 C 
ENDROOT
BRANCH   1   7
ATOM      4  C   UNL     1      49.553   7.473  13.575  0.00  0.00    +0.000 A 
ATOM      5  C   UNL     1      50.510   8.232  14.264  0.00  0.00    +0.000 A 
ATOM      6  C   UNL     1      50.356   8.523  15.627  0.00  0.00    +0.000 A 
ATOM      7  C   UNL     1      49.218   8.121  16.330  0.00  0.00    +0.000 A 
ATOM      8  C   UNL     1      48.228   7.459  15.593  0.00  0.00    +0.000 A 
ATOM      9  C   UNL     1      48.396   7.036  14.256  0.00  0.00    +0.000 A 
BRANCH   9  10
ATOM     10  C   UNL     1      47.390   6.090  13.713  0.00  0.00    +0.000 A 
ATOM     11  C   UNL     1      46.615   6.447  12.594  0.00  0.00    +0.000 A 
ATOM     12  C   UNL     1      45.701   5.562  12.031  0.00  0.00    +0.000 A 
ATOM     13  C   UNL     1      45.546   4.316  12.612  0.00  0.00    +0.000 A 
ATOM     14  C   UNL     1      44.587   3.322  12.033  0.00  0.00    +0.000 C 
ATOM     15  N   UNL     1      46.245   3.935  13.707  0.00  0.00    +0.000 NA
ATOM     16  C   UNL     1      47.138   4.821  14.225  0.00  0.00    +0.000 A 
ENDBRANCH   9  10
BRANCH   4  18
ATOM     17  C   UNL     1      49.834   8.110  11.285  0.00  0.00    +0.000 C 
ATOM     18  O   UNL     1      49.690   7.090  12.266  0.00  0.00    +0.000 OA
ENDBRANCH   4  18
ENDBRANCH   1   7
BRANCH   1  19
ATOM     19  N   UNL     1      49.659   7.223  18.640  0.00  0.00    +0.000 N 
ATOM     20  H   UNL     1      49.806   7.407  19.627  0.00  0.00    +0.000 HD
BRANCH  19  21
ATOM     21  C   UNL     1      49.773   5.875  18.278  0.00  0.00    +0.000 A 
ATOM     22  C   UNL     1      48.726   4.956  18.336  0.00  0.00    +0.000 A 
ATOM     23  C   UNL     1      48.925   3.637  17.909  0.00  0.00    +0.000 A 
ATOM     24  C   UNL     1      50.169   3.285  17.411  0.00  0.00    +0.000 A 
ATOM     25  N   UNL     1      51.213   4.148  17.306  0.00  0.00    +0.000 NA
ATOM     26  C   UNL     1      50.975   5.412  17.728  0.00  0.00    +0.000 A 
BRANCH  24  27
ATOM     27  C   UNL     1      50.429   1.882  16.963  0.00  0.00    +0.000 C 
ATOM     28  N   UNL     1      51.242   1.150  17.789  0.00  0.00    +0.000 N 
ATOM     29  O   UNL     1      49.962   1.414  15.932  0.00  0.00    +0.000 OA
ATOM     30  H   UNL     1      51.604   1.578  18.636  0.00  0.00    +0.000 HD
ATOM     31  H   UNL     1      51.459   0.192  17.561  0.00  0.00    +0.000 HD
ENDBRANCH  24  27
ENDBRANCH  19  21
ENDBRANCH   1  19
TORSDOF 6
ENDMDL
MODEL 8
REMARK VINA RESULT:    -5.860      4.346      6.686
REMARK INTER + INTRA:          -9.046
REMARK INTER:                  -7.931
REMARK INTRA:                  -1.115
REMARK UNBOUND:                -1.130
REMARK  Name = 
REMARK  8 active torsions:
REMARK  status: ('A' for Active; 'I' for Inactive)
REMARK    1  A    between atoms: C_1  and  O_2
REMARK    2  A    between atoms: O_2  and  C_3
REMARK    3  A    between atoms: C_6  and  C_7
REMARK    4  A    between atoms: C_7  and  N_8
REMARK    5  A    between atoms: N_8  and  C_9
REMARK    6  A    between atoms: C_12  and  C_13
REMARK    7  A    between atoms: C_21  and  C_22
REMARK    8  A    between atoms: C_25  and  C_26
REMARK                            x       y       z     vdW  Elec       q    Type
REMARK                         _______ _______ _______ _____ _____    ______ ____
ROOT
ATOM      1  C   UNL     1      46.241   4.757  13.743  0.00  0.00    +0.000 C 
ATOM      2  C   UNL     1      46.375   3.516  12.883  0.00  0.00    +0.000 C 
ATOM      3  C   UNL     1      45.010   4.027  13.188  0.00  0.00    +0.000 C 
ENDROOT
BRANCH   1   7
ATOM      4  C   UNL     1      47.364   8.698  12.223  0.00  0.00    +0.000 A 
ATOM      5  C   UNL     1      46.018   8.400  12.487  0.00  0.00    +0.000 A 
ATOM      6  C   UNL     1      45.639   7.133  12.953  0.00  0.00    +0.000 A 
ATOM      7  C   UNL     1      46.574   6.109  13.115  0.00  0.00    +0.000 A 
ATOM      8  C   UNL     1      47.892   6.400  12.742  0.00  0.00    +0.000 A 
ATOM      9  C   UNL     1      48.340   7.693  12.389  0.00  0.00    +0.000 A 
BRANCH   9  10
ATOM     10  C   UNL     1      49.807   7.904  12.316  0.00  0.00    +0.000 A 
ATOM     11  C   UNL     1      50.492   7.698  11.104  0.00  0.00    +0.000 A 
ATOM     12  C   UNL     1      51.858   7.939  10.991  0.00  0.00    +0.000 A 
ATOM     13  C   UNL     1      52.546   8.367  12.112  0.00  0.00    +0.000 A 
ATOM     14  C   UNL     1      54.014   8.655  12.037  0.00  0.00    +0.000 C 
ATOM     15  N   UNL     1      51.941   8.551  13.309  0.00  0.00    +0.000 NA
ATOM     16  C   UNL     1      50.602   8.317  13.380  0.00  0.00    +0.000 A 
ENDBRANCH   9  10
BRANCH   4  18
ATOM     17  C   UNL     1      46.849  10.995  11.787  0.00  0.00    +0.000 C 
ATOM     18  O   UNL     1      47.802   9.940  11.844  0.00  0.00    +0.000 OA
ENDBRANCH   4  18
ENDBRANCH   1   7
BRANCH   1  19
ATOM     19  N   UNL     1      46.350   4.722  15.204  0.00  0.00    +0.000 N 
ATOM     20  H   UNL     1      45.486   4.743  15.736  0.00  0.00    +0.000 HD
BRANCH  19  21
ATOM     21  C   UNL     1      47.480   4.356  15.946  0.00  0.00    +0.000 A 
ATOM     22  C   UNL     1      47.783   3.049  16.322  0.00  0.00    +0.000 A 
ATOM     23  C   UNL     1      48.962   2.775  17.027  0.00  0.00    +0.000 A 
ATOM     24  C   UNL     1      49.818   3.826  17.313  0.00  0.00    +0.000 A 
ATOM     25  N   UNL     1      49.585   5.113  16.946  0.00  0.00    +0.000 NA
ATOM     26  C   UNL     1      48.435   5.330  16.265  0.00  0.00    +0.000 A 
BRANCH  24  27
ATOM     27  C   UNL     1      51.078   3.580  18.082  0.00  0.00    +0.000 C 
ATOM     28  N   UNL     1      51.157   4.225  19.288  0.00  0.00    +0.000 N 
ATOM     29  O   UNL     1      51.981   2.864  17.669  0.00  0.00    +0.000 OA
ATOM     30  H   UNL     1      50.383   4.808  19.592  0.00  0.00    +0.000 HD
ATOM     31  H   UNL     1      51.972   4.105  19.870  0.00  0.00    +0.000 HD
ENDBRANCH  24  27
ENDBRANCH  19  21
ENDBRANCH   1  19
TORSDOF 6
ENDMDL
MODEL 9
REMARK VINA RESULT:    -5.696      3.383      6.370
REMARK INTER + INTRA:          -8.823
REMARK INTER:                  -7.883
REMARK INTRA:                  -0.940
REMARK UNBOUND:                -1.130
REMARK  Name = 
REMARK  8 active torsions:
REMARK  status: ('A' for Active; 'I' for Inactive)
REMARK    1  A    between atoms: C_1  and  O_2
REMARK    2  A    between atoms: O_2  and  C_3
REMARK    3  A    between atoms: C_6  and  C_7
REMARK    4  A    between atoms: C_7  and  N_8
REMARK    5  A    between atoms: N_8  and  C_9
REMARK    6  A    between atoms: C_12  and  C_13
REMARK    7  A    between atoms: C_21  and  C_22
REMARK    8  A    between atoms: C_25  and  C_26
REMARK                            x       y       z     vdW  Elec       q    Type
REMARK                         _______ _______ _______ _____ _____    ______ ____
ROOT
ATOM      1  C   UNL     1      48.063   8.428  13.128  0.00  0.00    +0.000 C 
ATOM      2  C   UNL     1      48.277   8.916  11.709  0.00  0.00    +0.000 C 
ATOM      3  C   UNL     1      47.984   9.919  12.771  0.00  0.00    +0.000 C 
ENDROOT
BRANCH   1   7
ATOM      4  C   UNL     1      51.455   7.347  15.665  0.00  0.00    +0.000 A 
ATOM      5  C   UNL     1      51.661   8.062  14.476  0.00  0.00    +0.000 A 
ATOM      6  C   UNL     1      50.587   8.397  13.639  0.00  0.00    +0.000 A 
ATOM      7  C   UNL     1      49.285   7.981  13.928  0.00  0.00    +0.000 A 
ATOM      8  C   UNL     1      49.123   7.177  15.063  0.00  0.00    +0.000 A 
ATOM      9  C   UNL     1      50.151   6.921  15.997  0.00  0.00    +0.000 A 
BRANCH   9  10
ATOM     10  C   UNL     1      49.754   6.313  17.291  0.00  0.00    +0.000 A 
ATOM     11  C   UNL     1      49.796   4.916  17.458  0.00  0.00    +0.000 A 
ATOM     12  C   UNL     1      49.481   4.320  18.676  0.00  0.00    +0.000 A 
ATOM     13  C   UNL     1      49.094   5.132  19.726  0.00  0.00    +0.000 A 
ATOM     14  C   UNL     1      48.760   4.540  21.061  0.00  0.00    +0.000 C 
ATOM     15  N   UNL     1      49.007   6.478  19.609  0.00  0.00    +0.000 NA
ATOM     16  C   UNL     1      49.334   7.028  18.408  0.00  0.00    +0.000 A 
ENDBRANCH   9  10
BRANCH   4  18
ATOM     17  C   UNL     1      53.679   6.551  16.048  0.00  0.00    +0.000 C 
ATOM     18  O   UNL     1      52.453   7.061  16.559  0.00  0.00    +0.000 OA
ENDBRANCH   4  18
ENDBRANCH   1   7
BRANCH   1  19
ATOM     19  N   UNL     1      46.795   7.853  13.585  0.00  0.00    +0.000 N 
ATOM     20  H   UNL     1      46.273   8.372  14.283  0.00  0.00    +0.000 HD
BRANCH  19  21
ATOM     21  C   UNL     1      46.068   6.834  12.955  0.00  0.00    +0.000 A 
ATOM     22  C   UNL     1      45.021   7.054  12.060  0.00  0.00    +0.000 A 
ATOM     23  C   UNL     1      44.383   5.970  11.445  0.00  0.00    +0.000 A 
ATOM     24  C   UNL     1      44.833   4.691  11.731  0.00  0.00    +0.000 A 
ATOM     25  N   UNL     1      45.864   4.423  12.573  0.00  0.00    +0.000 NA
ATOM     26  C   UNL     1      46.454   5.501  13.142  0.00  0.00    +0.000 A 
BRANCH  24  27
ATOM     27  C   UNL     1      44.164   3.504  11.112  0.00  0.00    +0.000 C 
ATOM     28  N   UNL     1      45.000   2.651  10.442  0.00  0.00    +0.000 N 
ATOM     29  O   UNL     1      42.957   3.306  11.187  0.00  0.00    +0.000 OA
ATOM     30  H   UNL     1      45.995   2.853  10.408  0.00  0.00    +0.000 HD
ATOM     31  H   UNL     1      44.626   1.823  10.003  0.00  0.00    +0.000 HD
ENDBRANCH  24  27
ENDBRANCH  19  21
ENDBRANCH   1  19
TORSDOF 6
ENDMDL
