MODEL 1
REMARK VINA RESULT:    -8.717      0.000      0.000
REMARK INTER + INTRA:         -12.899
REMARK INTER:                 -11.774
REMARK INTRA:                  -1.125
REMARK UNBOUND:                -1.125
REMARK  Name = 
REMARK  7 active torsions:
REMARK  status: ('A' for Active; 'I' for Inactive)
REMARK    1  A    between atoms: C_1  and  O_2
REMARK    2  A    between atoms: O_2  and  C_3
REMARK    3  A    between atoms: C_5  and  C_6
REMARK    4  A    between atoms: C_6  and  N_7
REMARK    5  A    between atoms: C_8  and  C_10
REMARK    6  A    between atoms: C_22  and  C_23
REMARK    7  A    between atoms: C_23  and  N_24
REMARK                            x       y       z     vdW  Elec       q    Type
REMARK                         _______ _______ _______ _____ _____    ______ ____
ROOT
ATOM      1  C   UNL     1      44.243   5.724  11.986  0.00  0.00    +0.000 A 
ATOM      2  C   UNL     1      44.981   6.564  12.824  0.00  0.00    +0.000 A 
ATOM      3  C   UNL     1      46.228   7.050  12.426  0.00  0.00    +0.000 A 
ATOM      4  C   UNL     1      46.682   6.679  11.167  0.00  0.00    +0.000 A 
ATOM      5  N   UNL     1      46.008   5.858  10.332  0.00  0.00    +0.000 NA
ATOM      6  C   UNL     1      44.801   5.374  10.751  0.00  0.00    +0.000 A 
ENDROOT
BRANCH   1   8
ATOM      7  C   UNL     1      43.014   4.173  13.283  0.00  0.00    +0.000 C 
ATOM      8  O   UNL     1      43.015   5.213  12.307  0.00  0.00    +0.000 OA
ENDBRANCH   1   8
BRANCH   3   9
ATOM      9  C   UNL     1      47.025   7.949  13.318  0.00  0.00    +0.000 C 
BRANCH   9  10
ATOM     10  N   UNL     1      47.482   7.263  14.499  0.00  0.00    +0.000 N 
ATOM     11  C   UNL     1      48.770   6.823  14.658  0.00  0.00    +0.000 C 
ATOM     12  O   UNL     1      49.620   6.960  13.781  0.00  0.00    +0.000 OA
ATOM     13  H   UNL     1      46.769   6.961  15.158  0.00  0.00    +0.000 HD
BRANCH  11  14
ATOM     14  C   UNL     1      49.106   6.233  15.963  0.00  0.00    +0.000 A 
ATOM     15  C   UNL     1      50.124   6.791  16.724  0.00  0.00    +0.000 A 
ATOM     16  S   UNL     1      50.354   6.025  18.229  0.00  0.00    +0.000 S 
ATOM     17  C   UNL     1      49.132   4.889  17.899  0.00  0.00    +0.000 A 
ATOM     18  N   UNL     1      48.831   3.909  18.793  0.00  0.00    +0.000 NA
ATOM     19  C   UNL     1      47.912   3.093  18.400  0.00  0.00    +0.000 A 
ATOM     20  N   UNL     1      47.257   3.174  17.198  0.00  0.00    +0.000 N 
ATOM     21  C   UNL     1      47.485   4.181  16.291  0.00  0.00    +0.000 A 
ATOM     22  O   UNL     1      46.810   4.286  15.272  0.00  0.00    +0.000 OA
ATOM     23  C   UNL     1      48.540   5.104  16.667  0.00  0.00    +0.000 A 
ATOM     24  H   UNL     1      46.530   2.515  16.962  0.00  0.00    +0.000 HD
ENDBRANCH  11  14
ENDBRANCH   9  10
ENDBRANCH   3   9
BRANCH   6  25
ATOM     25  C   UNL     1      44.077   4.442   9.787  0.00  0.00    +0.000 C 
BRANCH  25  26
ATOM     26  N   UNL     1      44.699   4.444   8.473  0.00  0.00    +0.000 N 
ATOM     27  C   UNL     1      45.598   3.468   8.096  0.00  0.00    +0.000 A 
ATOM     28  C   UNL     1      45.541   2.151   8.542  0.00  0.00    +0.000 A 
ATOM     29  C   UNL     1      46.441   1.209   8.041  0.00  0.00    +0.000 A 
ATOM     30  C   UNL     1      47.369   1.599   7.089  0.00  0.00    +0.000 A 
ATOM     31  C   UNL     1      47.362   2.923   6.694  0.00  0.00    +0.000 A 
ATOM     32  N   UNL     1      46.510   3.854   7.181  0.00  0.00    +0.000 NA
ATOM     33  H   UNL     1      45.034   5.344   8.144  0.00  0.00    +0.000 HD
ENDBRANCH  25  26
ENDBRANCH   6  25
TORSDOF 6
ENDMDL
MODEL 2
REMARK VINA RESULT:    -8.060      2.418      4.107
REMARK INTER + INTRA:         -12.012
REMARK INTER:                 -10.513
REMARK INTRA:                  -1.499
REMARK UNBOUND:                -1.125
REMARK  Name = 
REMARK  7 active torsions:
REMARK  status: ('A' for Active; 'I' for Inactive)
REMARK    1  A    between atoms: C_1  and  O_2
REMARK    2  A    between atoms: O_2  and  C_3
REMARK    3  A    between atoms: C_5  and  C_6
REMARK    4  A    between atoms: C_6  and  N_7
REMARK    5  A    between atoms: C_8  and  C_10
REMARK    6  A    between atoms: C_22  and  C_23
REMARK    7  A    between atoms: C_23  and  N_24
REMARK                            x       y       z     vdW  Elec       q    Type
REMARK                         _______ _______ _______ _____ _____    ______ ____
ROOT
ATOM      1  C   UNL     1      44.936   5.630  12.037  0.00  0.00    +0.000 A 
ATOM      2  C   UNL     1      45.827   5.858  13.089  0.00  0.00    +0.000 A 
ATOM      3  C   UNL     1      46.428   4.790  13.757  0.00  0.00    +0.000 A 
ATOM      4  C   UNL     1      46.118   3.510  13.318  0.00  0.00    +0.000 A 
ATOM      5  N   UNL     1      45.251   3.243  12.315  0.00  0.00    +0.000 NA
ATOM      6  C   UNL     1      44.655   4.302  11.691  0.00  0.00    +0.000 A 
ENDROOT
BRANCH   1   8
ATOM      7  C   UNL     1      44.835   7.938  11.525  0.00  0.00    +0.000 C 
ATOM      8  O   UNL     1      44.312   6.625  11.335  0.00  0.00    +0.000 OA
ENDBRANCH   1   8
BRANCH   3   9
ATOM      9  C   UNL     1      47.383   5.026  14.885  0.00  0.00    +0.000 C 
BRANCH   9  10
ATOM     10  N   UNL     1      47.931   6.358  14.852  0.00  0.00    +0.000 N 
ATOM     11  C   UNL     1      49.117   6.694  15.452  0.00  0.00    +0.000 C 
ATOM     12  O   UNL     1      49.781   5.879  16.087  0.00  0.00    +0.000 OA
ATOM     13  H   UNL     1      47.323   7.095  14.506  0.00  0.00    +0.000 HD
BRANCH  11  14
ATOM     14  C   UNL     1      49.592   8.070  15.240  0.00  0.00    +0.000 A 
ATOM     15  C   UNL     1      50.017   8.821  16.328  0.00  0.00    +0.000 A 
ATOM     16  S   UNL     1      50.584  10.373  15.909  0.00  0.00    +0.000 S 
ATOM     17  C   UNL     1      50.238  10.116  14.264  0.00  0.00    +0.000 A 
ATOM     18  N   UNL     1      50.472  11.087  13.342  0.00  0.00    +0.000 NA
ATOM     19  C   UNL     1      50.130  10.774  12.137  0.00  0.00    +0.000 A 
ATOM     20  N   UNL     1      49.585   9.571  11.769  0.00  0.00    +0.000 N 
ATOM     21  C   UNL     1      49.388   8.539  12.655  0.00  0.00    +0.000 A 
ATOM     22  O   UNL     1      48.995   7.439  12.276  0.00  0.00    +0.000 OA
ATOM     23  C   UNL     1      49.719   8.854  14.032  0.00  0.00    +0.000 A 
ATOM     24  H   UNL     1      49.360   9.380  10.804  0.00  0.00    +0.000 HD
ENDBRANCH  11  14
ENDBRANCH   9  10
ENDBRANCH   3   9
BRANCH   6  25
ATOM     25  C   UNL     1      43.676   3.962  10.575  0.00  0.00    +0.000 C 
BRANCH  25  26
ATOM     26  N   UNL     1      44.199   4.338   9.271  0.00  0.00    +0.000 N 
ATOM     27  C   UNL     1      45.179   3.599   8.644  0.00  0.00    +0.000 A 
ATOM     28  C   UNL     1      45.313   2.220   8.778  0.00  0.00    +0.000 A 
ATOM     29  C   UNL     1      46.282   1.541   8.038  0.00  0.00    +0.000 A 
ATOM     30  C   UNL     1      47.086   2.253   7.163  0.00  0.00    +0.000 A 
ATOM     31  C   UNL     1      46.893   3.618   7.082  0.00  0.00    +0.000 A 
ATOM     32  N   UNL     1      45.972   4.297   7.805  0.00  0.00    +0.000 NA
ATOM     33  H   UNL     1      44.398   5.325   9.144  0.00  0.00    +0.000 HD
ENDBRANCH  25  26
ENDBRANCH   6  25
TORSDOF 6
ENDMDL
MODEL 3
REMARK VINA RESULT:    -7.686      1.749      2.400
REMARK INTER + INTRA:         -11.506
REMARK INTER:                 -10.702
REMARK INTRA:                  -0.804
REMARK UNBOUND:                -1.125
REMARK  Name = 
REMARK  7 active torsions:
REMARK  status: ('A' for Active; 'I' for Inactive)
REMARK    1  A    between atoms: C_1  and  O_2
REMARK    2  A    between atoms: O_2  and  C_3
REMARK    3  A    between atoms: C_5  and  C_6
REMARK    4  A    between atoms: C_6  and  N_7
REMARK    5  A    between atoms: C_8  and  C_10
REMARK    6  A    between atoms: C_22  and  C_23
REMARK    7  A    between atoms: C_23  and  N_24
REMARK                            x       y       z     vdW  Elec       q    Type
REMARK                         _______ _______ _______ _____ _____    ______ ____
ROOT
ATOM      1  C   UNL     1      45.090   4.820  12.513  0.00  0.00    +0.000 A 
ATOM      2  C   UNL     1      45.992   5.531  13.309  0.00  0.00    +0.000 A 
ATOM      3  C   UNL     1      46.853   6.472  12.741  0.00  0.00    +0.000 A 
ATOM      4  C   UNL     1      46.756   6.678  11.372  0.00  0.00    +0.000 A 
ATOM      5  N   UNL     1      45.909   6.002  10.563  0.00  0.00    +0.000 NA
ATOM      6  C   UNL     1      45.093   5.068  11.135  0.00  0.00    +0.000 A 
ENDROOT
BRANCH   1   8
ATOM      7  C   UNL     1      43.023   4.404  13.589  0.00  0.00    +0.000 C 
ATOM      8  O   UNL     1      44.215   3.887  12.999  0.00  0.00    +0.000 OA
ENDBRANCH   1   8
BRANCH   3   9
ATOM      9  C   UNL     1      47.823   7.237  13.586  0.00  0.00    +0.000 C 
BRANCH   9  10
ATOM     10  N   UNL     1      48.420   6.407  14.601  0.00  0.00    +0.000 N 
ATOM     11  C   UNL     1      48.753   6.871  15.846  0.00  0.00    +0.000 C 
ATOM     12  O   UNL     1      48.591   8.044  16.171  0.00  0.00    +0.000 OA
ATOM     13  H   UNL     1      48.745   5.489  14.309  0.00  0.00    +0.000 HD
BRANCH  11  14
ATOM     14  C   UNL     1      49.258   5.875  16.804  0.00  0.00    +0.000 A 
ATOM     15  C   UNL     1      48.357   5.109  17.532  0.00  0.00    +0.000 A 
ATOM     16  S   UNL     1      49.100   3.968  18.558  0.00  0.00    +0.000 S 
ATOM     17  C   UNL     1      50.654   4.488  18.102  0.00  0.00    +0.000 A 
ATOM     18  N   UNL     1      51.765   3.923  18.645  0.00  0.00    +0.000 NA
ATOM     19  C   UNL     1      52.878   4.437  18.239  0.00  0.00    +0.000 A 
ATOM     20  N   UNL     1      52.980   5.459  17.330  0.00  0.00    +0.000 N 
ATOM     21  C   UNL     1      51.888   6.018  16.711  0.00  0.00    +0.000 A 
ATOM     22  O   UNL     1      52.018   6.858  15.826  0.00  0.00    +0.000 OA
ATOM     23  C   UNL     1      50.608   5.503  17.162  0.00  0.00    +0.000 A 
ATOM     24  H   UNL     1      53.883   5.800  17.038  0.00  0.00    +0.000 HD
ENDBRANCH  11  14
ENDBRANCH   9  10
ENDBRANCH   3   9
BRANCH   6  25
ATOM     25  C   UNL     1      44.161   4.319  10.191  0.00  0.00    +0.000 C 
BRANCH  25  26
ATOM     26  N   UNL     1      44.614   4.406   8.812  0.00  0.00    +0.000 N 
ATOM     27  C   UNL     1      45.496   3.490   8.280  0.00  0.00    +0.000 A 
ATOM     28  C   UNL     1      45.548   2.153   8.664  0.00  0.00    +0.000 A 
ATOM     29  C   UNL     1      46.415   1.276   8.011  0.00  0.00    +0.000 A 
ATOM     30  C   UNL     1      47.201   1.749   6.973  0.00  0.00    +0.000 A 
ATOM     31  C   UNL     1      47.093   3.087   6.647  0.00  0.00    +0.000 A 
ATOM     32  N   UNL     1      46.272   3.957   7.280  0.00  0.00    +0.000 NA
ATOM     33  H   UNL     1      44.869   5.335   8.489  0.00  0.00    +0.000 HD
ENDBRANCH  25  26
ENDBRANCH   6  25
TORSDOF 6
ENDMDL
MODEL 4
REMARK VINA RESULT:    -7.642      3.623      5.060
REMARK INTER + INTRA:         -11.448
REMARK INTER:                 -10.415
REMARK INTRA:                  -1.032
REMARK UNBOUND:                -1.125
REMARK  Name = 
REMARK  7 active torsions:
REMARK  status: ('A' for Active; 'I' for Inactive)
REMARK    1  A    between atoms: C_1  and  O_2
REMARK    2  A    between atoms: O_2  and  C_3
REMARK    3  A    between atoms: C_5  and  C_6
REMARK    4  A    between atoms: C_6  and  N_7
REMARK    5  A    between atoms: C_8  and  C_10
REMARK    6  A    between atoms: C_22  and  C_23
REMARK    7  A    between atoms: C_23  and  N_24
REMARK                            x       y       z     vdW  Elec       q    Type
REMARK                         _______ _______ _______ _____ _____    ______ ____
ROOT
ATOM      1  C   UNL     1      45.136   4.685  12.538  0.00  0.00    +0.000 A 
ATOM      2  C   UNL     1      45.584   5.936  12.971  0.00  0.00    +0.000 A 
ATOM      3  C   UNL     1      45.103   7.107  12.382  0.00  0.00    +0.000 A 
ATOM      4  C   UNL     1      44.158   6.970  11.376  0.00  0.00    +0.000 A 
ATOM      5  N   UNL     1      43.708   5.780  10.916  0.00  0.00    +0.000 NA
ATOM      6  C   UNL     1      44.210   4.647  11.489  0.00  0.00    +0.000 A 
ENDROOT
BRANCH   1   8
ATOM      7  C   UNL     1      46.870   3.502  13.631  0.00  0.00    +0.000 C 
ATOM      8  O   UNL     1      45.559   3.497  13.068  0.00  0.00    +0.000 OA
ENDBRANCH   1   8
BRANCH   3   9
ATOM      9  C   UNL     1      45.580   8.450  12.839  0.00  0.00    +0.000 C 
BRANCH   9  10
ATOM     10  N   UNL     1      46.848   8.797  12.252  0.00  0.00    +0.000 N 
ATOM     11  C   UNL     1      47.237  10.091  12.021  0.00  0.00    +0.000 C 
ATOM     12  O   UNL     1      46.509  11.047  12.276  0.00  0.00    +0.000 OA
ATOM     13  H   UNL     1      47.391   8.036  11.853  0.00  0.00    +0.000 HD
BRANCH  11  14
ATOM     14  C   UNL     1      48.604  10.284  11.512  0.00  0.00    +0.000 A 
ATOM     15  C   UNL     1      48.857  11.302  10.603  0.00  0.00    +0.000 A 
ATOM     16  S   UNL     1      50.496  11.425  10.151  0.00  0.00    +0.000 S 
ATOM     17  C   UNL     1      50.920  10.092  11.118  0.00  0.00    +0.000 A 
ATOM     18  N   UNL     1      52.203   9.646  11.165  0.00  0.00    +0.000 NA
ATOM     19  C   UNL     1      52.379   8.605  11.908  0.00  0.00    +0.000 A 
ATOM     20  N   UNL     1      51.388   7.976  12.617  0.00  0.00    +0.000 N 
ATOM     21  C   UNL     1      50.091   8.427  12.647  0.00  0.00    +0.000 A 
ATOM     22  O   UNL     1      49.250   7.905  13.372  0.00  0.00    +0.000 OA
ATOM     23  C   UNL     1      49.830   9.573  11.795  0.00  0.00    +0.000 A 
ATOM     24  H   UNL     1      51.597   7.178  13.198  0.00  0.00    +0.000 HD
ENDBRANCH  11  14
ENDBRANCH   9  10
ENDBRANCH   3   9
BRANCH   6  25
ATOM     25  C   UNL     1      43.688   3.326  10.937  0.00  0.00    +0.000 C 
BRANCH  25  26
ATOM     26  N   UNL     1      44.775   2.455  10.517  0.00  0.00    +0.000 N 
ATOM     27  C   UNL     1      45.338   2.556   9.263  0.00  0.00    +0.000 A 
ATOM     28  C   UNL     1      45.449   3.751   8.558  0.00  0.00    +0.000 A 
ATOM     29  C   UNL     1      46.113   3.774   7.330  0.00  0.00    +0.000 A 
ATOM     30  C   UNL     1      46.670   2.604   6.840  0.00  0.00    +0.000 A 
ATOM     31  C   UNL     1      46.521   1.458   7.597  0.00  0.00    +0.000 A 
ATOM     32  N   UNL     1      45.866   1.412   8.780  0.00  0.00    +0.000 NA
ATOM     33  H   UNL     1      44.670   1.474  10.754  0.00  0.00    +0.000 HD
ENDBRANCH  25  26
ENDBRANCH   6  25
TORSDOF 6
ENDMDL
MODEL 5
REMARK VINA RESULT:    -7.396      1.850      2.237
REMARK INTER + INTRA:         -11.114
REMARK INTER:                  -9.929
REMARK INTRA:                  -1.185
REMARK UNBOUND:                -1.125
REMARK  Name = 
REMARK  7 active torsions:
REMARK  status: ('A' for Active; 'I' for Inactive)
REMARK    1  A    between atoms: C_1  and  O_2
REMARK    2  A    between atoms: O_2  and  C_3
REMARK    3  A    between atoms: C_5  and  C_6
REMARK    4  A    between atoms: C_6  and  N_7
REMARK    5  A    between atoms: C_8  and  C_10
REMARK    6  A    between atoms: C_22  and  C_23
REMARK    7  A    between atoms: C_23  and  N_24
REMARK                            x       y       z     vdW  Elec       q    Type
REMARK                         _______ _______ _______ _____ _____    ______ ____
ROOT
ATOM      1  C   UNL     1      45.248   7.528  12.053  0.00  0.00    +0.000 A 
ATOM      2  C   UNL     1      46.171   8.206  12.853  0.00  0.00    +0.000 A 
ATOM      3  C   UNL     1      47.141   7.504  13.572  0.00  0.00    +0.000 A 
ATOM      4  C   UNL     1      47.155   6.123  13.438  0.00  0.00    +0.000 A 
ATOM      5  N   UNL     1      46.273   5.426  12.688  0.00  0.00    +0.000 NA
ATOM      6  C   UNL     1      45.317   6.130  12.012  0.00  0.00    +0.000 A 
ENDROOT
BRANCH   1   8
ATOM      7  C   UNL     1      44.403   9.562  11.189  0.00  0.00    +0.000 C 
ATOM      8  O   UNL     1      44.274   8.147  11.319  0.00  0.00    +0.000 OA
ENDBRANCH   1   8
BRANCH   3   9
ATOM      9  C   UNL     1      48.132   8.223  14.432  0.00  0.00    +0.000 C 
BRANCH   9  10
ATOM     10  N   UNL     1      49.081   7.318  15.027  0.00  0.00    +0.000 N 
ATOM     11  C   UNL     1      49.345   7.287  16.372  0.00  0.00    +0.000 C 
ATOM     12  O   UNL     1      48.805   8.058  17.161  0.00  0.00    +0.000 OA
ATOM     13  H   UNL     1      49.684   6.804  14.391  0.00  0.00    +0.000 HD
BRANCH  11  14
ATOM     14  C   UNL     1      50.263   6.236  16.837  0.00  0.00    +0.000 A 
ATOM     15  C   UNL     1      51.566   6.569  17.180  0.00  0.00    +0.000 A 
ATOM     16  S   UNL     1      52.484   5.249  17.747  0.00  0.00    +0.000 S 
ATOM     17  C   UNL     1      51.187   4.174  17.509  0.00  0.00    +0.000 A 
ATOM     18  N   UNL     1      51.321   2.850  17.784  0.00  0.00    +0.000 NA
ATOM     19  C   UNL     1      50.273   2.142  17.524  0.00  0.00    +0.000 A 
ATOM     20  N   UNL     1      49.098   2.642  17.023  0.00  0.00    +0.000 N 
ATOM     21  C   UNL     1      48.898   3.981  16.787  0.00  0.00    +0.000 A 
ATOM     22  O   UNL     1      47.803   4.411  16.438  0.00  0.00    +0.000 OA
ATOM     23  C   UNL     1      50.061   4.817  17.026  0.00  0.00    +0.000 A 
ATOM     24  H   UNL     1      48.307   2.037  16.862  0.00  0.00    +0.000 HD
ENDBRANCH  11  14
ENDBRANCH   9  10
ENDBRANCH   3   9
BRANCH   6  25
ATOM     25  C   UNL     1      44.333   5.310  11.187  0.00  0.00    +0.000 C 
BRANCH  25  26
ATOM     26  N   UNL     1      44.651   5.362   9.769  0.00  0.00    +0.000 N 
ATOM     27  C   UNL     1      45.243   4.299   9.121  0.00  0.00    +0.000 A 
ATOM     28  C   UNL     1      45.030   2.967   9.464  0.00  0.00    +0.000 A 
ATOM     29  C   UNL     1      45.604   1.952   8.698  0.00  0.00    +0.000 A 
ATOM     30  C   UNL     1      46.367   2.289   7.591  0.00  0.00    +0.000 A 
ATOM     31  C   UNL     1      46.532   3.632   7.312  0.00  0.00    +0.000 A 
ATOM     32  N   UNL     1      45.998   4.630   8.053  0.00  0.00    +0.000 NA
ATOM     33  H   UNL     1      45.075   6.225   9.444  0.00  0.00    +0.000 HD
ENDBRANCH  25  26
ENDBRANCH   6  25
TORSDOF 6
ENDMDL
MODEL 6
REMARK VINA RESULT:    -7.201      2.984      4.168
REMARK INTER + INTRA:         -10.852
REMARK INTER:                  -9.549
REMARK INTRA:                  -1.303
REMARK UNBOUND:                -1.125
REMARK  Name = 
REMARK  7 active torsions:
REMARK  status: ('A' for Active; 'I' for Inactive)
REMARK    1  A    between atoms: C_1  and  O_2
REMARK    2  A    between atoms: O_2  and  C_3
REMARK    3  A    between atoms: C_5  and  C_6
REMARK    4  A    between atoms: C_6  and  N_7
REMARK    5  A    between atoms: C_8  and  C_10
REMARK    6  A    between atoms: C_22  and  C_23
REMARK    7  A    between atoms: C_23  and  N_24
REMARK                            x       y       z     vdW  Elec       q    Type
REMARK                         _______ _______ _______ _____ _____    ______ ____
ROOT
ATOM      1  C   UNL     1      44.959   5.756  11.897  0.00  0.00    +0.000 A 
ATOM      2  C   UNL     1      45.877   6.170  12.865  0.00  0.00    +0.000 A 
ATOM      3  C   UNL     1      46.556   5.234  13.648  0.00  0.00    +0.000 A 
ATOM      4  C   UNL     1      46.294   3.893  13.405  0.00  0.00    +0.000 A 
ATOM      5  N   UNL     1      45.404   3.449  12.490  0.00  0.00    +0.000 NA
ATOM      6  C   UNL     1      44.732   4.382  11.752  0.00  0.00    +0.000 A 
ENDROOT
BRANCH   1   8
ATOM      7  C   UNL     1      44.467   8.003  11.340  0.00  0.00    +0.000 C 
ATOM      8  O   UNL     1      44.259   6.614  11.092  0.00  0.00    +0.000 OA
ENDBRANCH   1   8
BRANCH   3   9
ATOM      9  C   UNL     1      47.540   5.669  14.688  0.00  0.00    +0.000 C 
BRANCH   9  10
ATOM     10  N   UNL     1      48.651   6.381  14.110  0.00  0.00    +0.000 N 
ATOM     11  C   UNL     1      48.748   7.748  14.115  0.00  0.00    +0.000 C 
ATOM     12  O   UNL     1      47.870   8.463  14.591  0.00  0.00    +0.000 OA
ATOM     13  H   UNL     1      49.295   5.839  13.540  0.00  0.00    +0.000 HD
BRANCH  11  14
ATOM     14  C   UNL     1      49.993   8.319  13.577  0.00  0.00    +0.000 A 
ATOM     15  C   UNL     1      49.951   9.076  12.414  0.00  0.00    +0.000 A 
ATOM     16  S   UNL     1      51.466   9.707  11.952  0.00  0.00    +0.000 S 
ATOM     17  C   UNL     1      52.241   8.953  13.265  0.00  0.00    +0.000 A 
ATOM     18  N   UNL     1      53.583   9.075  13.445  0.00  0.00    +0.000 NA
ATOM     19  C   UNL     1      54.047   8.422  14.457  0.00  0.00    +0.000 A 
ATOM     20  N   UNL     1      53.288   7.667  15.313  0.00  0.00    +0.000 N 
ATOM     21  C   UNL     1      51.922   7.564  15.206  0.00  0.00    +0.000 A 
ATOM     22  O   UNL     1      51.259   6.966  16.048  0.00  0.00    +0.000 OA
ATOM     23  C   UNL     1      51.354   8.248  14.058  0.00  0.00    +0.000 A 
ATOM     24  H   UNL     1      53.711   7.199  16.101  0.00  0.00    +0.000 HD
ENDBRANCH  11  14
ENDBRANCH   9  10
ENDBRANCH   3   9
BRANCH   6  25
ATOM     25  C   UNL     1      43.728   3.845  10.739  0.00  0.00    +0.000 C 
BRANCH  25  26
ATOM     26  N   UNL     1      44.102   4.195   9.379  0.00  0.00    +0.000 N 
ATOM     27  C   UNL     1      45.084   3.507   8.698  0.00  0.00    +0.000 A 
ATOM     28  C   UNL     1      45.347   2.151   8.880  0.00  0.00    +0.000 A 
ATOM     29  C   UNL     1      46.302   1.517   8.086  0.00  0.00    +0.000 A 
ATOM     30  C   UNL     1      46.964   2.245   7.111  0.00  0.00    +0.000 A 
ATOM     31  C   UNL     1      46.648   3.585   6.988  0.00  0.00    +0.000 A 
ATOM     32  N   UNL     1      45.739   4.222   7.761  0.00  0.00    +0.000 NA
ATOM     33  H   UNL     1      44.205   5.187   9.191  0.00  0.00    +0.000 HD
ENDBRANCH  25  26
ENDBRANCH   6  25
TORSDOF 6
ENDMDL
MODEL 7
REMARK VINA RESULT:    -7.018      3.358      8.147
REMARK INTER + INTRA:         -10.604
REMARK INTER:                  -9.220
REMARK INTRA:                  -1.384
REMARK UNBOUND:                -1.125
REMARK  Name = 
REMARK  7 active torsions:
REMARK  status: ('A' for Active; 'I' for Inactive)
REMARK    1  A    between atoms: C_1  and  O_2
REMARK    2  A    between atoms: O_2  and  C_3
REMARK    3  A    between atoms: C_5  and  C_6
REMARK    4  A    between atoms: C_6  and  N_7
REMARK    5  A    between atoms: C_8  and  C_10
REMARK    6  A    between atoms: C_22  and  C_23
REMARK    7  A    between atoms: C_23  and  N_24
REMARK                            x       y       z     vdW  Elec       q    Type
REMARK                         _______ _______ _______ _____ _____    ______ ____
ROOT
ATOM      1  C   UNL     1      48.612   5.464  16.624  0.00  0.00    +0.000 A 
ATOM      2  C   UNL     1      48.111   5.984  15.428  0.00  0.00    +0.000 A 
ATOM      3  C   UNL     1      48.886   6.842  14.645  0.00  0.00    +0.000 A 
ATOM      4  C   UNL     1      50.166   7.130  15.095  0.00  0.00    +0.000 A 
ATOM      5  N   UNL     1      50.686   6.661  16.251  0.00  0.00    +0.000 NA
ATOM      6  C   UNL     1      49.902   5.844  17.015  0.00  0.00    +0.000 A 
ENDROOT
BRANCH   1   8
ATOM      7  C   UNL     1      47.229   3.551  16.786  0.00  0.00    +0.000 C 
ATOM      8  O   UNL     1      47.913   4.617  17.440  0.00  0.00    +0.000 OA
ENDBRANCH   1   8
BRANCH   3   9
ATOM      9  C   UNL     1      48.355   7.405  13.363  0.00  0.00    +0.000 C 
BRANCH   9  10
ATOM     10  N   UNL     1      47.531   6.454  12.662  0.00  0.00    +0.000 N 
ATOM     11  C   UNL     1      46.450   6.818  11.902  0.00  0.00    +0.000 C 
ATOM     12  O   UNL     1      46.092   7.988  11.793  0.00  0.00    +0.000 OA
ATOM     13  H   UNL     1      47.676   5.472  12.882  0.00  0.00    +0.000 HD
BRANCH  11  14
ATOM     14  C   UNL     1      45.774   5.739  11.165  0.00  0.00    +0.000 A 
ATOM     15  C   UNL     1      45.884   5.683   9.782  0.00  0.00    +0.000 A 
ATOM     16  S   UNL     1      45.086   4.347   9.085  0.00  0.00    +0.000 S 
ATOM     17  C   UNL     1      44.526   3.820  10.601  0.00  0.00    +0.000 A 
ATOM     18  N   UNL     1      43.743   2.714  10.709  0.00  0.00    +0.000 NA
ATOM     19  C   UNL     1      43.357   2.448  11.912  0.00  0.00    +0.000 A 
ATOM     20  N   UNL     1      43.692   3.184  13.019  0.00  0.00    +0.000 N 
ATOM     21  C   UNL     1      44.529   4.273  12.966  0.00  0.00    +0.000 A 
ATOM     22  O   UNL     1      44.893   4.848  13.988  0.00  0.00    +0.000 OA
ATOM     23  C   UNL     1      44.959   4.639  11.629  0.00  0.00    +0.000 A 
ATOM     24  H   UNL     1      43.375   2.908  13.937  0.00  0.00    +0.000 HD
ENDBRANCH  11  14
ENDBRANCH   9  10
ENDBRANCH   3   9
BRANCH   6  25
ATOM     25  C   UNL     1      50.517   5.345  18.317  0.00  0.00    +0.000 C 
BRANCH  25  26
ATOM     26  N   UNL     1      50.484   3.893  18.402  0.00  0.00    +0.000 N 
ATOM     27  C   UNL     1      51.573   3.123  18.054  0.00  0.00    +0.000 A 
ATOM     28  C   UNL     1      52.894   3.533  18.216  0.00  0.00    +0.000 A 
ATOM     29  C   UNL     1      53.935   2.654  17.917  0.00  0.00    +0.000 A 
ATOM     30  C   UNL     1      53.635   1.374  17.477  0.00  0.00    +0.000 A 
ATOM     31  C   UNL     1      52.301   1.040  17.343  0.00  0.00    +0.000 A 
ATOM     32  N   UNL     1      51.279   1.884  17.611  0.00  0.00    +0.000 NA
ATOM     33  H   UNL     1      49.641   3.450  18.050  0.00  0.00    +0.000 HD
ENDBRANCH  25  26
ENDBRANCH   6  25
TORSDOF 6
ENDMDL
MODEL 8
REMARK VINA RESULT:    -6.957      3.331      8.349
REMARK INTER + INTRA:         -10.521
REMARK INTER:                  -9.325
REMARK INTRA:                  -1.196
REMARK UNBOUND:                -1.125
REMARK  Name = 
REMARK  7 active torsions:
REMARK  status: ('A' for Active; 'I' for Inactive)
REMARK    1  A    between atoms: C_1  and  O_2
REMARK    2  A    between atoms: O_2  and  C_3
REMARK    3  A    between atoms: C_5  and  C_6
REMARK    4  A    between atoms: C_6  and  N_7
REMARK    5  A    between atoms: C_8  and  C_10
REMARK    6  A    between atoms: C_22  and  C_23
REMARK    7  A    between atoms: C_23  and  N_24
REMARK                            x       y       z     vdW  Elec       q    Type
REMARK                         _______ _______ _______ _____ _____    ______ ____
ROOT
ATOM      1  C   UNL     1      50.498   7.322  15.908  0.00  0.00    +0.000 A 
ATOM      2  C   UNL     1      49.991   7.758  14.681  0.00  0.00    +0.000 A 
ATOM      3  C   UNL     1      48.875   7.140  14.111  0.00  0.00    +0.000 A 
ATOM      4  C   UNL     1      48.292   6.102  14.824  0.00  0.00    +0.000 A 
ATOM      5  N   UNL     1      48.757   5.639  16.005  0.00  0.00    +0.000 NA
ATOM      6  C   UNL     1      49.864   6.241  16.533  0.00  0.00    +0.000 A 
ENDROOT
BRANCH   1   8
ATOM      7  C   UNL     1      52.755   8.008  15.724  0.00  0.00    +0.000 C 
ATOM      8  O   UNL     1      51.583   7.880  16.527  0.00  0.00    +0.000 OA
ENDBRANCH   1   8
BRANCH   3   9
ATOM      9  C   UNL     1      48.328   7.600  12.797  0.00  0.00    +0.000 C 
BRANCH   9  10
ATOM     10  N   UNL     1      47.549   6.574  12.153  0.00  0.00    +0.000 N 
ATOM     11  C   UNL     1      46.274   6.781  11.692  0.00  0.00    +0.000 C 
ATOM     12  O   UNL     1      45.698   7.857  11.826  0.00  0.00    +0.000 OA
ATOM     13  H   UNL     1      47.913   5.627  12.196  0.00  0.00    +0.000 HD
BRANCH  11  14
ATOM     14  C   UNL     1      45.651   5.664  10.965  0.00  0.00    +0.000 A 
ATOM     15  C   UNL     1      45.763   5.601   9.582  0.00  0.00    +0.000 A 
ATOM     16  S   UNL     1      45.031   4.222   8.898  0.00  0.00    +0.000 S 
ATOM     17  C   UNL     1      44.496   3.683  10.419  0.00  0.00    +0.000 A 
ATOM     18  N   UNL     1      43.768   2.541  10.538  0.00  0.00    +0.000 NA
ATOM     19  C   UNL     1      43.395   2.268  11.743  0.00  0.00    +0.000 A 
ATOM     20  N   UNL     1      43.694   3.029  12.844  0.00  0.00    +0.000 N 
ATOM     21  C   UNL     1      44.477   4.157  12.780  0.00  0.00    +0.000 A 
ATOM     22  O   UNL     1      44.814   4.758  13.796  0.00  0.00    +0.000 OA
ATOM     23  C   UNL     1      44.890   4.531  11.440  0.00  0.00    +0.000 A 
ATOM     24  H   UNL     1      43.391   2.747  13.764  0.00  0.00    +0.000 HD
ENDBRANCH  11  14
ENDBRANCH   9  10
ENDBRANCH   3   9
BRANCH   6  25
ATOM     25  C   UNL     1      50.367   5.684  17.859  0.00  0.00    +0.000 C 
BRANCH  25  26
ATOM     26  N   UNL     1      51.653   5.024  17.709  0.00  0.00    +0.000 N 
ATOM     27  C   UNL     1      51.773   3.652  17.763  0.00  0.00    +0.000 A 
ATOM     28  C   UNL     1      50.785   2.771  17.329  0.00  0.00    +0.000 A 
ATOM     29  C   UNL     1      51.027   1.397  17.341  0.00  0.00    +0.000 A 
ATOM     30  C   UNL     1      52.259   0.930  17.770  0.00  0.00    +0.000 A 
ATOM     31  C   UNL     1      53.189   1.864  18.183  0.00  0.00    +0.000 A 
ATOM     32  N   UNL     1      52.967   3.198  18.196  0.00  0.00    +0.000 NA
ATOM     33  H   UNL     1      52.426   5.442  18.218  0.00  0.00    +0.000 HD
ENDBRANCH  25  26
ENDBRANCH   6  25
TORSDOF 6
ENDMDL
MODEL 9
REMARK VINA RESULT:    -6.440      2.871      8.496
REMARK INTER + INTRA:          -9.823
REMARK INTER:                  -8.774
REMARK INTRA:                  -1.049
REMARK UNBOUND:                -1.125
REMARK  Name = 
REMARK  7 active torsions:
REMARK  status: ('A' for Active; 'I' for Inactive)
REMARK    1  A    between atoms: C_1  and  O_2
REMARK    2  A    between atoms: O_2  and  C_3
REMARK    3  A    between atoms: C_5  and  C_6
REMARK    4  A    between atoms: C_6  and  N_7
REMARK    5  A    between atoms: C_8  and  C_10
REMARK    6  A    between atoms: C_22  and  C_23
REMARK    7  A    between atoms: C_23  and  N_24
REMARK                            x       y       z     vdW  Elec       q    Type
REMARK                         _______ _______ _______ _____ _____    ______ ____
ROOT
ATOM      1  C   UNL     1      48.903   8.837  15.846  0.00  0.00    +0.000 A 
ATOM      2  C   UNL     1      47.903   8.922  14.874  0.00  0.00    +0.000 A 
ATOM      3  C   UNL     1      47.885   8.040  13.792  0.00  0.00    +0.000 A 
ATOM      4  C   UNL     1      48.882   7.075  13.742  0.00  0.00    +0.000 A 
ATOM      5  N   UNL     1      49.876   6.966  14.653  0.00  0.00    +0.000 NA
ATOM      6  C   UNL     1      49.889   7.855  15.689  0.00  0.00    +0.000 A 
ENDROOT
BRANCH   1   8
ATOM      7  C   UNL     1      47.892   9.591  17.848  0.00  0.00    +0.000 C 
ATOM      8  O   UNL     1      48.983   9.664  16.933  0.00  0.00    +0.000 OA
ENDBRANCH   1   8
BRANCH   3   9
ATOM      9  C   UNL     1      46.819   8.126  12.746  0.00  0.00    +0.000 C 
BRANCH   9  10
ATOM     10  N   UNL     1      46.183   6.853  12.523  0.00  0.00    +0.000 N 
ATOM     11  C   UNL     1      45.134   6.681  11.657  0.00  0.00    +0.000 C 
ATOM     12  O   UNL     1      44.644   7.618  11.031  0.00  0.00    +0.000 OA
ATOM     13  H   UNL     1      46.430   6.100  13.159  0.00  0.00    +0.000 HD
BRANCH  11  14
ATOM     14  C   UNL     1      44.664   5.301  11.462  0.00  0.00    +0.000 A 
ATOM     15  C   UNL     1      43.925   4.683  12.462  0.00  0.00    +0.000 A 
ATOM     16  S   UNL     1      43.412   3.108  12.062  0.00  0.00    +0.000 S 
ATOM     17  C   UNL     1      44.199   3.176  10.555  0.00  0.00    +0.000 A 
ATOM     18  N   UNL     1      44.172   2.114   9.706  0.00  0.00    +0.000 NA
ATOM     19  C   UNL     1      44.840   2.286   8.615  0.00  0.00    +0.000 A 
ATOM     20  N   UNL     1      45.525   3.429   8.291  0.00  0.00    +0.000 N 
ATOM     21  C   UNL     1      45.530   4.547   9.090  0.00  0.00    +0.000 A 
ATOM     22  O   UNL     1      46.065   5.590   8.725  0.00  0.00    +0.000 OA
ATOM     23  C   UNL     1      44.825   4.392  10.350  0.00  0.00    +0.000 A 
ATOM     24  H   UNL     1      46.010   3.507   7.410  0.00  0.00    +0.000 HD
ENDBRANCH  11  14
ENDBRANCH   9  10
ENDBRANCH   3   9
BRANCH   6  25
ATOM     25  C   UNL     1      51.031   7.709  16.688  0.00  0.00    +0.000 C 
BRANCH  25  26
ATOM     26  N   UNL     1      50.551   7.269  17.988  0.00  0.00    +0.000 N 
ATOM     27  C   UNL     1      49.964   6.034  18.163  0.00  0.00    +0.000 A 
ATOM     28  C   UNL     1      50.307   4.903  17.428  0.00  0.00    +0.000 A 
ATOM     29  C   UNL     1      49.722   3.673  17.732  0.00  0.00    +0.000 A 
ATOM     30  C   UNL     1      48.817   3.595  18.778  0.00  0.00    +0.000 A 
ATOM     31  C   UNL     1      48.527   4.759  19.463  0.00  0.00    +0.000 A 
ATOM     32  N   UNL     1      49.071   5.964  19.172  0.00  0.00    +0.000 NA
ATOM     33  H   UNL     1      50.033   7.959  18.523  0.00  0.00    +0.000 HD
ENDBRANCH  25  26
ENDBRANCH   6  25
TORSDOF 6
ENDMDL
