MODEL 1
REMARK VINA RESULT:    -7.450      0.000      0.000
REMARK INTER + INTRA:         -13.105
REMARK INTER:                 -11.587
REMARK INTRA:                  -1.518
REMARK UNBOUND:                -1.518
REMARK  Name = 
REMARK  11 active torsions:
REMARK  status: ('A' for Active; 'I' for Inactive)
REMARK    1  A    between atoms: C_1  and  S_2
REMARK    2  A    between atoms: S_2  and  N_5
REMARK    3  A    between atoms: N_5  and  C_6
REMARK    4  A    between atoms: C_6  and  C_7
REMARK    5  A    between atoms: N_10  and  C_11
REMARK    6  A    between atoms: C_11  and  C_12
REMARK    7  A    between atoms: C_12  and  N_13
REMARK    8  A    between atoms: C_12  and  C_14
REMARK    9  A    between atoms: C_17  and  C_18
REMARK   10  A    between atoms: C_18  and  N_19
REMARK   11  A    between atoms: C_20  and  C_22
REMARK                            x       y       z     vdW  Elec       q    Type
REMARK                         _______ _______ _______ _____ _____    ______ ____
ROOT
ATOM      1  C   UNL     1      47.568   4.342  15.810  0.00  0.00    +0.000 A 
ATOM      2  C   UNL     1      47.519   3.405  16.841  0.00  0.00    +0.000 A 
ATOM      3  C   UNL     1      48.254   3.639  18.000  0.00  0.00    +0.000 A 
ATOM      4  C   UNL     1      49.022   4.800  18.110  0.00  0.00    +0.000 A 
ATOM      5  C   UNL     1      49.038   5.660  17.019  0.00  0.00    +0.000 A 
ATOM      6  N   UNL     1      48.328   5.466  15.886  0.00  0.00    +0.000 NA
ENDROOT
BRANCH   1   7
ATOM      7  C   UNL     1      46.728   4.143  14.553  0.00  0.00    +0.000 C 
BRANCH   7   8
ATOM      8  N   UNL     1      47.218   3.004  13.752  0.00  0.00    +0.000 NA
ATOM      9  H   UNL     1      47.985   3.361  13.179  0.00  0.00    +0.000 HD
ATOM     10  H   UNL     1      46.486   2.752  13.089  0.00  0.00    +0.000 HD
ENDBRANCH   7   8
BRANCH   7  11
ATOM     11  C   UNL     1      46.700   5.491  13.761  0.00  0.00    +0.000 C 
BRANCH  11  15
ATOM     12  C   UNL     1      43.057   5.555  11.438  0.00  0.00    +0.000 C 
ATOM     13  C   UNL     1      44.084   6.683  11.248  0.00  0.00    +0.000 C 
ATOM     14  C   UNL     1      45.456   6.333  11.838  0.00  0.00    +0.000 C 
ATOM     15  N   UNL     1      45.377   5.952  13.257  0.00  0.00    +0.000 NA
ATOM     16  C   UNL     1      44.393   4.873  13.482  0.00  0.00    +0.000 C 
ATOM     17  C   UNL     1      43.010   5.234  12.938  0.00  0.00    +0.000 C 
BRANCH  12  18
ATOM     18  C   UNL     1      43.405   4.336  10.558  0.00  0.00    +0.000 C 
BRANCH  18  19
ATOM     19  N   UNL     1      43.719   4.761   9.167  0.00  0.00    +0.000 NA
ATOM     20  H   UNL     1      42.932   4.590   8.542  0.00  0.00    +0.000 HD
BRANCH  19  22
ATOM     21  C   UNL     1      45.471   2.833   9.823  0.00  0.00    +0.000 C 
ATOM     22  S   UNL     1      45.093   3.991   8.526  0.00  0.00    +0.000 S 
ATOM     23  O   UNL     1      46.137   4.991   8.494  0.00  0.00    +0.000 OA
ATOM     24  O   UNL     1      44.688   3.269   7.343  0.00  0.00    +0.000 OA
ENDBRANCH  19  22
ENDBRANCH  18  19
ENDBRANCH  12  18
ENDBRANCH  11  15
ENDBRANCH   7  11
ENDBRANCH   1   7
BRANCH   4  25
ATOM     25  C   UNL     1      49.849   5.097  19.322  0.00  0.00    +0.000 C 
BRANCH  25  26
ATOM     26  N   UNL     1      50.967   4.195  19.417  0.00  0.00    +0.000 N 
ATOM     27  C   UNL     1      52.196   4.533  18.916  0.00  0.00    +0.000 C 
ATOM     28  O   UNL     1      52.414   5.629  18.406  0.00  0.00    +0.000 OA
ATOM     29  H   UNL     1      50.764   3.222  19.625  0.00  0.00    +0.000 HD
BRANCH  27  30
ATOM     30  C   UNL     1      53.259   3.535  19.079  0.00  0.00    +0.000 A 
ATOM     31  C   UNL     1      54.391   3.851  19.819  0.00  0.00    +0.000 A 
ATOM     32  S   UNL     1      55.503   2.566  19.946  0.00  0.00    +0.000 S 
ATOM     33  C   UNL     1      54.539   1.557  18.973  0.00  0.00    +0.000 A 
ATOM     34  N   UNL     1      54.934   0.300  18.658  0.00  0.00    +0.000 NA
ATOM     35  C   UNL     1      54.115  -0.347  17.892  0.00  0.00    +0.000 A 
ATOM     36  N   UNL     1      52.929   0.157  17.423  0.00  0.00    +0.000 N 
ATOM     37  C   UNL     1      52.475   1.415  17.734  0.00  0.00    +0.000 A 
ATOM     38  O   UNL     1      51.391   1.823  17.330  0.00  0.00    +0.000 OA
ATOM     39  C   UNL     1      53.368   2.186  18.578  0.00  0.00    +0.000 A 
ATOM     40  H   UNL     1      52.324  -0.405  16.837  0.00  0.00    +0.000 HD
ENDBRANCH  27  30
ENDBRANCH  25  26
ENDBRANCH   4  25
TORSDOF 10
ENDMDL
MODEL 2
REMARK VINA RESULT:    -7.196      3.182      9.700
REMARK INTER + INTRA:         -12.710
REMARK INTER:                 -10.916
REMARK INTRA:                  -1.795
REMARK UNBOUND:                -1.518
REMARK  Name = 
REMARK  11 active torsions:
REMARK  status: ('A' for Active; 'I' for Inactive)
REMARK    1  A    between atoms: C_1  and  S_2
REMARK    2  A    between atoms: S_2  and  N_5
REMARK    3  A    between atoms: N_5  and  C_6
REMARK    4  A    between atoms: C_6  and  C_7
REMARK    5  A    between atoms: N_10  and  C_11
REMARK    6  A    between atoms: C_11  and  C_12
REMARK    7  A    between atoms: C_12  and  N_13
REMARK    8  A    between atoms: C_12  and  C_14
REMARK    9  A    between atoms: C_17  and  C_18
REMARK   10  A    between atoms: C_18  and  N_19
REMARK   11  A    between atoms: C_20  and  C_22
REMARK                            x       y       z     vdW  Elec       q    Type
REMARK                         _______ _______ _______ _____ _____    ______ ____
ROOT
ATOM      1  C   UNL     1      49.560   8.374  15.635  0.00  0.00    +0.000 A 
ATOM      2  C   UNL     1      48.291   8.904  15.407  0.00  0.00    +0.000 A 
ATOM      3  C   UNL     1      47.712   8.752  14.151  0.00  0.00    +0.000 A 
ATOM      4  C   UNL     1      48.408   8.075  13.146  0.00  0.00    +0.000 A 
ATOM      5  C   UNL     1      49.681   7.611  13.452  0.00  0.00    +0.000 A 
ATOM      6  N   UNL     1      50.264   7.734  14.665  0.00  0.00    +0.000 NA
ENDROOT
BRANCH   1   7
ATOM      7  C   UNL     1      50.196   8.474  17.017  0.00  0.00    +0.000 C 
BRANCH   7   8
ATOM      8  N   UNL     1      50.219   9.868  17.501  0.00  0.00    +0.000 NA
ATOM      9  H   UNL     1      49.331  10.023  17.982  0.00  0.00    +0.000 HD
ATOM     10  H   UNL     1      50.192  10.481  16.688  0.00  0.00    +0.000 HD
ENDBRANCH   7   8
BRANCH   7  11
ATOM     11  C   UNL     1      51.613   7.815  16.957  0.00  0.00    +0.000 C 
BRANCH  11  15
ATOM     12  C   UNL     1      51.452   3.773  18.475  0.00  0.00    +0.000 C 
ATOM     13  C   UNL     1      50.795   4.902  19.286  0.00  0.00    +0.000 C 
ATOM     14  C   UNL     1      50.602   6.181  18.461  0.00  0.00    +0.000 C 
ATOM     15  N   UNL     1      51.858   6.654  17.856  0.00  0.00    +0.000 NA
ATOM     16  C   UNL     1      52.524   5.594  17.073  0.00  0.00    +0.000 C 
ATOM     17  C   UNL     1      52.763   4.331  17.902  0.00  0.00    +0.000 C 
BRANCH  12  18
ATOM     18  C   UNL     1      50.490   3.233  17.397  0.00  0.00    +0.000 C 
BRANCH  18  19
ATOM     19  N   UNL     1      49.105   3.126  17.931  0.00  0.00    +0.000 NA
ATOM     20  H   UNL     1      48.965   2.244  18.421  0.00  0.00    +0.000 HD
BRANCH  19  22
ATOM     21  C   UNL     1      48.003   5.009  16.362  0.00  0.00    +0.000 C 
ATOM     22  S   UNL     1      47.912   3.271  16.728  0.00  0.00    +0.000 S 
ATOM     23  O   UNL     1      46.648   3.011  17.381  0.00  0.00    +0.000 OA
ATOM     24  O   UNL     1      48.347   2.515  15.576  0.00  0.00    +0.000 OA
ENDBRANCH  19  22
ENDBRANCH  18  19
ENDBRANCH  12  18
ENDBRANCH  11  15
ENDBRANCH   7  11
ENDBRANCH   1   7
BRANCH   4  25
ATOM     25  C   UNL     1      47.847   7.896  11.769  0.00  0.00    +0.000 C 
BRANCH  25  26
ATOM     26  N   UNL     1      47.100   6.670  11.672  0.00  0.00    +0.000 N 
ATOM     27  C   UNL     1      45.732   6.664  11.746  0.00  0.00    +0.000 C 
ATOM     28  O   UNL     1      45.080   7.699  11.854  0.00  0.00    +0.000 OA
ATOM     29  H   UNL     1      47.610   5.802  11.806  0.00  0.00    +0.000 HD
BRANCH  27  30
ATOM     30  C   UNL     1      45.082   5.354  11.626  0.00  0.00    +0.000 A 
ATOM     31  C   UNL     1      44.431   4.806  12.723  0.00  0.00    +0.000 A 
ATOM     32  S   UNL     1      43.694   3.304  12.399  0.00  0.00    +0.000 S 
ATOM     33  C   UNL     1      44.263   3.304  10.795  0.00  0.00    +0.000 A 
ATOM     34  N   UNL     1      44.007   2.270   9.960  0.00  0.00    +0.000 NA
ATOM     35  C   UNL     1      44.520   2.391   8.777  0.00  0.00    +0.000 A 
ATOM     36  N   UNL     1      45.261   3.467   8.360  0.00  0.00    +0.000 N 
ATOM     37  C   UNL     1      45.527   4.549   9.162  0.00  0.00    +0.000 A 
ATOM     38  O   UNL     1      46.160   5.514   8.746  0.00  0.00    +0.000 OA
ATOM     39  C   UNL     1      44.985   4.451  10.504  0.00  0.00    +0.000 A 
ATOM     40  H   UNL     1      45.624   3.509   7.416  0.00  0.00    +0.000 HD
ENDBRANCH  27  30
ENDBRANCH  25  26
ENDBRANCH   4  25
TORSDOF 10
ENDMDL
MODEL 3
REMARK VINA RESULT:    -6.264      3.733      9.914
REMARK INTER + INTRA:         -11.262
REMARK INTER:                  -9.736
REMARK INTRA:                  -1.526
REMARK UNBOUND:                -1.518
REMARK  Name = 
REMARK  11 active torsions:
REMARK  status: ('A' for Active; 'I' for Inactive)
REMARK    1  A    between atoms: C_1  and  S_2
REMARK    2  A    between atoms: S_2  and  N_5
REMARK    3  A    between atoms: N_5  and  C_6
REMARK    4  A    between atoms: C_6  and  C_7
REMARK    5  A    between atoms: N_10  and  C_11
REMARK    6  A    between atoms: C_11  and  C_12
REMARK    7  A    between atoms: C_12  and  N_13
REMARK    8  A    between atoms: C_12  and  C_14
REMARK    9  A    between atoms: C_17  and  C_18
REMARK   10  A    between atoms: C_18  and  N_19
REMARK   11  A    between atoms: C_20  and  C_22
REMARK                            x       y       z     vdW  Elec       q    Type
REMARK                         _______ _______ _______ _____ _____    ______ ____
ROOT
ATOM      1  C   UNL     1      48.143   8.154  13.819  0.00  0.00    +0.000 A 
ATOM      2  C   UNL     1      48.122   6.766  13.691  0.00  0.00    +0.000 A 
ATOM      3  C   UNL     1      47.039   6.163  13.059  0.00  0.00    +0.000 A 
ATOM      4  C   UNL     1      45.998   6.954  12.567  0.00  0.00    +0.000 A 
ATOM      5  C   UNL     1      46.087   8.326  12.770  0.00  0.00    +0.000 A 
ATOM      6  N   UNL     1      47.130   8.939  13.369  0.00  0.00    +0.000 NA
ENDROOT
BRANCH   1   7
ATOM      7  C   UNL     1      49.344   8.847  14.453  0.00  0.00    +0.000 C 
BRANCH   7   8
ATOM      8  N   UNL     1      50.029   9.729  13.488  0.00  0.00    +0.000 NA
ATOM      9  H   UNL     1      50.420  10.504  14.029  0.00  0.00    +0.000 HD
ATOM     10  H   UNL     1      49.319  10.153  12.893  0.00  0.00    +0.000 HD
ENDBRANCH   7   8
BRANCH   7  11
ATOM     11  C   UNL     1      50.279   7.754  15.065  0.00  0.00    +0.000 C 
BRANCH  11  15
ATOM     12  C   UNL     1      49.024   6.450  18.989  0.00  0.00    +0.000 C 
ATOM     13  C   UNL     1      48.939   7.944  18.635  0.00  0.00    +0.000 C 
ATOM     14  C   UNL     1      49.051   8.197  17.126  0.00  0.00    +0.000 C 
ATOM     15  N   UNL     1      50.268   7.606  16.547  0.00  0.00    +0.000 NA
ATOM     16  C   UNL     1      50.390   6.170  16.870  0.00  0.00    +0.000 C 
ATOM     17  C   UNL     1      50.326   5.914  18.377  0.00  0.00    +0.000 C 
BRANCH  12  18
ATOM     18  C   UNL     1      47.764   5.696  18.514  0.00  0.00    +0.000 C 
BRANCH  18  19
ATOM     19  N   UNL     1      47.846   4.254  18.871  0.00  0.00    +0.000 NA
ATOM     20  H   UNL     1      48.712   4.044  19.365  0.00  0.00    +0.000 HD
BRANCH  19  22
ATOM     21  C   UNL     1      47.354   4.390  16.233  0.00  0.00    +0.000 C 
ATOM     22  S   UNL     1      47.733   3.224  17.522  0.00  0.00    +0.000 S 
ATOM     23  O   UNL     1      46.566   2.398  17.743  0.00  0.00    +0.000 OA
ATOM     24  O   UNL     1      49.039   2.655  17.285  0.00  0.00    +0.000 OA
ENDBRANCH  19  22
ENDBRANCH  18  19
ENDBRANCH  12  18
ENDBRANCH  11  15
ENDBRANCH   7  11
ENDBRANCH   1   7
BRANCH   4  25
ATOM     25  C   UNL     1      44.796   6.362  11.896  0.00  0.00    +0.000 C 
BRANCH  25  26
ATOM     26  N   UNL     1      45.162   5.226  11.093  0.00  0.00    +0.000 N 
ATOM     27  C   UNL     1      44.233   4.565  10.333  0.00  0.00    +0.000 C 
ATOM     28  O   UNL     1      43.064   4.934  10.266  0.00  0.00    +0.000 OA
ATOM     29  H   UNL     1      46.048   4.775  11.299  0.00  0.00    +0.000 HD
BRANCH  27  30
ATOM     30  C   UNL     1      44.728   3.427   9.550  0.00  0.00    +0.000 A 
ATOM     31  C   UNL     1      44.194   2.163   9.762  0.00  0.00    +0.000 A 
ATOM     32  S   UNL     1      44.848   0.966   8.739  0.00  0.00    +0.000 S 
ATOM     33  C   UNL     1      45.907   2.082   8.012  0.00  0.00    +0.000 A 
ATOM     34  N   UNL     1      46.782   1.696   7.054  0.00  0.00    +0.000 NA
ATOM     35  C   UNL     1      47.543   2.643   6.605  0.00  0.00    +0.000 A 
ATOM     36  N   UNL     1      47.493   3.946   7.031  0.00  0.00    +0.000 N 
ATOM     37  C   UNL     1      46.607   4.389   7.981  0.00  0.00    +0.000 A 
ATOM     38  O   UNL     1      46.561   5.569   8.312  0.00  0.00    +0.000 OA
ATOM     39  C   UNL     1      45.743   3.359   8.526  0.00  0.00    +0.000 A 
ATOM     40  H   UNL     1      48.107   4.644   6.630  0.00  0.00    +0.000 HD
ENDBRANCH  27  30
ENDBRANCH  25  26
ENDBRANCH   4  25
TORSDOF 10
ENDMDL
MODEL 4
REMARK VINA RESULT:    -6.253      3.491      9.529
REMARK INTER + INTRA:         -11.244
REMARK INTER:                  -8.797
REMARK INTRA:                  -2.448
REMARK UNBOUND:                -1.518
REMARK  Name = 
REMARK  11 active torsions:
REMARK  status: ('A' for Active; 'I' for Inactive)
REMARK    1  A    between atoms: C_1  and  S_2
REMARK    2  A    between atoms: S_2  and  N_5
REMARK    3  A    between atoms: N_5  and  C_6
REMARK    4  A    between atoms: C_6  and  C_7
REMARK    5  A    between atoms: N_10  and  C_11
REMARK    6  A    between atoms: C_11  and  C_12
REMARK    7  A    between atoms: C_12  and  N_13
REMARK    8  A    between atoms: C_12  and  C_14
REMARK    9  A    between atoms: C_17  and  C_18
REMARK   10  A    between atoms: C_18  and  N_19
REMARK   11  A    between atoms: C_20  and  C_22
REMARK                            x       y       z     vdW  Elec       q    Type
REMARK                         _______ _______ _______ _____ _____    ______ ____
ROOT
ATOM      1  C   UNL     1      51.244   2.716  17.587  0.00  0.00    +0.000 A 
ATOM      2  C   UNL     1      50.734   3.933  18.035  0.00  0.00    +0.000 A 
ATOM      3  C   UNL     1      49.398   4.237  17.786  0.00  0.00    +0.000 A 
ATOM      4  C   UNL     1      48.599   3.324  17.096  0.00  0.00    +0.000 A 
ATOM      5  C   UNL     1      49.201   2.151  16.656  0.00  0.00    +0.000 A 
ATOM      6  N   UNL     1      50.491   1.825  16.892  0.00  0.00    +0.000 NA
ENDROOT
BRANCH   1   7
ATOM      7  C   UNL     1      52.687   2.330  17.896  0.00  0.00    +0.000 C 
BRANCH   7   8
ATOM      8  N   UNL     1      52.819   0.877  18.121  0.00  0.00    +0.000 NA
ATOM      9  H   UNL     1      52.671   0.723  19.120  0.00  0.00    +0.000 HD
ATOM     10  H   UNL     1      53.792   0.623  17.954  0.00  0.00    +0.000 HD
ENDBRANCH   7   8
BRANCH   7  11
ATOM     11  C   UNL     1      53.180   3.191  19.104  0.00  0.00    +0.000 C 
BRANCH  11  15
ATOM     12  C   UNL     1      54.969   6.888  17.761  0.00  0.00    +0.000 C 
ATOM     13  C   UNL     1      55.349   5.575  17.056  0.00  0.00    +0.000 C 
ATOM     14  C   UNL     1      54.374   4.434  17.377  0.00  0.00    +0.000 C 
ATOM     15  N   UNL     1      54.229   4.211  18.824  0.00  0.00    +0.000 NA
ATOM     16  C   UNL     1      53.871   5.452  19.540  0.00  0.00    +0.000 C 
ATOM     17  C   UNL     1      54.864   6.582  19.261  0.00  0.00    +0.000 C 
BRANCH  12  18
ATOM     18  C   UNL     1      53.678   7.484  17.162  0.00  0.00    +0.000 C 
BRANCH  18  19
ATOM     19  N   UNL     1      53.992   8.372  16.010  0.00  0.00    +0.000 NA
ATOM     20  H   UNL     1      54.514   9.194  16.309  0.00  0.00    +0.000 HD
BRANCH  19  22
ATOM     21  C   UNL     1      53.032  10.581  14.818  0.00  0.00    +0.000 C 
ATOM     22  S   UNL     1      52.607   8.890  15.169  0.00  0.00    +0.000 S 
ATOM     23  O   UNL     1      51.527   8.884  16.131  0.00  0.00    +0.000 OA
ATOM     24  O   UNL     1      52.534   8.147  13.932  0.00  0.00    +0.000 OA
ENDBRANCH  19  22
ENDBRANCH  18  19
ENDBRANCH  12  18
ENDBRANCH  11  15
ENDBRANCH   7  11
ENDBRANCH   1   7
BRANCH   4  25
ATOM     25  C   UNL     1      47.161   3.602  16.780  0.00  0.00    +0.000 C 
BRANCH  25  26
ATOM     26  N   UNL     1      47.043   4.648  15.799  0.00  0.00    +0.000 N 
ATOM     27  C   UNL     1      47.075   4.372  14.458  0.00  0.00    +0.000 C 
ATOM     28  O   UNL     1      47.160   3.224  14.031  0.00  0.00    +0.000 OA
ATOM     29  H   UNL     1      47.194   5.602  16.115  0.00  0.00    +0.000 HD
BRANCH  27  30
ATOM     30  C   UNL     1      46.936   5.521  13.556  0.00  0.00    +0.000 A 
ATOM     31  C   UNL     1      45.889   5.557  12.645  0.00  0.00    +0.000 A 
ATOM     32  S   UNL     1      45.849   6.980  11.707  0.00  0.00    +0.000 S 
ATOM     33  C   UNL     1      47.261   7.576  12.446  0.00  0.00    +0.000 A 
ATOM     34  N   UNL     1      47.799   8.762  12.075  0.00  0.00    +0.000 NA
ATOM     35  C   UNL     1      48.886   9.082  12.703  0.00  0.00    +0.000 A 
ATOM     36  N   UNL     1      49.473   8.315  13.677  0.00  0.00    +0.000 N 
ATOM     37  C   UNL     1      48.952   7.119  14.103  0.00  0.00    +0.000 A 
ATOM     38  O   UNL     1      49.479   6.475  15.004  0.00  0.00    +0.000 OA
ATOM     39  C   UNL     1      47.741   6.710  13.416  0.00  0.00    +0.000 A 
ATOM     40  H   UNL     1      50.316   8.627  14.142  0.00  0.00    +0.000 HD
ENDBRANCH  27  30
ENDBRANCH  25  26
ENDBRANCH   4  25
TORSDOF 10
ENDMDL
MODEL 5
REMARK VINA RESULT:    -6.188      3.690      9.221
REMARK INTER + INTRA:         -11.143
REMARK INTER:                  -9.413
REMARK INTRA:                  -1.730
REMARK UNBOUND:                -1.518
REMARK  Name = 
REMARK  11 active torsions:
REMARK  status: ('A' for Active; 'I' for Inactive)
REMARK    1  A    between atoms: C_1  and  S_2
REMARK    2  A    between atoms: S_2  and  N_5
REMARK    3  A    between atoms: N_5  and  C_6
REMARK    4  A    between atoms: C_6  and  C_7
REMARK    5  A    between atoms: N_10  and  C_11
REMARK    6  A    between atoms: C_11  and  C_12
REMARK    7  A    between atoms: C_12  and  N_13
REMARK    8  A    between atoms: C_12  and  C_14
REMARK    9  A    between atoms: C_17  and  C_18
REMARK   10  A    between atoms: C_18  and  N_19
REMARK   11  A    between atoms: C_20  and  C_22
REMARK                            x       y       z     vdW  Elec       q    Type
REMARK                         _______ _______ _______ _____ _____    ______ ____
ROOT
ATOM      1  C   UNL     1      51.214   3.917  17.878  0.00  0.00    +0.000 A 
ATOM      2  C   UNL     1      50.322   4.978  18.025  0.00  0.00    +0.000 A 
ATOM      3  C   UNL     1      48.988   4.791  17.674  0.00  0.00    +0.000 A 
ATOM      4  C   UNL     1      48.569   3.552  17.186  0.00  0.00    +0.000 A 
ATOM      5  C   UNL     1      49.534   2.563  17.040  0.00  0.00    +0.000 A 
ATOM      6  N   UNL     1      50.832   2.711  17.382  0.00  0.00    +0.000 NA
ENDROOT
BRANCH   1   7
ATOM      7  C   UNL     1      52.668   4.073  18.309  0.00  0.00    +0.000 C 
BRANCH   7   8
ATOM      8  N   UNL     1      53.055   3.039  19.288  0.00  0.00    +0.000 NA
ATOM      9  H   UNL     1      52.351   2.300  19.224  0.00  0.00    +0.000 HD
ATOM     10  H   UNL     1      52.941   3.434  20.220  0.00  0.00    +0.000 HD
ENDBRANCH   7   8
BRANCH   7  11
ATOM     11  C   UNL     1      52.874   5.531  18.834  0.00  0.00    +0.000 C 
BRANCH  11  15
ATOM     12  C   UNL     1      53.575   8.190  15.500  0.00  0.00    +0.000 C 
ATOM     13  C   UNL     1      54.393   6.892  15.606  0.00  0.00    +0.000 C 
ATOM     14  C   UNL     1      53.784   5.894  16.599  0.00  0.00    +0.000 C 
ATOM     15  N   UNL     1      53.586   6.480  17.934  0.00  0.00    +0.000 NA
ATOM     16  C   UNL     1      52.809   7.735  17.875  0.00  0.00    +0.000 C 
ATOM     17  C   UNL     1      53.436   8.754  16.922  0.00  0.00    +0.000 C 
BRANCH  12  18
ATOM     18  C   UNL     1      52.221   7.936  14.804  0.00  0.00    +0.000 C 
BRANCH  18  19
ATOM     19  N   UNL     1      51.405   9.180  14.767  0.00  0.00    +0.000 NA
ATOM     20  H   UNL     1      51.206   9.519  15.707  0.00  0.00    +0.000 HD
BRANCH  19  22
ATOM     21  C   UNL     1      49.809  10.547  13.093  0.00  0.00    +0.000 C 
ATOM     22  S   UNL     1      49.932   8.988  13.940  0.00  0.00    +0.000 S 
ATOM     23  O   UNL     1      48.903   8.941  14.956  0.00  0.00    +0.000 OA
ATOM     24  O   UNL     1      50.099   7.929  12.972  0.00  0.00    +0.000 OA
ENDBRANCH  19  22
ENDBRANCH  18  19
ENDBRANCH  12  18
ENDBRANCH  11  15
ENDBRANCH   7  11
ENDBRANCH   1   7
BRANCH   4  25
ATOM     25  C   UNL     1      47.152   3.296  16.773  0.00  0.00    +0.000 C 
BRANCH  25  26
ATOM     26  N   UNL     1      46.699   4.294  15.840  0.00  0.00    +0.000 N 
ATOM     27  C   UNL     1      46.783   4.092  14.488  0.00  0.00    +0.000 C 
ATOM     28  O   UNL     1      47.205   3.043  14.011  0.00  0.00    +0.000 OA
ATOM     29  H   UNL     1      46.559   5.235  16.196  0.00  0.00    +0.000 HD
BRANCH  27  30
ATOM     30  C   UNL     1      46.281   5.178  13.638  0.00  0.00    +0.000 A 
ATOM     31  C   UNL     1      47.033   6.336  13.486  0.00  0.00    +0.000 A 
ATOM     32  S   UNL     1      46.327   7.474  12.432  0.00  0.00    +0.000 S 
ATOM     33  C   UNL     1      44.965   6.486  12.182  0.00  0.00    +0.000 A 
ATOM     34  N   UNL     1      43.943   6.888  11.391  0.00  0.00    +0.000 NA
ATOM     35  C   UNL     1      42.961   6.047  11.308  0.00  0.00    +0.000 A 
ATOM     36  N   UNL     1      42.923   4.834  11.946  0.00  0.00    +0.000 N 
ATOM     37  C   UNL     1      43.945   4.373  12.739  0.00  0.00    +0.000 A 
ATOM     38  O   UNL     1      43.898   3.266  13.265  0.00  0.00    +0.000 OA
ATOM     39  C   UNL     1      45.062   5.288  12.875  0.00  0.00    +0.000 A 
ATOM     40  H   UNL     1      42.131   4.214  11.830  0.00  0.00    +0.000 HD
ENDBRANCH  27  30
ENDBRANCH  25  26
ENDBRANCH   4  25
TORSDOF 10
ENDMDL
MODEL 6
REMARK VINA RESULT:    -6.177      4.047      9.650
REMARK INTER + INTRA:         -11.125
REMARK INTER:                 -10.353
REMARK INTRA:                  -0.772
REMARK UNBOUND:                -1.518
REMARK  Name = 
REMARK  11 active torsions:
REMARK  status: ('A' for Active; 'I' for Inactive)
REMARK    1  A    between atoms: C_1  and  S_2
REMARK    2  A    between atoms: S_2  and  N_5
REMARK    3  A    between atoms: N_5  and  C_6
REMARK    4  A    between atoms: C_6  and  C_7
REMARK    5  A    between atoms: N_10  and  C_11
REMARK    6  A    between atoms: C_11  and  C_12
REMARK    7  A    between atoms: C_12  and  N_13
REMARK    8  A    between atoms: C_12  and  C_14
REMARK    9  A    between atoms: C_17  and  C_18
REMARK   10  A    between atoms: C_18  and  N_19
REMARK   11  A    between atoms: C_20  and  C_22
REMARK                            x       y       z     vdW  Elec       q    Type
REMARK                         _______ _______ _______ _____ _____    ______ ____
ROOT
ATOM      1  C   UNL     1      49.091   9.082  12.688  0.00  0.00    +0.000 A 
ATOM      2  C   UNL     1      48.756   7.876  12.075  0.00  0.00    +0.000 A 
ATOM      3  C   UNL     1      47.437   7.659  11.689  0.00  0.00    +0.000 A 
ATOM      4  C   UNL     1      46.477   8.647  11.921  0.00  0.00    +0.000 A 
ATOM      5  C   UNL     1      46.894   9.803  12.569  0.00  0.00    +0.000 A 
ATOM      6  N   UNL     1      48.169  10.046  12.945  0.00  0.00    +0.000 NA
ENDROOT
BRANCH   1   7
ATOM      7  C   UNL     1      50.539   9.372  13.068  0.00  0.00    +0.000 C 
BRANCH   7   8
ATOM      8  N   UNL     1      51.408   9.436  11.877  0.00  0.00    +0.000 NA
ATOM      9  H   UNL     1      52.335   9.709  12.208  0.00  0.00    +0.000 HD
ATOM     10  H   UNL     1      51.091  10.214  11.301  0.00  0.00    +0.000 HD
ENDBRANCH   7   8
BRANCH   7  11
ATOM     11  C   UNL     1      50.998   8.304  14.114  0.00  0.00    +0.000 C 
BRANCH  11  15
ATOM     12  C   UNL     1      49.422   7.190  17.980  0.00  0.00    +0.000 C 
ATOM     13  C   UNL     1      48.550   8.028  17.031  0.00  0.00    +0.000 C 
ATOM     14  C   UNL     1      49.076   8.020  15.590  0.00  0.00    +0.000 C 
ATOM     15  N   UNL     1      50.480   8.451  15.503  0.00  0.00    +0.000 NA
ATOM     16  C   UNL     1      51.352   7.672  16.407  0.00  0.00    +0.000 C 
ATOM     17  C   UNL     1      50.860   7.714  17.854  0.00  0.00    +0.000 C 
BRANCH  12  18
ATOM     18  C   UNL     1      49.287   5.684  17.672  0.00  0.00    +0.000 C 
BRANCH  18  19
ATOM     19  N   UNL     1      47.855   5.290  17.582  0.00  0.00    +0.000 NA
ATOM     20  H   UNL     1      47.455   5.137  18.507  0.00  0.00    +0.000 HD
BRANCH  19  22
ATOM     21  C   UNL     1      47.101   4.602  15.097  0.00  0.00    +0.000 C 
ATOM     22  S   UNL     1      47.604   3.891  16.648  0.00  0.00    +0.000 S 
ATOM     23  O   UNL     1      46.464   3.218  17.229  0.00  0.00    +0.000 OA
ATOM     24  O   UNL     1      48.879   3.232  16.482  0.00  0.00    +0.000 OA
ENDBRANCH  19  22
ENDBRANCH  18  19
ENDBRANCH  12  18
ENDBRANCH  11  15
ENDBRANCH   7  11
ENDBRANCH   1   7
BRANCH   4  25
ATOM     25  C   UNL     1      45.038   8.464  11.547  0.00  0.00    +0.000 C 
BRANCH  25  26
ATOM     26  N   UNL     1      44.775   7.102  11.164  0.00  0.00    +0.000 N 
ATOM     27  C   UNL     1      44.593   6.122  12.104  0.00  0.00    +0.000 C 
ATOM     28  O   UNL     1      44.603   6.364  13.307  0.00  0.00    +0.000 OA
ATOM     29  H   UNL     1      44.980   6.840  10.205  0.00  0.00    +0.000 HD
BRANCH  27  30
ATOM     30  C   UNL     1      44.323   4.774  11.591  0.00  0.00    +0.000 A 
ATOM     31  C   UNL     1      43.565   3.891  12.347  0.00  0.00    +0.000 A 
ATOM     32  S   UNL     1      43.308   2.387  11.586  0.00  0.00    +0.000 S 
ATOM     33  C   UNL     1      44.246   2.842  10.241  0.00  0.00    +0.000 A 
ATOM     34  N   UNL     1      44.459   1.987   9.213  0.00  0.00    +0.000 NA
ATOM     35  C   UNL     1      45.209   2.456   8.267  0.00  0.00    +0.000 A 
ATOM     36  N   UNL     1      45.756   3.713   8.263  0.00  0.00    +0.000 N 
ATOM     37  C   UNL     1      45.549   4.623   9.269  0.00  0.00    +0.000 A 
ATOM     38  O   UNL     1      46.020   5.755   9.217  0.00  0.00    +0.000 OA
ATOM     39  C   UNL     1      44.726   4.138  10.361  0.00  0.00    +0.000 A 
ATOM     40  H   UNL     1      46.325   4.026   7.486  0.00  0.00    +0.000 HD
ENDBRANCH  27  30
ENDBRANCH  25  26
ENDBRANCH   4  25
TORSDOF 10
ENDMDL
MODEL 7
REMARK VINA RESULT:    -6.174      3.173      4.910
REMARK INTER + INTRA:         -11.122
REMARK INTER:                  -9.751
REMARK INTRA:                  -1.371
REMARK UNBOUND:                -1.518
REMARK  Name = 
REMARK  11 active torsions:
REMARK  status: ('A' for Active; 'I' for Inactive)
REMARK    1  A    between atoms: C_1  and  S_2
REMARK    2  A    between atoms: S_2  and  N_5
REMARK    3  A    between atoms: N_5  and  C_6
REMARK    4  A    between atoms: C_6  and  C_7
REMARK    5  A    between atoms: N_10  and  C_11
REMARK    6  A    between atoms: C_11  and  C_12
REMARK    7  A    between atoms: C_12  and  N_13
REMARK    8  A    between atoms: C_12  and  C_14
REMARK    9  A    between atoms: C_17  and  C_18
REMARK   10  A    between atoms: C_18  and  N_19
REMARK   11  A    between atoms: C_20  and  C_22
REMARK                            x       y       z     vdW  Elec       q    Type
REMARK                         _______ _______ _______ _____ _____    ______ ____
ROOT
ATOM      1  C   UNL     1      46.427   9.488  12.443  0.00  0.00    +0.000 A 
ATOM      2  C   UNL     1      47.635   9.978  11.951  0.00  0.00    +0.000 A 
ATOM      3  C   UNL     1      48.798   9.769  12.686  0.00  0.00    +0.000 A 
ATOM      4  C   UNL     1      48.735   9.076  13.897  0.00  0.00    +0.000 A 
ATOM      5  C   UNL     1      47.483   8.654  14.327  0.00  0.00    +0.000 A 
ATOM      6  N   UNL     1      46.340   8.833  13.631  0.00  0.00    +0.000 NA
ENDROOT
BRANCH   1   7
ATOM      7  C   UNL     1      45.146   9.651  11.633  0.00  0.00    +0.000 C 
BRANCH   7   8
ATOM      8  N   UNL     1      44.014  10.058  12.488  0.00  0.00    +0.000 NA
ATOM      9  H   UNL     1      43.164   9.759  12.007  0.00  0.00    +0.000 HD
ATOM     10  H   UNL     1      43.975  11.077  12.489  0.00  0.00    +0.000 HD
ENDBRANCH   7   8
BRANCH   7  11
ATOM     11  C   UNL     1      44.885   8.321  10.852  0.00  0.00    +0.000 C 
BRANCH  11  15
ATOM     12  C   UNL     1      43.920   4.212  11.777  0.00  0.00    +0.000 C 
ATOM     13  C   UNL     1      42.880   5.307  12.067  0.00  0.00    +0.000 C 
ATOM     14  C   UNL     1      43.203   6.625  11.353  0.00  0.00    +0.000 C 
ATOM     15  N   UNL     1      44.555   7.115  11.662  0.00  0.00    +0.000 NA
ATOM     16  C   UNL     1      45.585   6.088  11.403  0.00  0.00    +0.000 C 
ATOM     17  C   UNL     1      45.295   4.784  12.149  0.00  0.00    +0.000 C 
BRANCH  12  18
ATOM     18  C   UNL     1      43.827   3.734  10.313  0.00  0.00    +0.000 C 
BRANCH  18  19
ATOM     19  N   UNL     1      45.149   3.249   9.831  0.00  0.00    +0.000 NA
ATOM     20  H   UNL     1      45.909   3.630  10.393  0.00  0.00    +0.000 HD
BRANCH  19  22
ATOM     21  C   UNL     1      46.480   2.264   7.716  0.00  0.00    +0.000 C 
ATOM     22  S   UNL     1      45.444   3.626   8.200  0.00  0.00    +0.000 S 
ATOM     23  O   UNL     1      46.249   4.828   8.203  0.00  0.00    +0.000 OA
ATOM     24  O   UNL     1      44.188   3.550   7.491  0.00  0.00    +0.000 OA
ENDBRANCH  19  22
ENDBRANCH  18  19
ENDBRANCH  12  18
ENDBRANCH  11  15
ENDBRANCH   7  11
ENDBRANCH   1   7
BRANCH   4  25
ATOM     25  C   UNL     1      49.948   8.836  14.742  0.00  0.00    +0.000 C 
BRANCH  25  26
ATOM     26  N   UNL     1      49.702   7.807  15.717  0.00  0.00    +0.000 N 
ATOM     27  C   UNL     1      50.672   6.902  16.055  0.00  0.00    +0.000 C 
ATOM     28  O   UNL     1      51.803   6.950  15.580  0.00  0.00    +0.000 OA
ATOM     29  H   UNL     1      48.733   7.611  15.952  0.00  0.00    +0.000 HD
BRANCH  27  30
ATOM     30  C   UNL     1      50.304   5.905  17.068  0.00  0.00    +0.000 A 
ATOM     31  C   UNL     1      51.080   5.769  18.211  0.00  0.00    +0.000 A 
ATOM     32  S   UNL     1      50.488   4.600  19.302  0.00  0.00    +0.000 S 
ATOM     33  C   UNL     1      49.204   4.195  18.261  0.00  0.00    +0.000 A 
ATOM     34  N   UNL     1      48.318   3.223  18.586  0.00  0.00    +0.000 NA
ATOM     35  C   UNL     1      47.407   3.003  17.693  0.00  0.00    +0.000 A 
ATOM     36  N   UNL     1      47.304   3.682  16.506  0.00  0.00    +0.000 N 
ATOM     37  C   UNL     1      48.162   4.690  16.144  0.00  0.00    +0.000 A 
ATOM     38  O   UNL     1      48.020   5.305  15.092  0.00  0.00    +0.000 OA
ATOM     39  C   UNL     1      49.212   4.963  17.107  0.00  0.00    +0.000 A 
ATOM     40  H   UNL     1      46.559   3.472  15.853  0.00  0.00    +0.000 HD
ENDBRANCH  27  30
ENDBRANCH  25  26
ENDBRANCH   4  25
TORSDOF 10
ENDMDL
MODEL 8
REMARK VINA RESULT:    -5.671      3.668      9.481
REMARK INTER + INTRA:         -10.339
REMARK INTER:                  -8.336
REMARK INTRA:                  -2.003
REMARK UNBOUND:                -1.518
REMARK  Name = 
REMARK  11 active torsions:
REMARK  status: ('A' for Active; 'I' for Inactive)
REMARK    1  A    between atoms: C_1  and  S_2
REMARK    2  A    between atoms: S_2  and  N_5
REMARK    3  A    between atoms: N_5  and  C_6
REMARK    4  A    between atoms: C_6  and  C_7
REMARK    5  A    between atoms: N_10  and  C_11
REMARK    6  A    between atoms: C_11  and  C_12
REMARK    7  A    between atoms: C_12  and  N_13
REMARK    8  A    between atoms: C_12  and  C_14
REMARK    9  A    between atoms: C_17  and  C_18
REMARK   10  A    between atoms: C_18  and  N_19
REMARK   11  A    between atoms: C_20  and  C_22
REMARK                            x       y       z     vdW  Elec       q    Type
REMARK                         _______ _______ _______ _____ _____    ______ ____
ROOT
ATOM      1  C   UNL     1      51.812   8.859  15.220  0.00  0.00    +0.000 A 
ATOM      2  C   UNL     1      50.773   9.747  15.488  0.00  0.00    +0.000 A 
ATOM      3  C   UNL     1      49.800   9.960  14.516  0.00  0.00    +0.000 A 
ATOM      4  C   UNL     1      49.881   9.284  13.297  0.00  0.00    +0.000 A 
ATOM      5  C   UNL     1      50.971   8.444  13.104  0.00  0.00    +0.000 A 
ATOM      6  N   UNL     1      51.924   8.209  14.032  0.00  0.00    +0.000 NA
ENDROOT
BRANCH   1   7
ATOM      7  C   UNL     1      52.860   8.560  16.287  0.00  0.00    +0.000 C 
BRANCH   7   8
ATOM      8  N   UNL     1      54.090   9.346  16.071  0.00  0.00    +0.000 NA
ATOM      9  H   UNL     1      53.892  10.292  16.403  0.00  0.00    +0.000 HD
ATOM     10  H   UNL     1      54.226   9.441  15.065  0.00  0.00    +0.000 HD
ENDBRANCH   7   8
BRANCH   7  11
ATOM     11  C   UNL     1      53.109   7.016  16.316  0.00  0.00    +0.000 C 
BRANCH  11  15
ATOM     12  C   UNL     1      51.346   4.748  19.544  0.00  0.00    +0.000 C 
ATOM     13  C   UNL     1      51.704   6.225  19.777  0.00  0.00    +0.000 C 
ATOM     14  C   UNL     1      51.957   6.981  18.466  0.00  0.00    +0.000 C 
ATOM     15  N   UNL     1      52.984   6.335  17.634  0.00  0.00    +0.000 NA
ATOM     16  C   UNL     1      52.679   4.910  17.393  0.00  0.00    +0.000 C 
ATOM     17  C   UNL     1      52.472   4.139  18.697  0.00  0.00    +0.000 C 
BRANCH  12  18
ATOM     18  C   UNL     1      49.950   4.612  18.902  0.00  0.00    +0.000 C 
BRANCH  18  19
ATOM     19  N   UNL     1      49.711   3.214  18.450  0.00  0.00    +0.000 NA
ATOM     20  H   UNL     1      50.584   2.694  18.382  0.00  0.00    +0.000 HD
BRANCH  19  22
ATOM     21  C   UNL     1      47.235   2.845  17.476  0.00  0.00    +0.000 C 
ATOM     22  S   UNL     1      48.911   3.124  16.952  0.00  0.00    +0.000 S 
ATOM     23  O   UNL     1      49.392   1.920  16.311  0.00  0.00    +0.000 OA
ATOM     24  O   UNL     1      49.007   4.418  16.318  0.00  0.00    +0.000 OA
ENDBRANCH  19  22
ENDBRANCH  18  19
ENDBRANCH  12  18
ENDBRANCH  11  15
ENDBRANCH   7  11
ENDBRANCH   1   7
BRANCH   4  25
ATOM     25  C   UNL     1      48.877   9.486  12.204  0.00  0.00    +0.000 C 
BRANCH  25  26
ATOM     26  N   UNL     1      48.004   8.348  12.090  0.00  0.00    +0.000 N 
ATOM     27  C   UNL     1      46.657   8.461  12.310  0.00  0.00    +0.000 C 
ATOM     28  O   UNL     1      46.127   9.538  12.569  0.00  0.00    +0.000 OA
ATOM     29  H   UNL     1      48.434   7.428  12.099  0.00  0.00    +0.000 HD
BRANCH  27  30
ATOM     30  C   UNL     1      45.869   7.233  12.155  0.00  0.00    +0.000 A 
ATOM     31  C   UNL     1      44.654   7.276  11.485  0.00  0.00    +0.000 A 
ATOM     32  S   UNL     1      43.892   5.756  11.356  0.00  0.00    +0.000 S 
ATOM     33  C   UNL     1      45.132   4.994  12.238  0.00  0.00    +0.000 A 
ATOM     34  N   UNL     1      45.082   3.671  12.518  0.00  0.00    +0.000 NA
ATOM     35  C   UNL     1      46.079   3.228  13.216  0.00  0.00    +0.000 A 
ATOM     36  N   UNL     1      47.126   4.001  13.649  0.00  0.00    +0.000 N 
ATOM     37  C   UNL     1      47.232   5.341  13.370  0.00  0.00    +0.000 A 
ATOM     38  O   UNL     1      48.201   5.997  13.739  0.00  0.00    +0.000 OA
ATOM     39  C   UNL     1      46.129   5.887  12.603  0.00  0.00    +0.000 A 
ATOM     40  H   UNL     1      47.884   3.592  14.181  0.00  0.00    +0.000 HD
ENDBRANCH  27  30
ENDBRANCH  25  26
ENDBRANCH   4  25
TORSDOF 10
ENDMDL
MODEL 9
REMARK VINA RESULT:    -5.583      4.100      9.768
REMARK INTER + INTRA:         -10.202
REMARK INTER:                  -8.759
REMARK INTRA:                  -1.443
REMARK UNBOUND:                -1.518
REMARK  Name = 
REMARK  11 active torsions:
REMARK  status: ('A' for Active; 'I' for Inactive)
REMARK    1  A    between atoms: C_1  and  S_2
REMARK    2  A    between atoms: S_2  and  N_5
REMARK    3  A    between atoms: N_5  and  C_6
REMARK    4  A    between atoms: C_6  and  C_7
REMARK    5  A    between atoms: N_10  and  C_11
REMARK    6  A    between atoms: C_11  and  C_12
REMARK    7  A    between atoms: C_12  and  N_13
REMARK    8  A    between atoms: C_12  and  C_14
REMARK    9  A    between atoms: C_17  and  C_18
REMARK   10  A    between atoms: C_18  and  N_19
REMARK   11  A    between atoms: C_20  and  C_22
REMARK                            x       y       z     vdW  Elec       q    Type
REMARK                         _______ _______ _______ _____ _____    ______ ____
ROOT
ATOM      1  C   UNL     1      51.718   9.489  15.068  0.00  0.00    +0.000 A 
ATOM      2  C   UNL     1      50.925  10.580  14.719  0.00  0.00    +0.000 A 
ATOM      3  C   UNL     1      50.100  10.484  13.602  0.00  0.00    +0.000 A 
ATOM      4  C   UNL     1      50.081   9.304  12.855  0.00  0.00    +0.000 A 
ATOM      5  C   UNL     1      50.931   8.280  13.257  0.00  0.00    +0.000 A 
ATOM      6  N   UNL     1      51.733   8.340  14.342  0.00  0.00    +0.000 NA
ENDROOT
BRANCH   1   7
ATOM      7  C   UNL     1      52.587   9.542  16.319  0.00  0.00    +0.000 C 
BRANCH   7   8
ATOM      8  N   UNL     1      54.014   9.712  15.979  0.00  0.00    +0.000 NA
ATOM      9  H   UNL     1      54.102  10.635  15.550  0.00  0.00    +0.000 HD
ATOM     10  H   UNL     1      54.237   9.051  15.236  0.00  0.00    +0.000 HD
ENDBRANCH   7   8
BRANCH   7  11
ATOM     11  C   UNL     1      52.303   8.263  17.173  0.00  0.00    +0.000 C 
BRANCH  11  15
ATOM     12  C   UNL     1      48.984   6.964  19.617  0.00  0.00    +0.000 C 
ATOM     13  C   UNL     1      48.726   7.963  18.477  0.00  0.00    +0.000 C 
ATOM     14  C   UNL     1      49.893   8.033  17.483  0.00  0.00    +0.000 C 
ATOM     15  N   UNL     1      51.174   8.334  18.142  0.00  0.00    +0.000 NA
ATOM     16  C   UNL     1      51.456   7.399  19.250  0.00  0.00    +0.000 C 
ATOM     17  C   UNL     1      50.316   7.358  20.270  0.00  0.00    +0.000 C 
BRANCH  12  18
ATOM     18  C   UNL     1      48.959   5.512  19.097  0.00  0.00    +0.000 C 
BRANCH  18  19
ATOM     19  N   UNL     1      47.668   5.217  18.417  0.00  0.00    +0.000 NA
ATOM     20  H   UNL     1      46.955   4.932  19.086  0.00  0.00    +0.000 HD
BRANCH  19  22
ATOM     21  C   UNL     1      49.080   2.986  17.918  0.00  0.00    +0.000 C 
ATOM     22  S   UNL     1      47.801   4.010  17.226  0.00  0.00    +0.000 S 
ATOM     23  O   UNL     1      48.331   4.663  16.049  0.00  0.00    +0.000 OA
ATOM     24  O   UNL     1      46.559   3.273  17.198  0.00  0.00    +0.000 OA
ENDBRANCH  19  22
ENDBRANCH  18  19
ENDBRANCH  12  18
ENDBRANCH  11  15
ENDBRANCH   7  11
ENDBRANCH   1   7
BRANCH   4  25
ATOM     25  C   UNL     1      49.230   9.148  11.632  0.00  0.00    +0.000 C 
BRANCH  25  26
ATOM     26  N   UNL     1      48.343   8.022  11.763  0.00  0.00    +0.000 N 
ATOM     27  C   UNL     1      47.209   8.097  12.528  0.00  0.00    +0.000 C 
ATOM     28  O   UNL     1      46.874   9.131  13.098  0.00  0.00    +0.000 OA
ATOM     29  H   UNL     1      48.702   7.112  11.493  0.00  0.00    +0.000 HD
BRANCH  27  30
ATOM     30  C   UNL     1      46.379   6.888  12.577  0.00  0.00    +0.000 A 
ATOM     31  C   UNL     1      46.895   5.722  13.128  0.00  0.00    +0.000 A 
ATOM     32  S   UNL     1      45.786   4.428  13.147  0.00  0.00    +0.000 S 
ATOM     33  C   UNL     1      44.593   5.361  12.370  0.00  0.00    +0.000 A 
ATOM     34  N   UNL     1      43.386   4.835  12.056  0.00  0.00    +0.000 NA
ATOM     35  C   UNL     1      42.584   5.650  11.447  0.00  0.00    +0.000 A 
ATOM     36  N   UNL     1      42.890   6.949  11.134  0.00  0.00    +0.000 N 
ATOM     37  C   UNL     1      44.090   7.534  11.454  0.00  0.00    +0.000 A 
ATOM     38  O   UNL     1      44.318   8.711  11.196  0.00  0.00    +0.000 OA
ATOM     39  C   UNL     1      45.029   6.654  12.124  0.00  0.00    +0.000 A 
ATOM     40  H   UNL     1      42.213   7.541  10.669  0.00  0.00    +0.000 HD
ENDBRANCH  27  30
ENDBRANCH  25  26
ENDBRANCH   4  25
TORSDOF 10
ENDMDL
