MODEL 1
REMARK VINA RESULT:    -7.414      0.000      0.000
REMARK INTER + INTRA:          -9.662
REMARK INTER:                  -9.364
REMARK INTRA:                  -0.298
REMARK UNBOUND:                -0.298
REMARK  Name = 
REMARK  7 active torsions:
REMARK  status: ('A' for Active; 'I' for Inactive)
REMARK    1  A    between atoms: C_1  and  C_2
REMARK    2  A    between atoms: C_2  and  C_3
REMARK    3  A    between atoms: C_2  and  N_4
REMARK    4  A    between atoms: C_2  and  C_5
REMARK    5  A    between atoms: C_5  and  C_6
REMARK    6  A    between atoms: C_9  and  C_10
REMARK    7  A    between atoms: C_10  and  N_11
REMARK                            x       y       z     vdW  Elec       q    Type
REMARK                         _______ _______ _______ _____ _____    ______ ____
ROOT
ATOM      1  C   UNL     1      45.071   3.232   8.382  0.00  0.00    +0.000 A 
ATOM      2  C   UNL     1      44.531   2.255   9.221  0.00  0.00    +0.000 A 
ATOM      3  C   UNL     1      44.216   2.573  10.541  0.00  0.00    +0.000 A 
ATOM      4  C   UNL     1      44.447   3.870  10.997  0.00  0.00    +0.000 A 
ATOM      5  N   UNL     1      44.991   4.828  10.202  0.00  0.00    +0.000 NA
ATOM      6  C   UNL     1      45.292   4.489   8.930  0.00  0.00    +0.000 A 
ENDROOT
BRANCH   1   7
ATOM      7  C   UNL     1      45.347   2.948   6.925  0.00  0.00    +0.000 C 
BRANCH   7   9
ATOM      8  C   UNL     1      46.991   2.586   5.051  0.00  0.00    +0.000 C 
ATOM      9  C   UNL     1      46.836   2.650   6.580  0.00  0.00    +0.000 C 
ATOM     10  C   UNL     1      47.306   1.315   7.182  0.00  0.00    +0.000 C 
BRANCH   9  11
ATOM     11  N   UNL     1      47.716   3.726   7.062  0.00  0.00    +0.000 NA
ATOM     12  H   UNL     1      47.586   3.859   8.066  0.00  0.00    +0.000 HD
ATOM     13  H   UNL     1      47.439   4.610   6.632  0.00  0.00    +0.000 HD
ENDBRANCH   9  11
ENDBRANCH   7   9
ENDBRANCH   1   7
BRANCH   4  14
ATOM     14  C   UNL     1      44.168   4.260  12.423  0.00  0.00    +0.000 C 
BRANCH  14  15
ATOM     15  N   UNL     1      45.363   4.640  13.152  0.00  0.00    +0.000 N 
ATOM     16  N   UNL     1      46.155   3.675  13.673  0.00  0.00    +0.000 NA
ATOM     17  N   UNL     1      47.281   4.251  14.071  0.00  0.00    +0.000 NA
ATOM     18  C   UNL     1      47.190   5.592  13.808  0.00  0.00    +0.000 A 
ATOM     19  C   UNL     1      48.116   6.625  14.006  0.00  0.00    +0.000 A 
ATOM     20  C   UNL     1      47.749   7.929  13.643  0.00  0.00    +0.000 A 
ATOM     21  C   UNL     1      46.487   8.192  13.103  0.00  0.00    +0.000 A 
ATOM     22  C   UNL     1      45.555   7.170  12.887  0.00  0.00    +0.000 A 
ATOM     23  C   UNL     1      45.950   5.875  13.246  0.00  0.00    +0.000 A 
ENDBRANCH  14  15
ENDBRANCH   4  14
TORSDOF 5
ENDMDL
MODEL 2
REMARK VINA RESULT:    -7.066      1.431      6.967
REMARK INTER + INTRA:          -9.223
REMARK INTER:                  -9.007
REMARK INTRA:                  -0.217
REMARK UNBOUND:                -0.298
REMARK  Name = 
REMARK  7 active torsions:
REMARK  status: ('A' for Active; 'I' for Inactive)
REMARK    1  A    between atoms: C_1  and  C_2
REMARK    2  A    between atoms: C_2  and  C_3
REMARK    3  A    between atoms: C_2  and  N_4
REMARK    4  A    between atoms: C_2  and  C_5
REMARK    5  A    between atoms: C_5  and  C_6
REMARK    6  A    between atoms: C_9  and  C_10
REMARK    7  A    between atoms: C_10  and  N_11
REMARK                            x       y       z     vdW  Elec       q    Type
REMARK                         _______ _______ _______ _____ _____    ______ ____
ROOT
ATOM      1  C   UNL     1      46.443   5.146  13.483  0.00  0.00    +0.000 A 
ATOM      2  C   UNL     1      45.755   6.014  12.633  0.00  0.00    +0.000 A 
ATOM      3  C   UNL     1      45.044   5.503  11.548  0.00  0.00    +0.000 A 
ATOM      4  C   UNL     1      45.033   4.124  11.337  0.00  0.00    +0.000 A 
ATOM      5  N   UNL     1      45.713   3.267  12.142  0.00  0.00    +0.000 NA
ATOM      6  C   UNL     1      46.399   3.791  13.180  0.00  0.00    +0.000 A 
ENDROOT
BRANCH   1   7
ATOM      7  C   UNL     1      47.155   5.656  14.713  0.00  0.00    +0.000 C 
BRANCH   7   9
ATOM      8  C   UNL     1      49.309   6.591  15.624  0.00  0.00    +0.000 C 
ATOM      9  C   UNL     1      48.332   6.639  14.438  0.00  0.00    +0.000 C 
ATOM     10  C   UNL     1      47.839   8.084  14.258  0.00  0.00    +0.000 C 
BRANCH   9  11
ATOM     11  N   UNL     1      49.083   6.238  13.238  0.00  0.00    +0.000 NA
ATOM     12  H   UNL     1      49.438   7.066  12.757  0.00  0.00    +0.000 HD
ATOM     13  H   UNL     1      48.451   5.788  12.574  0.00  0.00    +0.000 HD
ENDBRANCH   9  11
ENDBRANCH   7   9
ENDBRANCH   1   7
BRANCH   4  14
ATOM     14  C   UNL     1      44.319   3.518  10.161  0.00  0.00    +0.000 C 
BRANCH  14  15
ATOM     15  N   UNL     1      45.105   3.549   8.942  0.00  0.00    +0.000 N 
ATOM     16  N   UNL     1      45.433   4.742   8.395  0.00  0.00    +0.000 NA
ATOM     17  N   UNL     1      46.334   4.517   7.450  0.00  0.00    +0.000 NA
ATOM     18  C   UNL     1      46.566   3.169   7.394  0.00  0.00    +0.000 A 
ATOM     19  C   UNL     1      47.447   2.427   6.595  0.00  0.00    +0.000 A 
ATOM     20  C   UNL     1      47.474   1.034   6.748  0.00  0.00    +0.000 A 
ATOM     21  C   UNL     1      46.638   0.399   7.671  0.00  0.00    +0.000 A 
ATOM     22  C   UNL     1      45.762   1.127   8.486  0.00  0.00    +0.000 A 
ATOM     23  C   UNL     1      45.762   2.517   8.323  0.00  0.00    +0.000 A 
ENDBRANCH  14  15
ENDBRANCH   4  14
TORSDOF 5
ENDMDL
MODEL 3
REMARK VINA RESULT:    -7.015      1.944      6.549
REMARK INTER + INTRA:          -9.159
REMARK INTER:                  -8.672
REMARK INTRA:                  -0.487
REMARK UNBOUND:                -0.298
REMARK  Name = 
REMARK  7 active torsions:
REMARK  status: ('A' for Active; 'I' for Inactive)
REMARK    1  A    between atoms: C_1  and  C_2
REMARK    2  A    between atoms: C_2  and  C_3
REMARK    3  A    between atoms: C_2  and  N_4
REMARK    4  A    between atoms: C_2  and  C_5
REMARK    5  A    between atoms: C_5  and  C_6
REMARK    6  A    between atoms: C_9  and  C_10
REMARK    7  A    between atoms: C_10  and  N_11
REMARK                            x       y       z     vdW  Elec       q    Type
REMARK                         _______ _______ _______ _____ _____    ______ ____
ROOT
ATOM      1  C   UNL     1      46.587   7.799  13.051  0.00  0.00    +0.000 A 
ATOM      2  C   UNL     1      45.780   8.502  12.156  0.00  0.00    +0.000 A 
ATOM      3  C   UNL     1      44.741   7.846  11.497  0.00  0.00    +0.000 A 
ATOM      4  C   UNL     1      44.528   6.492  11.753  0.00  0.00    +0.000 A 
ATOM      5  N   UNL     1      45.317   5.787  12.606  0.00  0.00    +0.000 NA
ATOM      6  C   UNL     1      46.319   6.447  13.223  0.00  0.00    +0.000 A 
ENDROOT
BRANCH   1   7
ATOM      7  C   UNL     1      47.668   8.495  13.844  0.00  0.00    +0.000 C 
BRANCH   7   9
ATOM      8  C   UNL     1      50.013   9.415  13.847  0.00  0.00    +0.000 C 
ATOM      9  C   UNL     1      49.118   8.286  13.311  0.00  0.00    +0.000 C 
ATOM     10  C   UNL     1      49.169   8.298  11.774  0.00  0.00    +0.000 C 
BRANCH   9  11
ATOM     11  N   UNL     1      49.680   7.016  13.797  0.00  0.00    +0.000 NA
ATOM     12  H   UNL     1      50.666   7.140  14.035  0.00  0.00    +0.000 HD
ATOM     13  H   UNL     1      49.666   6.327  13.044  0.00  0.00    +0.000 HD
ENDBRANCH   9  11
ENDBRANCH   7   9
ENDBRANCH   1   7
BRANCH   4  14
ATOM     14  C   UNL     1      43.451   5.721  11.042  0.00  0.00    +0.000 C 
BRANCH  14  15
ATOM     15  N   UNL     1      43.851   4.368  10.702  0.00  0.00    +0.000 N 
ATOM     16  N   UNL     1      43.225   3.324  11.292  0.00  0.00    +0.000 NA
ATOM     17  N   UNL     1      43.591   2.222  10.653  0.00  0.00    +0.000 NA
ATOM     18  C   UNL     1      44.463   2.576   9.658  0.00  0.00    +0.000 A 
ATOM     19  C   UNL     1      45.106   1.796   8.687  0.00  0.00    +0.000 A 
ATOM     20  C   UNL     1      45.965   2.431   7.780  0.00  0.00    +0.000 A 
ATOM     21  C   UNL     1      46.180   3.811   7.847  0.00  0.00    +0.000 A 
ATOM     22  C   UNL     1      45.536   4.607   8.802  0.00  0.00    +0.000 A 
ATOM     23  C   UNL     1      44.674   3.951   9.688  0.00  0.00    +0.000 A 
ENDBRANCH  14  15
ENDBRANCH   4  14
TORSDOF 5
ENDMDL
MODEL 4
REMARK VINA RESULT:    -6.419      1.404      2.017
REMARK INTER + INTRA:          -8.405
REMARK INTER:                  -8.211
REMARK INTRA:                  -0.194
REMARK UNBOUND:                -0.298
REMARK  Name = 
REMARK  7 active torsions:
REMARK  status: ('A' for Active; 'I' for Inactive)
REMARK    1  A    between atoms: C_1  and  C_2
REMARK    2  A    between atoms: C_2  and  C_3
REMARK    3  A    between atoms: C_2  and  N_4
REMARK    4  A    between atoms: C_2  and  C_5
REMARK    5  A    between atoms: C_5  and  C_6
REMARK    6  A    between atoms: C_9  and  C_10
REMARK    7  A    between atoms: C_10  and  N_11
REMARK                            x       y       z     vdW  Elec       q    Type
REMARK                         _______ _______ _______ _____ _____    ______ ____
ROOT
ATOM      1  C   UNL     1      45.336   3.592   8.589  0.00  0.00    +0.000 A 
ATOM      2  C   UNL     1      44.854   2.767   9.607  0.00  0.00    +0.000 A 
ATOM      3  C   UNL     1      44.727   3.268  10.901  0.00  0.00    +0.000 A 
ATOM      4  C   UNL     1      45.084   4.592  11.152  0.00  0.00    +0.000 A 
ATOM      5  N   UNL     1      45.575   5.402  10.178  0.00  0.00    +0.000 NA
ATOM      6  C   UNL     1      45.694   4.888   8.936  0.00  0.00    +0.000 A 
ENDROOT
BRANCH   1   7
ATOM      7  C   UNL     1      45.410   3.110   7.159  0.00  0.00    +0.000 C 
BRANCH   7   9
ATOM      8  C   UNL     1      46.822   2.524   5.157  0.00  0.00    +0.000 C 
ATOM      9  C   UNL     1      46.820   2.642   6.690  0.00  0.00    +0.000 C 
ATOM     10  C   UNL     1      47.200   1.279   7.294  0.00  0.00    +0.000 C 
BRANCH   9  11
ATOM     11  N   UNL     1      47.850   3.628   7.053  0.00  0.00    +0.000 NA
ATOM     12  H   UNL     1      47.459   4.321   7.693  0.00  0.00    +0.000 HD
ATOM     13  H   UNL     1      48.128   4.151   6.221  0.00  0.00    +0.000 HD
ENDBRANCH   9  11
ENDBRANCH   7   9
ENDBRANCH   1   7
BRANCH   4  14
ATOM     14  C   UNL     1      45.009   5.175  12.536  0.00  0.00    +0.000 C 
BRANCH  14  15
ATOM     15  N   UNL     1      45.555   6.517  12.617  0.00  0.00    +0.000 N 
ATOM     16  N   UNL     1      44.719   7.578  12.538  0.00  0.00    +0.000 NA
ATOM     17  N   UNL     1      45.409   8.659  12.874  0.00  0.00    +0.000 NA
ATOM     18  C   UNL     1      46.693   8.275  13.156  0.00  0.00    +0.000 A 
ATOM     19  C   UNL     1      47.796   9.024  13.588  0.00  0.00    +0.000 A 
ATOM     20  C   UNL     1      49.013   8.361  13.798  0.00  0.00    +0.000 A 
ATOM     21  C   UNL     1      49.126   6.986  13.575  0.00  0.00    +0.000 A 
ATOM     22  C   UNL     1      48.030   6.220  13.157  0.00  0.00    +0.000 A 
ATOM     23  C   UNL     1      46.824   6.903  12.966  0.00  0.00    +0.000 A 
ENDBRANCH  14  15
ENDBRANCH   4  14
TORSDOF 5
ENDMDL
MODEL 5
REMARK VINA RESULT:    -6.046      1.970      6.911
REMARK INTER + INTRA:          -7.934
REMARK INTER:                  -8.014
REMARK INTRA:                   0.080
REMARK UNBOUND:                -0.298
REMARK  Name = 
REMARK  7 active torsions:
REMARK  status: ('A' for Active; 'I' for Inactive)
REMARK    1  A    between atoms: C_1  and  C_2
REMARK    2  A    between atoms: C_2  and  C_3
REMARK    3  A    between atoms: C_2  and  N_4
REMARK    4  A    between atoms: C_2  and  C_5
REMARK    5  A    between atoms: C_5  and  C_6
REMARK    6  A    between atoms: C_9  and  C_10
REMARK    7  A    between atoms: C_10  and  N_11
REMARK                            x       y       z     vdW  Elec       q    Type
REMARK                         _______ _______ _______ _____ _____    ______ ____
ROOT
ATOM      1  C   UNL     1      46.564   6.301  12.636  0.00  0.00    +0.000 A 
ATOM      2  C   UNL     1      46.822   6.622  11.302  0.00  0.00    +0.000 A 
ATOM      3  C   UNL     1      46.105   5.992  10.287  0.00  0.00    +0.000 A 
ATOM      4  C   UNL     1      45.136   5.049  10.629  0.00  0.00    +0.000 A 
ATOM      5  N   UNL     1      44.886   4.709  11.920  0.00  0.00    +0.000 NA
ATOM      6  C   UNL     1      45.601   5.331  12.882  0.00  0.00    +0.000 A 
ENDROOT
BRANCH   1   7
ATOM      7  C   UNL     1      47.262   7.022  13.764  0.00  0.00    +0.000 C 
BRANCH   7   9
ATOM      8  C   UNL     1      48.189   8.951  12.436  0.00  0.00    +0.000 C 
ATOM      9  C   UNL     1      47.302   8.574  13.634  0.00  0.00    +0.000 C 
ATOM     10  C   UNL     1      47.867   9.240  14.899  0.00  0.00    +0.000 C 
BRANCH   9  11
ATOM     11  N   UNL     1      45.959   9.116  13.368  0.00  0.00    +0.000 NA
ATOM     12  H   UNL     1      45.395   9.080  14.219  0.00  0.00    +0.000 HD
ATOM     13  H   UNL     1      45.478   8.517  12.696  0.00  0.00    +0.000 HD
ENDBRANCH   9  11
ENDBRANCH   7   9
ENDBRANCH   1   7
BRANCH   4  14
ATOM     14  C   UNL     1      44.360   4.306   9.577  0.00  0.00    +0.000 C 
BRANCH  14  15
ATOM     15  N   UNL     1      45.050   3.126   9.090  0.00  0.00    +0.000 N 
ATOM     16  N   UNL     1      44.639   1.903   9.499  0.00  0.00    +0.000 NA
ATOM     17  N   UNL     1      45.253   1.001   8.747  0.00  0.00    +0.000 NA
ATOM     18  C   UNL     1      46.066   1.662   7.865  0.00  0.00    +0.000 A 
ATOM     19  C   UNL     1      46.894   1.175   6.845  0.00  0.00    +0.000 A 
ATOM     20  C   UNL     1      47.631   2.094   6.086  0.00  0.00    +0.000 A 
ATOM     21  C   UNL     1      47.547   3.465   6.345  0.00  0.00    +0.000 A 
ATOM     22  C   UNL     1      46.714   3.970   7.352  0.00  0.00    +0.000 A 
ATOM     23  C   UNL     1      45.979   3.033   8.087  0.00  0.00    +0.000 A 
ENDBRANCH  14  15
ENDBRANCH   4  14
TORSDOF 5
ENDMDL
MODEL 6
REMARK VINA RESULT:    -5.847      3.652      8.341
REMARK INTER + INTRA:          -7.683
REMARK INTER:                  -7.427
REMARK INTRA:                  -0.255
REMARK UNBOUND:                -0.298
REMARK  Name = 
REMARK  7 active torsions:
REMARK  status: ('A' for Active; 'I' for Inactive)
REMARK    1  A    between atoms: C_1  and  C_2
REMARK    2  A    between atoms: C_2  and  C_3
REMARK    3  A    between atoms: C_2  and  N_4
REMARK    4  A    between atoms: C_2  and  C_5
REMARK    5  A    between atoms: C_5  and  C_6
REMARK    6  A    between atoms: C_9  and  C_10
REMARK    7  A    between atoms: C_10  and  N_11
REMARK                            x       y       z     vdW  Elec       q    Type
REMARK                         _______ _______ _______ _____ _____    ______ ____
ROOT
ATOM      1  C   UNL     1      48.636   5.961  16.952  0.00  0.00    +0.000 A 
ATOM      2  C   UNL     1      48.937   7.135  16.260  0.00  0.00    +0.000 A 
ATOM      3  C   UNL     1      48.650   7.229  14.899  0.00  0.00    +0.000 A 
ATOM      4  C   UNL     1      48.062   6.142  14.255  0.00  0.00    +0.000 A 
ATOM      5  N   UNL     1      47.781   4.984  14.908  0.00  0.00    +0.000 NA
ATOM      6  C   UNL     1      48.076   4.919  16.223  0.00  0.00    +0.000 A 
ENDROOT
BRANCH   1   7
ATOM      7  C   UNL     1      48.856   5.851  18.442  0.00  0.00    +0.000 C 
BRANCH   7   9
ATOM      8  C   UNL     1      47.375   7.723  19.247  0.00  0.00    +0.000 C 
ATOM      9  C   UNL     1      47.619   6.206  19.321  0.00  0.00    +0.000 C 
ATOM     10  C   UNL     1      47.831   5.809  20.791  0.00  0.00    +0.000 C 
BRANCH   9  11
ATOM     11  N   UNL     1      46.406   5.544  18.817  0.00  0.00    +0.000 NA
ATOM     12  H   UNL     1      45.607   6.175  18.897  0.00  0.00    +0.000 HD
ATOM     13  H   UNL     1      46.183   4.745  19.412  0.00  0.00    +0.000 HD
ENDBRANCH   9  11
ENDBRANCH   7   9
ENDBRANCH   1   7
BRANCH   4  14
ATOM     14  C   UNL     1      47.768   6.169  12.780  0.00  0.00    +0.000 C 
BRANCH  14  15
ATOM     15  N   UNL     1      46.365   6.388  12.484  0.00  0.00    +0.000 N 
ATOM     16  N   UNL     1      45.941   7.633  12.167  0.00  0.00    +0.000 NA
ATOM     17  N   UNL     1      44.700   7.531  11.713  0.00  0.00    +0.000 NA
ATOM     18  C   UNL     1      44.336   6.212  11.757  0.00  0.00    +0.000 A 
ATOM     19  C   UNL     1      43.150   5.578  11.362  0.00  0.00    +0.000 A 
ATOM     20  C   UNL     1      43.047   4.190  11.528  0.00  0.00    +0.000 A 
ATOM     21  C   UNL     1      44.101   3.456  12.081  0.00  0.00    +0.000 A 
ATOM     22  C   UNL     1      45.297   4.071  12.469  0.00  0.00    +0.000 A 
ATOM     23  C   UNL     1      45.380   5.456  12.282  0.00  0.00    +0.000 A 
ENDBRANCH  14  15
ENDBRANCH   4  14
TORSDOF 5
ENDMDL
MODEL 7
REMARK VINA RESULT:    -5.797      5.041      6.999
REMARK INTER + INTRA:          -7.620
REMARK INTER:                  -7.551
REMARK INTRA:                  -0.069
REMARK UNBOUND:                -0.298
REMARK  Name = 
REMARK  7 active torsions:
REMARK  status: ('A' for Active; 'I' for Inactive)
REMARK    1  A    between atoms: C_1  and  C_2
REMARK    2  A    between atoms: C_2  and  C_3
REMARK    3  A    between atoms: C_2  and  N_4
REMARK    4  A    between atoms: C_2  and  C_5
REMARK    5  A    between atoms: C_5  and  C_6
REMARK    6  A    between atoms: C_9  and  C_10
REMARK    7  A    between atoms: C_10  and  N_11
REMARK                            x       y       z     vdW  Elec       q    Type
REMARK                         _______ _______ _______ _____ _____    ______ ____
ROOT
ATOM      1  C   UNL     1      48.028   6.734  13.327  0.00  0.00    +0.000 A 
ATOM      2  C   UNL     1      47.072   5.739  13.120  0.00  0.00    +0.000 A 
ATOM      3  C   UNL     1      46.820   4.802  14.122  0.00  0.00    +0.000 A 
ATOM      4  C   UNL     1      47.534   4.882  15.317  0.00  0.00    +0.000 A 
ATOM      5  N   UNL     1      48.483   5.831  15.526  0.00  0.00    +0.000 NA
ATOM      6  C   UNL     1      48.710   6.720  14.537  0.00  0.00    +0.000 A 
ENDROOT
BRANCH   1   7
ATOM      7  C   UNL     1      48.269   7.815  12.299  0.00  0.00    +0.000 C 
BRANCH   7   9
ATOM      8  C   UNL     1      46.022   8.952  12.319  0.00  0.00    +0.000 C 
ATOM      9  C   UNL     1      47.526   9.158  12.566  0.00  0.00    +0.000 C 
ATOM     10  C   UNL     1      48.030  10.282  11.646  0.00  0.00    +0.000 C 
BRANCH   9  11
ATOM     11  N   UNL     1      47.684   9.580  13.966  0.00  0.00    +0.000 NA
ATOM     12  H   UNL     1      47.587  10.594  14.037  0.00  0.00    +0.000 HD
ATOM     13  H   UNL     1      48.635   9.375  14.278  0.00  0.00    +0.000 HD
ENDBRANCH   9  11
ENDBRANCH   7   9
ENDBRANCH   1   7
BRANCH   4  14
ATOM     14  C   UNL     1      47.337   3.875  16.416  0.00  0.00    +0.000 C 
BRANCH  14  15
ATOM     15  N   UNL     1      48.532   3.104  16.700  0.00  0.00    +0.000 N 
ATOM     16  N   UNL     1      48.790   1.990  15.976  0.00  0.00    +0.000 NA
ATOM     17  N   UNL     1      50.029   1.609  16.254  0.00  0.00    +0.000 NA
ATOM     18  C   UNL     1      50.550   2.483  17.169  0.00  0.00    +0.000 A 
ATOM     19  C   UNL     1      51.821   2.541  17.756  0.00  0.00    +0.000 A 
ATOM     20  C   UNL     1      52.084   3.560  18.682  0.00  0.00    +0.000 A 
ATOM     21  C   UNL     1      51.099   4.493  19.017  0.00  0.00    +0.000 A 
ATOM     22  C   UNL     1      49.828   4.458  18.430  0.00  0.00    +0.000 A 
ATOM     23  C   UNL     1      49.594   3.439  17.500  0.00  0.00    +0.000 A 
ENDBRANCH  14  15
ENDBRANCH   4  14
TORSDOF 5
ENDMDL
MODEL 8
REMARK VINA RESULT:    -5.716      3.598      8.207
REMARK INTER + INTRA:          -7.518
REMARK INTER:                  -7.220
REMARK INTRA:                  -0.299
REMARK UNBOUND:                -0.298
REMARK  Name = 
REMARK  7 active torsions:
REMARK  status: ('A' for Active; 'I' for Inactive)
REMARK    1  A    between atoms: C_1  and  C_2
REMARK    2  A    between atoms: C_2  and  C_3
REMARK    3  A    between atoms: C_2  and  N_4
REMARK    4  A    between atoms: C_2  and  C_5
REMARK    5  A    between atoms: C_5  and  C_6
REMARK    6  A    between atoms: C_9  and  C_10
REMARK    7  A    between atoms: C_10  and  N_11
REMARK                            x       y       z     vdW  Elec       q    Type
REMARK                         _______ _______ _______ _____ _____    ______ ____
ROOT
ATOM      1  C   UNL     1      48.368   5.725  17.102  0.00  0.00    +0.000 A 
ATOM      2  C   UNL     1      48.861   6.830  16.407  0.00  0.00    +0.000 A 
ATOM      3  C   UNL     1      48.658   6.929  15.031  0.00  0.00    +0.000 A 
ATOM      4  C   UNL     1      47.959   5.915  14.376  0.00  0.00    +0.000 A 
ATOM      5  N   UNL     1      47.491   4.823  15.034  0.00  0.00    +0.000 NA
ATOM      6  C   UNL     1      47.708   4.750  16.364  0.00  0.00    +0.000 A 
ENDROOT
BRANCH   1   7
ATOM      7  C   UNL     1      48.496   5.623  18.604  0.00  0.00    +0.000 C 
BRANCH   7   9
ATOM      8  C   UNL     1      50.061   4.891  20.436  0.00  0.00    +0.000 C 
ATOM      9  C   UNL     1      49.404   4.464  19.113  0.00  0.00    +0.000 C 
ATOM     10  C   UNL     1      50.507   4.114  18.100  0.00  0.00    +0.000 C 
BRANCH   9  11
ATOM     11  N   UNL     1      48.611   3.256  19.391  0.00  0.00    +0.000 NA
ATOM     12  H   UNL     1      48.408   2.765  18.519  0.00  0.00    +0.000 HD
ATOM     13  H   UNL     1      47.701   3.525  19.769  0.00  0.00    +0.000 HD
ENDBRANCH   9  11
ENDBRANCH   7   9
ENDBRANCH   1   7
BRANCH   4  14
ATOM     14  C   UNL     1      47.746   5.946  12.888  0.00  0.00    +0.000 C 
BRANCH  14  15
ATOM     15  N   UNL     1      46.359   6.153  12.517  0.00  0.00    +0.000 N 
ATOM     16  N   UNL     1      45.949   7.389  12.151  0.00  0.00    +0.000 NA
ATOM     17  N   UNL     1      44.732   7.272  11.637  0.00  0.00    +0.000 NA
ATOM     18  C   UNL     1      44.370   5.953  11.692  0.00  0.00    +0.000 A 
ATOM     19  C   UNL     1      43.208   5.306  11.251  0.00  0.00    +0.000 A 
ATOM     20  C   UNL     1      43.100   3.921  11.442  0.00  0.00    +0.000 A 
ATOM     21  C   UNL     1      44.126   3.204  12.064  0.00  0.00    +0.000 A 
ATOM     22  C   UNL     1      45.300   3.832  12.499  0.00  0.00    +0.000 A 
ATOM     23  C   UNL     1      45.388   5.213  12.285  0.00  0.00    +0.000 A 
ENDBRANCH  14  15
ENDBRANCH   4  14
TORSDOF 5
ENDMDL
MODEL 9
REMARK VINA RESULT:    -5.611      2.394      6.840
REMARK INTER + INTRA:          -7.385
REMARK INTER:                  -7.162
REMARK INTRA:                  -0.223
REMARK UNBOUND:                -0.298
REMARK  Name = 
REMARK  7 active torsions:
REMARK  status: ('A' for Active; 'I' for Inactive)
REMARK    1  A    between atoms: C_1  and  C_2
REMARK    2  A    between atoms: C_2  and  C_3
REMARK    3  A    between atoms: C_2  and  N_4
REMARK    4  A    between atoms: C_2  and  C_5
REMARK    5  A    between atoms: C_5  and  C_6
REMARK    6  A    between atoms: C_9  and  C_10
REMARK    7  A    between atoms: C_10  and  N_11
REMARK                            x       y       z     vdW  Elec       q    Type
REMARK                         _______ _______ _______ _____ _____    ______ ____
ROOT
ATOM      1  C   UNL     1      48.742   8.193  12.199  0.00  0.00    +0.000 A 
ATOM      2  C   UNL     1      47.609   9.000  12.084  0.00  0.00    +0.000 A 
ATOM      3  C   UNL     1      46.343   8.447  12.272  0.00  0.00    +0.000 A 
ATOM      4  C   UNL     1      46.236   7.090  12.576  0.00  0.00    +0.000 A 
ATOM      5  N   UNL     1      47.327   6.286  12.671  0.00  0.00    +0.000 NA
ATOM      6  C   UNL     1      48.539   6.847  12.477  0.00  0.00    +0.000 A 
ENDROOT
BRANCH   1   7
ATOM      7  C   UNL     1      50.132   8.772  12.084  0.00  0.00    +0.000 C 
BRANCH   7   9
ATOM      8  C   UNL     1      50.146   8.771  14.603  0.00  0.00    +0.000 C 
ATOM      9  C   UNL     1      50.646   9.515  13.353  0.00  0.00    +0.000 C 
ATOM     10  C   UNL     1      50.144  10.968  13.407  0.00  0.00    +0.000 C 
BRANCH   9  11
ATOM     11  N   UNL     1      52.116   9.516  13.405  0.00  0.00    +0.000 NA
ATOM     12  H   UNL     1      52.439   8.890  14.145  0.00  0.00    +0.000 HD
ATOM     13  H   UNL     1      52.447  10.445  13.671  0.00  0.00    +0.000 HD
ENDBRANCH   9  11
ENDBRANCH   7   9
ENDBRANCH   1   7
BRANCH   4  14
ATOM     14  C   UNL     1      44.897   6.429  12.747  0.00  0.00    +0.000 C 
BRANCH  14  15
ATOM     15  N   UNL     1      44.883   5.050  12.299  0.00  0.00    +0.000 N 
ATOM     16  N   UNL     1      44.561   4.072  13.177  0.00  0.00    +0.000 NA
ATOM     17  N   UNL     1      44.385   2.954  12.486  0.00  0.00    +0.000 NA
ATOM     18  C   UNL     1      44.610   3.229  11.164  0.00  0.00    +0.000 A 
ATOM     19  C   UNL     1      44.522   2.407  10.032  0.00  0.00    +0.000 A 
ATOM     20  C   UNL     1      44.817   2.962   8.779  0.00  0.00    +0.000 A 
ATOM     21  C   UNL     1      45.196   4.303   8.662  0.00  0.00    +0.000 A 
ATOM     22  C   UNL     1      45.276   5.141   9.781  0.00  0.00    +0.000 A 
ATOM     23  C   UNL     1      44.965   4.567  11.019  0.00  0.00    +0.000 A 
ENDBRANCH  14  15
ENDBRANCH   4  14
TORSDOF 5
ENDMDL
