MODEL 1
REMARK VINA RESULT:    -9.209      0.000      0.000
REMARK INTER + INTRA:         -12.670
REMARK INTER:                 -11.901
REMARK INTRA:                  -0.769
REMARK UNBOUND:                -0.769
REMARK  Name = 
REMARK  8 active torsions:
REMARK  status: ('A' for Active; 'I' for Inactive)
REMARK    1  A    between atoms: C_1  and  C_2
REMARK    2  A    between atoms: C_9  and  C_10
REMARK    3  A    between atoms: C_10  and  C_11
REMARK    4  A    between atoms: C_10  and  C_12
REMARK    5  A    between atoms: C_12  and  N_13
REMARK    6  A    between atoms: N_13  and  C_14
REMARK    7  A    between atoms: C_17  and  C_18
REMARK    8  A    between atoms: C_26  and  C_27
REMARK                            x       y       z     vdW  Elec       q    Type
REMARK                         _______ _______ _______ _____ _____    ______ ____
ROOT
ATOM      1  C   UNL     1      44.527   4.048  13.145  0.00  0.00    +0.000 C 
ATOM      2  C   UNL     1      43.408   5.034  12.797  0.00  0.00    +0.000 C 
ENDROOT
BRANCH   1  11
ATOM      3  C   UNL     1      48.626   2.166  16.639  0.00  0.00    +0.000 C 
ATOM      4  C   UNL     1      48.360   3.252  17.681  0.00  0.00    +0.000 C 
ATOM      5  C   UNL     1      47.347   4.309  17.200  0.00  0.00    +0.000 C 
ATOM      6  N   UNL     1      47.970   5.201  16.230  0.00  0.00    +0.000 N 
ATOM      7  C   UNL     1      47.469   5.337  14.964  0.00  0.00    +0.000 A 
ATOM      8  N   UNL     1      48.087   6.146  14.094  0.00  0.00    +0.000 NA
ATOM      9  C   UNL     1      47.535   6.279  12.870  0.00  0.00    +0.000 A 
ATOM     10  C   UNL     1      46.389   5.632  12.475  0.00  0.00    +0.000 A 
ATOM     11  C   UNL     1      45.815   4.811  13.417  0.00  0.00    +0.000 A 
ATOM     12  N   UNL     1      46.352   4.664  14.647  0.00  0.00    +0.000 NA
ATOM     13  C   UNL     1      49.235   5.801  16.635  0.00  0.00    +0.000 C 
ATOM     14  C   UNL     1      50.199   4.701  17.132  0.00  0.00    +0.000 C 
ATOM     15  C   UNL     1      51.444   5.317  17.758  0.00  0.00    +0.000 C 
ATOM     16  O   UNL     1      49.588   3.860  18.131  0.00  0.00    +0.000 OA
ENDBRANCH   1  11
BRANCH   1  17
ATOM     17  C   UNL     1      44.794   3.032  12.016  0.00  0.00    +0.000 C 
BRANCH  17  18
ATOM     18  N   UNL     1      44.127   3.393  10.752  0.00  0.00    +0.000 N 
ATOM     19  H   UNL     1      43.749   4.341  10.784  0.00  0.00    +0.000 HD
BRANCH  18  20
ATOM     20  C   UNL     1      44.896   3.233   9.581  0.00  0.00    +0.000 A 
ATOM     21  C   UNL     1      45.380   4.317   8.836  0.00  0.00    +0.000 A 
ATOM     22  C   UNL     1      46.172   4.123   7.699  0.00  0.00    +0.000 A 
ATOM     23  C   UNL     1      46.530   2.834   7.296  0.00  0.00    +0.000 A 
ATOM     24  C   UNL     1      46.098   1.756   8.066  0.00  0.00    +0.000 A 
ATOM     25  F   UNL     1      46.425   0.495   7.738  0.00  0.00    +0.000 F 
ATOM     26  C   UNL     1      45.308   1.950   9.203  0.00  0.00    +0.000 A 
BRANCH  23  27
ATOM     27  C   UNL     1      47.363   2.683   6.076  0.00  0.00    +0.000 C 
ATOM     28  N   UNL     1      48.696   2.438   6.234  0.00  0.00    +0.000 N 
ATOM     29  O   UNL     1      46.876   2.770   4.955  0.00  0.00    +0.000 OA
ATOM     30  H   UNL     1      49.141   2.364   7.141  0.00  0.00    +0.000 HD
ATOM     31  H   UNL     1      49.264   2.338   5.402  0.00  0.00    +0.000 HD
ENDBRANCH  23  27
ENDBRANCH  18  20
ENDBRANCH  17  18
ENDBRANCH   1  17
TORSDOF 5
ENDMDL
MODEL 2
REMARK VINA RESULT:    -8.172      3.087      3.965
REMARK INTER + INTRA:         -11.330
REMARK INTER:                 -10.900
REMARK INTRA:                  -0.430
REMARK UNBOUND:                -0.769
REMARK  Name = 
REMARK  8 active torsions:
REMARK  status: ('A' for Active; 'I' for Inactive)
REMARK    1  A    between atoms: C_1  and  C_2
REMARK    2  A    between atoms: C_9  and  C_10
REMARK    3  A    between atoms: C_10  and  C_11
REMARK    4  A    between atoms: C_10  and  C_12
REMARK    5  A    between atoms: C_12  and  N_13
REMARK    6  A    between atoms: N_13  and  C_14
REMARK    7  A    between atoms: C_17  and  C_18
REMARK    8  A    between atoms: C_26  and  C_27
REMARK                            x       y       z     vdW  Elec       q    Type
REMARK                         _______ _______ _______ _____ _____    ______ ____
ROOT
ATOM      1  C   UNL     1      45.278   4.857  11.561  0.00  0.00    +0.000 C 
ATOM      2  C   UNL     1      45.692   4.117  12.837  0.00  0.00    +0.000 C 
ENDROOT
BRANCH   1  11
ATOM      3  C   UNL     1      50.331   7.496  11.329  0.00  0.00    +0.000 C 
ATOM      4  C   UNL     1      50.334   7.813  12.824  0.00  0.00    +0.000 C 
ATOM      5  C   UNL     1      49.003   7.458  13.515  0.00  0.00    +0.000 C 
ATOM      6  N   UNL     1      47.979   8.436  13.170  0.00  0.00    +0.000 N 
ATOM      7  C   UNL     1      46.814   8.062  12.559  0.00  0.00    +0.000 A 
ATOM      8  N   UNL     1      45.910   8.994  12.234  0.00  0.00    +0.000 NA
ATOM      9  C   UNL     1      44.760   8.575  11.667  0.00  0.00    +0.000 A 
ATOM     10  C   UNL     1      44.475   7.256  11.405  0.00  0.00    +0.000 A 
ATOM     11  C   UNL     1      45.453   6.355  11.758  0.00  0.00    +0.000 A 
ATOM     12  N   UNL     1      46.611   6.756  12.325  0.00  0.00    +0.000 NA
ATOM     13  C   UNL     1      48.340   9.835  13.367  0.00  0.00    +0.000 C 
ATOM     14  C   UNL     1      49.691  10.125  12.678  0.00  0.00    +0.000 C 
ATOM     15  C   UNL     1      50.195  11.516  13.044  0.00  0.00    +0.000 C 
ATOM     16  O   UNL     1      50.710   9.183  13.070  0.00  0.00    +0.000 OA
ENDBRANCH   1  11
BRANCH   1  17
ATOM     17  C   UNL     1      43.810   4.586  11.171  0.00  0.00    +0.000 C 
BRANCH  17  18
ATOM     18  N   UNL     1      43.643   3.338  10.404  0.00  0.00    +0.000 N 
ATOM     19  H   UNL     1      42.699   3.251  10.029  0.00  0.00    +0.000 HD
BRANCH  18  20
ATOM     20  C   UNL     1      44.581   3.115   9.375  0.00  0.00    +0.000 A 
ATOM     21  C   UNL     1      45.098   4.149   8.584  0.00  0.00    +0.000 A 
ATOM     22  C   UNL     1      46.055   3.899   7.594  0.00  0.00    +0.000 A 
ATOM     23  C   UNL     1      46.547   2.607   7.394  0.00  0.00    +0.000 A 
ATOM     24  C   UNL     1      46.077   1.585   8.217  0.00  0.00    +0.000 A 
ATOM     25  F   UNL     1      46.526   0.326   8.083  0.00  0.00    +0.000 F 
ATOM     26  C   UNL     1      45.121   1.835   9.207  0.00  0.00    +0.000 A 
BRANCH  23  27
ATOM     27  C   UNL     1      47.554   2.393   6.324  0.00  0.00    +0.000 C 
ATOM     28  N   UNL     1      47.395   3.066   5.148  0.00  0.00    +0.000 N 
ATOM     29  O   UNL     1      48.507   1.639   6.484  0.00  0.00    +0.000 OA
ATOM     30  H   UNL     1      46.620   3.694   4.971  0.00  0.00    +0.000 HD
ATOM     31  H   UNL     1      48.080   2.917   4.418  0.00  0.00    +0.000 HD
ENDBRANCH  23  27
ENDBRANCH  18  20
ENDBRANCH  17  18
ENDBRANCH   1  17
TORSDOF 5
ENDMDL
MODEL 3
REMARK VINA RESULT:    -8.172      2.574      3.866
REMARK INTER + INTRA:         -11.330
REMARK INTER:                 -10.592
REMARK INTRA:                  -0.738
REMARK UNBOUND:                -0.769
REMARK  Name = 
REMARK  8 active torsions:
REMARK  status: ('A' for Active; 'I' for Inactive)
REMARK    1  A    between atoms: C_1  and  C_2
REMARK    2  A    between atoms: C_9  and  C_10
REMARK    3  A    between atoms: C_10  and  C_11
REMARK    4  A    between atoms: C_10  and  C_12
REMARK    5  A    between atoms: C_12  and  N_13
REMARK    6  A    between atoms: N_13  and  C_14
REMARK    7  A    between atoms: C_17  and  C_18
REMARK    8  A    between atoms: C_26  and  C_27
REMARK                            x       y       z     vdW  Elec       q    Type
REMARK                         _______ _______ _______ _____ _____    ______ ____
ROOT
ATOM      1  C   UNL     1      45.262   4.367  12.324  0.00  0.00    +0.000 C 
ATOM      2  C   UNL     1      44.092   3.814  13.144  0.00  0.00    +0.000 C 
ENDROOT
BRANCH   1  11
ATOM      3  C   UNL     1      47.240   9.716  12.171  0.00  0.00    +0.000 C 
ATOM      4  C   UNL     1      48.612   9.288  11.651  0.00  0.00    +0.000 C 
ATOM      5  C   UNL     1      48.793   7.758  11.626  0.00  0.00    +0.000 C 
ATOM      6  N   UNL     1      48.996   7.252  12.978  0.00  0.00    +0.000 N 
ATOM      7  C   UNL     1      48.156   6.320  13.523  0.00  0.00    +0.000 A 
ATOM      8  N   UNL     1      48.360   5.900  14.777  0.00  0.00    +0.000 NA
ATOM      9  C   UNL     1      47.530   4.953  15.259  0.00  0.00    +0.000 A 
ATOM     10  C   UNL     1      46.496   4.406  14.538  0.00  0.00    +0.000 A 
ATOM     11  C   UNL     1      46.340   4.891  13.260  0.00  0.00    +0.000 A 
ATOM     12  N   UNL     1      47.160   5.840  12.761  0.00  0.00    +0.000 NA
ATOM     13  C   UNL     1      50.036   7.912  13.758  0.00  0.00    +0.000 C 
ATOM     14  C   UNL     1      49.819   9.441  13.725  0.00  0.00    +0.000 C 
ATOM     15  C   UNL     1      51.004  10.167  14.350  0.00  0.00    +0.000 C 
ATOM     16  O   UNL     1      49.676   9.936  12.379  0.00  0.00    +0.000 OA
ENDBRANCH   1  11
BRANCH   1  17
ATOM     17  C   UNL     1      44.836   5.513  11.384  0.00  0.00    +0.000 C 
BRANCH  17  18
ATOM     18  N   UNL     1      44.142   5.033  10.175  0.00  0.00    +0.000 N 
ATOM     19  H   UNL     1      43.660   5.792   9.693  0.00  0.00    +0.000 HD
BRANCH  18  20
ATOM     20  C   UNL     1      44.934   4.319   9.252  0.00  0.00    +0.000 A 
ATOM     21  C   UNL     1      45.882   4.937   8.426  0.00  0.00    +0.000 A 
ATOM     22  C   UNL     1      46.677   4.194   7.547  0.00  0.00    +0.000 A 
ATOM     23  C   UNL     1      46.568   2.802   7.498  0.00  0.00    +0.000 A 
ATOM     24  C   UNL     1      45.667   2.177   8.358  0.00  0.00    +0.000 A 
ATOM     25  F   UNL     1      45.531   0.841   8.368  0.00  0.00    +0.000 F 
ATOM     26  C   UNL     1      44.873   2.920   9.237  0.00  0.00    +0.000 A 
BRANCH  23  27
ATOM     27  C   UNL     1      47.428   2.061   6.540  0.00  0.00    +0.000 C 
ATOM     28  N   UNL     1      47.389   2.425   5.226  0.00  0.00    +0.000 N 
ATOM     29  O   UNL     1      48.158   1.149   6.910  0.00  0.00    +0.000 OA
ATOM     30  H   UNL     1      46.796   3.168   4.876  0.00  0.00    +0.000 HD
ATOM     31  H   UNL     1      47.972   1.918   4.573  0.00  0.00    +0.000 HD
ENDBRANCH  23  27
ENDBRANCH  18  20
ENDBRANCH  17  18
ENDBRANCH   1  17
TORSDOF 5
ENDMDL
MODEL 4
REMARK VINA RESULT:    -7.475      1.978      2.931
REMARK INTER + INTRA:         -10.429
REMARK INTER:                 -10.032
REMARK INTRA:                  -0.397
REMARK UNBOUND:                -0.769
REMARK  Name = 
REMARK  8 active torsions:
REMARK  status: ('A' for Active; 'I' for Inactive)
REMARK    1  A    between atoms: C_1  and  C_2
REMARK    2  A    between atoms: C_9  and  C_10
REMARK    3  A    between atoms: C_10  and  C_11
REMARK    4  A    between atoms: C_10  and  C_12
REMARK    5  A    between atoms: C_12  and  N_13
REMARK    6  A    between atoms: N_13  and  C_14
REMARK    7  A    between atoms: C_17  and  C_18
REMARK    8  A    between atoms: C_26  and  C_27
REMARK                            x       y       z     vdW  Elec       q    Type
REMARK                         _______ _______ _______ _____ _____    ______ ____
ROOT
ATOM      1  C   UNL     1      45.739   6.254  12.371  0.00  0.00    +0.000 C 
ATOM      2  C   UNL     1      46.700   6.883  11.358  0.00  0.00    +0.000 C 
ENDROOT
BRANCH   1  11
ATOM      3  C   UNL     1      48.089   9.474  16.454  0.00  0.00    +0.000 C 
ATOM      4  C   UNL     1      49.515   9.167  15.999  0.00  0.00    +0.000 C 
ATOM      5  C   UNL     1      49.574   8.091  14.897  0.00  0.00    +0.000 C 
ATOM      6  N   UNL     1      49.325   6.772  15.465  0.00  0.00    +0.000 N 
ATOM      7  C   UNL     1      48.290   5.992  15.027  0.00  0.00    +0.000 A 
ATOM      8  N   UNL     1      48.079   4.798  15.593  0.00  0.00    +0.000 NA
ATOM      9  C   UNL     1      47.071   4.047  15.103  0.00  0.00    +0.000 A 
ATOM     10  C   UNL     1      46.258   4.443  14.067  0.00  0.00    +0.000 A 
ATOM     11  C   UNL     1      46.528   5.685  13.540  0.00  0.00    +0.000 A 
ATOM     12  N   UNL     1      47.532   6.451  14.019  0.00  0.00    +0.000 NA
ATOM     13  C   UNL     1      50.134   6.412  16.623  0.00  0.00    +0.000 C 
ATOM     14  C   UNL     1      50.059   7.536  17.680  0.00  0.00    +0.000 C 
ATOM     15  C   UNL     1      51.057   7.287  18.804  0.00  0.00    +0.000 C 
ATOM     16  O   UNL     1      50.361   8.828  17.116  0.00  0.00    +0.000 OA
ENDBRANCH   1  11
BRANCH   1  17
ATOM     17  C   UNL     1      44.892   5.120  11.759  0.00  0.00    +0.000 C 
BRANCH  17  18
ATOM     18  N   UNL     1      44.538   5.368  10.349  0.00  0.00    +0.000 N 
ATOM     19  H   UNL     1      44.714   6.336  10.082  0.00  0.00    +0.000 HD
BRANCH  18  20
ATOM     20  C   UNL     1      45.130   4.505   9.404  0.00  0.00    +0.000 A 
ATOM     21  C   UNL     1      46.027   4.952   8.425  0.00  0.00    +0.000 A 
ATOM     22  C   UNL     1      46.625   4.064   7.524  0.00  0.00    +0.000 A 
ATOM     23  C   UNL     1      46.366   2.693   7.604  0.00  0.00    +0.000 A 
ATOM     24  C   UNL     1      45.518   2.236   8.612  0.00  0.00    +0.000 A 
ATOM     25  F   UNL     1      45.245   0.929   8.748  0.00  0.00    +0.000 F 
ATOM     26  C   UNL     1      44.922   3.125   9.512  0.00  0.00    +0.000 A 
BRANCH  23  27
ATOM     27  C   UNL     1      47.018   1.794   6.618  0.00  0.00    +0.000 C 
ATOM     28  N   UNL     1      47.482   2.341   5.457  0.00  0.00    +0.000 N 
ATOM     29  O   UNL     1      47.143   0.593   6.832  0.00  0.00    +0.000 OA
ATOM     30  H   UNL     1      47.394   3.325   5.237  0.00  0.00    +0.000 HD
ATOM     31  H   UNL     1      47.923   1.727   4.785  0.00  0.00    +0.000 HD
ENDBRANCH  23  27
ENDBRANCH  18  20
ENDBRANCH  17  18
ENDBRANCH   1  17
TORSDOF 5
ENDMDL
MODEL 5
REMARK VINA RESULT:    -7.136      1.699      2.258
REMARK INTER + INTRA:          -9.992
REMARK INTER:                  -9.173
REMARK INTRA:                  -0.819
REMARK UNBOUND:                -0.769
REMARK  Name = 
REMARK  8 active torsions:
REMARK  status: ('A' for Active; 'I' for Inactive)
REMARK    1  A    between atoms: C_1  and  C_2
REMARK    2  A    between atoms: C_9  and  C_10
REMARK    3  A    between atoms: C_10  and  C_11
REMARK    4  A    between atoms: C_10  and  C_12
REMARK    5  A    between atoms: C_12  and  N_13
REMARK    6  A    between atoms: N_13  and  C_14
REMARK    7  A    between atoms: C_17  and  C_18
REMARK    8  A    between atoms: C_26  and  C_27
REMARK                            x       y       z     vdW  Elec       q    Type
REMARK                         _______ _______ _______ _____ _____    ______ ____
ROOT
ATOM      1  C   UNL     1      45.413   6.964  12.684  0.00  0.00    +0.000 C 
ATOM      2  C   UNL     1      44.851   7.938  11.646  0.00  0.00    +0.000 C 
ENDROOT
BRANCH   1  11
ATOM      3  C   UNL     1      48.628   4.815  16.880  0.00  0.00    +0.000 C 
ATOM      4  C   UNL     1      49.023   6.195  17.404  0.00  0.00    +0.000 C 
ATOM      5  C   UNL     1      48.547   7.342  16.492  0.00  0.00    +0.000 C 
ATOM      6  N   UNL     1      49.374   7.410  15.293  0.00  0.00    +0.000 N 
ATOM      7  C   UNL     1      48.829   7.289  14.045  0.00  0.00    +0.000 A 
ATOM      8  N   UNL     1      49.627   7.330  12.970  0.00  0.00    +0.000 NA
ATOM      9  C   UNL     1      49.042   7.246  11.758  0.00  0.00    +0.000 A 
ATOM     10  C   UNL     1      47.686   7.117  11.572  0.00  0.00    +0.000 A 
ATOM     11  C   UNL     1      46.930   7.073  12.721  0.00  0.00    +0.000 A 
ATOM     12  N   UNL     1      47.498   7.155  13.943  0.00  0.00    +0.000 NA
ATOM     13  C   UNL     1      50.815   7.449  15.513  0.00  0.00    +0.000 C 
ATOM     14  C   UNL     1      51.229   6.296  16.454  0.00  0.00    +0.000 C 
ATOM     15  C   UNL     1      52.688   6.438  16.870  0.00  0.00    +0.000 C 
ATOM     16  O   UNL     1      50.440   6.274  17.660  0.00  0.00    +0.000 OA
ENDBRANCH   1  11
BRANCH   1  17
ATOM     17  C   UNL     1      45.039   5.497  12.384  0.00  0.00    +0.000 C 
BRANCH  17  18
ATOM     18  N   UNL     1      44.194   5.357  11.184  0.00  0.00    +0.000 N 
ATOM     19  H   UNL     1      43.847   6.260  10.861  0.00  0.00    +0.000 HD
BRANCH  18  20
ATOM     20  C   UNL     1      44.769   4.660  10.102  0.00  0.00    +0.000 A 
ATOM     21  C   UNL     1      45.637   5.267   9.184  0.00  0.00    +0.000 A 
ATOM     22  C   UNL     1      46.220   4.538   8.142  0.00  0.00    +0.000 A 
ATOM     23  C   UNL     1      45.976   3.168   8.013  0.00  0.00    +0.000 A 
ATOM     24  C   UNL     1      45.160   2.548   8.957  0.00  0.00    +0.000 A 
ATOM     25  F   UNL     1      44.904   1.232   8.894  0.00  0.00    +0.000 F 
ATOM     26  C   UNL     1      44.578   3.277   9.999  0.00  0.00    +0.000 A 
BRANCH  23  27
ATOM     27  C   UNL     1      46.611   2.442   6.883  0.00  0.00    +0.000 C 
ATOM     28  N   UNL     1      47.510   1.458   7.175  0.00  0.00    +0.000 N 
ATOM     29  O   UNL     1      46.341   2.710   5.718  0.00  0.00    +0.000 OA
ATOM     30  H   UNL     1      47.767   1.208   8.122  0.00  0.00    +0.000 HD
ATOM     31  H   UNL     1      47.945   0.966   6.405  0.00  0.00    +0.000 HD
ENDBRANCH  23  27
ENDBRANCH  18  20
ENDBRANCH  17  18
ENDBRANCH   1  17
TORSDOF 5
ENDMDL
MODEL 6
REMARK VINA RESULT:    -6.769      3.141      4.565
REMARK INTER + INTRA:          -9.517
REMARK INTER:                  -8.546
REMARK INTRA:                  -0.971
REMARK UNBOUND:                -0.769
REMARK  Name = 
REMARK  8 active torsions:
REMARK  status: ('A' for Active; 'I' for Inactive)
REMARK    1  A    between atoms: C_1  and  C_2
REMARK    2  A    between atoms: C_9  and  C_10
REMARK    3  A    between atoms: C_10  and  C_11
REMARK    4  A    between atoms: C_10  and  C_12
REMARK    5  A    between atoms: C_12  and  N_13
REMARK    6  A    between atoms: N_13  and  C_14
REMARK    7  A    between atoms: C_17  and  C_18
REMARK    8  A    between atoms: C_26  and  C_27
REMARK                            x       y       z     vdW  Elec       q    Type
REMARK                         _______ _______ _______ _____ _____    ______ ____
ROOT
ATOM      1  C   UNL     1      47.851   9.321  13.418  0.00  0.00    +0.000 C 
ATOM      2  C   UNL     1      48.236  10.564  12.611  0.00  0.00    +0.000 C 
ENDROOT
BRANCH   1  11
ATOM      3  C   UNL     1      47.829   4.283  16.097  0.00  0.00    +0.000 C 
ATOM      4  C   UNL     1      48.195   4.899  17.447  0.00  0.00    +0.000 C 
ATOM      5  C   UNL     1      48.538   6.398  17.348  0.00  0.00    +0.000 C 
ATOM      6  N   UNL     1      49.858   6.576  16.755  0.00  0.00    +0.000 N 
ATOM      7  C   UNL     1      50.031   7.302  15.608  0.00  0.00    +0.000 A 
ATOM      8  N   UNL     1      51.255   7.419  15.080  0.00  0.00    +0.000 NA
ATOM      9  C   UNL     1      51.384   8.176  13.971  0.00  0.00    +0.000 A 
ATOM     10  C   UNL     1      50.335   8.821  13.361  0.00  0.00    +0.000 A 
ATOM     11  C   UNL     1      49.106   8.649  13.954  0.00  0.00    +0.000 A 
ATOM     12  N   UNL     1      48.957   7.894  15.064  0.00  0.00    +0.000 NA
ATOM     13  C   UNL     1      50.939   5.807  17.359  0.00  0.00    +0.000 C 
ATOM     14  C   UNL     1      50.529   4.321  17.456  0.00  0.00    +0.000 C 
ATOM     15  C   UNL     1      51.547   3.533  18.273  0.00  0.00    +0.000 C 
ATOM     16  O   UNL     1      49.247   4.156  18.095  0.00  0.00    +0.000 OA
ENDBRANCH   1  11
BRANCH   1  17
ATOM     17  C   UNL     1      47.068   8.290  12.579  0.00  0.00    +0.000 C 
BRANCH  17  18
ATOM     18  N   UNL     1      45.956   7.672  13.324  0.00  0.00    +0.000 N 
ATOM     19  H   UNL     1      45.201   8.337  13.493  0.00  0.00    +0.000 HD
BRANCH  18  20
ATOM     20  C   UNL     1      45.425   6.489  12.770  0.00  0.00    +0.000 A 
ATOM     21  C   UNL     1      44.409   6.493  11.805  0.00  0.00    +0.000 A 
ATOM     22  C   UNL     1      43.929   5.302  11.248  0.00  0.00    +0.000 A 
ATOM     23  C   UNL     1      44.481   4.073  11.621  0.00  0.00    +0.000 A 
ATOM     24  C   UNL     1      45.529   4.068  12.538  0.00  0.00    +0.000 A 
ATOM     25  F   UNL     1      46.110   2.920  12.921  0.00  0.00    +0.000 F 
ATOM     26  C   UNL     1      46.009   5.259  13.094  0.00  0.00    +0.000 A 
BRANCH  23  27
ATOM     27  C   UNL     1      43.928   2.838  11.008  0.00  0.00    +0.000 C 
ATOM     28  N   UNL     1      44.532   2.351   9.886  0.00  0.00    +0.000 N 
ATOM     29  O   UNL     1      42.960   2.263  11.491  0.00  0.00    +0.000 OA
ATOM     30  H   UNL     1      45.330   2.797   9.450  0.00  0.00    +0.000 HD
ATOM     31  H   UNL     1      44.154   1.511   9.468  0.00  0.00    +0.000 HD
ENDBRANCH  23  27
ENDBRANCH  18  20
ENDBRANCH  17  18
ENDBRANCH   1  17
TORSDOF 5
ENDMDL
MODEL 7
REMARK VINA RESULT:    -6.684      3.219      4.939
REMARK INTER + INTRA:          -9.407
REMARK INTER:                  -8.391
REMARK INTRA:                  -1.016
REMARK UNBOUND:                -0.769
REMARK  Name = 
REMARK  8 active torsions:
REMARK  status: ('A' for Active; 'I' for Inactive)
REMARK    1  A    between atoms: C_1  and  C_2
REMARK    2  A    between atoms: C_9  and  C_10
REMARK    3  A    between atoms: C_10  and  C_11
REMARK    4  A    between atoms: C_10  and  C_12
REMARK    5  A    between atoms: C_12  and  N_13
REMARK    6  A    between atoms: N_13  and  C_14
REMARK    7  A    between atoms: C_17  and  C_18
REMARK    8  A    between atoms: C_26  and  C_27
REMARK                            x       y       z     vdW  Elec       q    Type
REMARK                         _______ _______ _______ _____ _____    ______ ____
ROOT
ATOM      1  C   UNL     1      48.479   9.005  15.342  0.00  0.00    +0.000 C 
ATOM      2  C   UNL     1      49.001  10.423  15.094  0.00  0.00    +0.000 C 
ENDROOT
BRANCH   1  11
ATOM      3  C   UNL     1      47.908   3.364  15.981  0.00  0.00    +0.000 C 
ATOM      4  C   UNL     1      48.288   3.404  17.461  0.00  0.00    +0.000 C 
ATOM      5  C   UNL     1      48.772   4.793  17.919  0.00  0.00    +0.000 C 
ATOM      6  N   UNL     1      50.120   5.046  17.425  0.00  0.00    +0.000 N 
ATOM      7  C   UNL     1      50.395   6.121  16.625  0.00  0.00    +0.000 A 
ATOM      8  N   UNL     1      51.640   6.304  16.169  0.00  0.00    +0.000 NA
ATOM      9  C   UNL     1      51.873   7.398  15.416  0.00  0.00    +0.000 A 
ATOM     10  C   UNL     1      50.907   8.321  15.091  0.00  0.00    +0.000 A 
ATOM     11  C   UNL     1      49.649   8.064  15.586  0.00  0.00    +0.000 A 
ATOM     12  N   UNL     1      49.397   6.974  16.342  0.00  0.00    +0.000 NA
ATOM     13  C   UNL     1      51.106   4.008  17.698  0.00  0.00    +0.000 C 
ATOM     14  C   UNL     1      50.557   2.637  17.244  0.00  0.00    +0.000 C 
ATOM     15  C   UNL     1      51.471   1.510  17.709  0.00  0.00    +0.000 C 
ATOM     16  O   UNL     1      49.246   2.375  17.785  0.00  0.00    +0.000 OA
ENDBRANCH   1  11
BRANCH   1  17
ATOM     17  C   UNL     1      47.658   8.460  14.155  0.00  0.00    +0.000 C 
BRANCH  17  18
ATOM     18  N   UNL     1      47.578   6.988  14.142  0.00  0.00    +0.000 N 
ATOM     19  H   UNL     1      47.489   6.608  15.084  0.00  0.00    +0.000 HD
BRANCH  18  20
ATOM     20  C   UNL     1      46.582   6.432  13.314  0.00  0.00    +0.000 A 
ATOM     21  C   UNL     1      45.671   7.215  12.591  0.00  0.00    +0.000 A 
ATOM     22  C   UNL     1      44.717   6.632  11.750  0.00  0.00    +0.000 A 
ATOM     23  C   UNL     1      44.672   5.246  11.583  0.00  0.00    +0.000 A 
ATOM     24  C   UNL     1      45.612   4.467  12.255  0.00  0.00    +0.000 A 
ATOM     25  F   UNL     1      45.629   3.131  12.120  0.00  0.00    +0.000 F 
ATOM     26  C   UNL     1      46.566   5.050  13.095  0.00  0.00    +0.000 A 
BRANCH  23  27
ATOM     27  C   UNL     1      43.634   4.677  10.687  0.00  0.00    +0.000 C 
ATOM     28  N   UNL     1      43.900   4.619   9.350  0.00  0.00    +0.000 N 
ATOM     29  O   UNL     1      42.566   4.265  11.126  0.00  0.00    +0.000 OA
ATOM     30  H   UNL     1      44.765   4.952   8.944  0.00  0.00    +0.000 HD
ATOM     31  H   UNL     1      43.190   4.234   8.739  0.00  0.00    +0.000 HD
ENDBRANCH  23  27
ENDBRANCH  18  20
ENDBRANCH  17  18
ENDBRANCH   1  17
TORSDOF 5
ENDMDL
MODEL 8
REMARK VINA RESULT:    -6.572      3.160      4.687
REMARK INTER + INTRA:          -9.263
REMARK INTER:                  -8.078
REMARK INTRA:                  -1.185
REMARK UNBOUND:                -0.769
REMARK  Name = 
REMARK  8 active torsions:
REMARK  status: ('A' for Active; 'I' for Inactive)
REMARK    1  A    between atoms: C_1  and  C_2
REMARK    2  A    between atoms: C_9  and  C_10
REMARK    3  A    between atoms: C_10  and  C_11
REMARK    4  A    between atoms: C_10  and  C_12
REMARK    5  A    between atoms: C_12  and  N_13
REMARK    6  A    between atoms: N_13  and  C_14
REMARK    7  A    between atoms: C_17  and  C_18
REMARK    8  A    between atoms: C_26  and  C_27
REMARK                            x       y       z     vdW  Elec       q    Type
REMARK                         _______ _______ _______ _____ _____    ______ ____
ROOT
ATOM      1  C   UNL     1      48.718   8.344  13.135  0.00  0.00    +0.000 C 
ATOM      2  C   UNL     1      49.417   7.002  12.905  0.00  0.00    +0.000 C 
ENDROOT
BRANCH   1  11
ATOM      3  C   UNL     1      51.069   4.992  17.109  0.00  0.00    +0.000 C 
ATOM      4  C   UNL     1      49.716   4.576  17.685  0.00  0.00    +0.000 C 
ATOM      5  C   UNL     1      48.538   5.357  17.073  0.00  0.00    +0.000 C 
ATOM      6  N   UNL     1      48.501   6.714  17.607  0.00  0.00    +0.000 N 
ATOM      7  C   UNL     1      48.582   7.804  16.785  0.00  0.00    +0.000 A 
ATOM      8  N   UNL     1      48.572   9.033  17.316  0.00  0.00    +0.000 NA
ATOM      9  C   UNL     1      48.614  10.079  16.465  0.00  0.00    +0.000 A 
ATOM     10  C   UNL     1      48.672   9.948  15.098  0.00  0.00    +0.000 A 
ATOM     11  C   UNL     1      48.687   8.657  14.624  0.00  0.00    +0.000 A 
ATOM     12  N   UNL     1      48.646   7.598  15.460  0.00  0.00    +0.000 NA
ATOM     13  C   UNL     1      48.538   6.830  19.059  0.00  0.00    +0.000 C 
ATOM     14  C   UNL     1      49.719   6.007  19.617  0.00  0.00    +0.000 C 
ATOM     15  C   UNL     1      49.656   5.936  21.138  0.00  0.00    +0.000 C 
ATOM     16  O   UNL     1      49.712   4.651  19.125  0.00  0.00    +0.000 OA
ENDBRANCH   1  11
BRANCH   1  17
ATOM     17  C   UNL     1      47.270   8.356  12.606  0.00  0.00    +0.000 C 
BRANCH  17  18
ATOM     18  N   UNL     1      46.342   7.594  13.461  0.00  0.00    +0.000 N 
ATOM     19  H   UNL     1      45.636   8.199  13.881  0.00  0.00    +0.000 HD
BRANCH  18  20
ATOM     20  C   UNL     1      45.712   6.488  12.854  0.00  0.00    +0.000 A 
ATOM     21  C   UNL     1      44.736   6.622  11.858  0.00  0.00    +0.000 A 
ATOM     22  C   UNL     1      44.157   5.502  11.251  0.00  0.00    +0.000 A 
ATOM     23  C   UNL     1      44.567   4.214  11.602  0.00  0.00    +0.000 A 
ATOM     24  C   UNL     1      45.578   4.076  12.552  0.00  0.00    +0.000 A 
ATOM     25  F   UNL     1      46.026   2.864  12.917  0.00  0.00    +0.000 F 
ATOM     26  C   UNL     1      46.157   5.196  13.158  0.00  0.00    +0.000 A 
BRANCH  23  27
ATOM     27  C   UNL     1      43.914   3.059  10.935  0.00  0.00    +0.000 C 
ATOM     28  N   UNL     1      44.296   2.751   9.662  0.00  0.00    +0.000 N 
ATOM     29  O   UNL     1      43.056   2.393  11.504  0.00  0.00    +0.000 OA
ATOM     30  H   UNL     1      44.995   3.277   9.153  0.00  0.00    +0.000 HD
ATOM     31  H   UNL     1      43.848   1.966   9.207  0.00  0.00    +0.000 HD
ENDBRANCH  23  27
ENDBRANCH  18  20
ENDBRANCH  17  18
ENDBRANCH   1  17
TORSDOF 5
ENDMDL
MODEL 9
REMARK VINA RESULT:    -6.519      3.071      5.277
REMARK INTER + INTRA:          -9.193
REMARK INTER:                  -8.271
REMARK INTRA:                  -0.922
REMARK UNBOUND:                -0.769
REMARK  Name = 
REMARK  8 active torsions:
REMARK  status: ('A' for Active; 'I' for Inactive)
REMARK    1  A    between atoms: C_1  and  C_2
REMARK    2  A    between atoms: C_9  and  C_10
REMARK    3  A    between atoms: C_10  and  C_11
REMARK    4  A    between atoms: C_10  and  C_12
REMARK    5  A    between atoms: C_12  and  N_13
REMARK    6  A    between atoms: N_13  and  C_14
REMARK    7  A    between atoms: C_17  and  C_18
REMARK    8  A    between atoms: C_26  and  C_27
REMARK                            x       y       z     vdW  Elec       q    Type
REMARK                         _______ _______ _______ _____ _____    ______ ____
ROOT
ATOM      1  C   UNL     1      48.073   3.977  17.000  0.00  0.00    +0.000 C 
ATOM      2  C   UNL     1      47.101   4.684  17.949  0.00  0.00    +0.000 C 
ENDROOT
BRANCH   1  11
ATOM      3  C   UNL     1      48.334   9.666  16.653  0.00  0.00    +0.000 C 
ATOM      4  C   UNL     1      48.861   9.643  15.218  0.00  0.00    +0.000 C 
ATOM      5  C   UNL     1      49.199   8.223  14.727  0.00  0.00    +0.000 C 
ATOM      6  N   UNL     1      50.441   7.761  15.334  0.00  0.00    +0.000 N 
ATOM      7  C   UNL     1      50.483   6.622  16.091  0.00  0.00    +0.000 A 
ATOM      8  N   UNL     1      51.637   6.246  16.655  0.00  0.00    +0.000 NA
ATOM      9  C   UNL     1      51.640   5.096  17.359  0.00  0.00    +0.000 A 
ATOM     10  C   UNL     1      50.530   4.303  17.530  0.00  0.00    +0.000 A 
ATOM     11  C   UNL     1      49.378   4.755  16.930  0.00  0.00    +0.000 A 
ATOM     12  N   UNL     1      49.356   5.904  16.221  0.00  0.00    +0.000 NA
ATOM     13  C   UNL     1      51.581   8.663  15.224  0.00  0.00    +0.000 C 
ATOM     14  C   UNL     1      51.176  10.074  15.704  0.00  0.00    +0.000 C 
ATOM     15  C   UNL     1      52.277  11.083  15.401  0.00  0.00    +0.000 C 
ATOM     16  O   UNL     1      49.977  10.542  15.054  0.00  0.00    +0.000 OA
ENDBRANCH   1  11
BRANCH   1  17
ATOM     17  C   UNL     1      47.511   3.842  15.570  0.00  0.00    +0.000 C 
BRANCH  17  18
ATOM     18  N   UNL     1      46.808   5.055  15.114  0.00  0.00    +0.000 N 
ATOM     19  H   UNL     1      47.357   5.896  15.292  0.00  0.00    +0.000 HD
BRANCH  18  20
ATOM     20  C   UNL     1      46.376   5.050  13.772  0.00  0.00    +0.000 A 
ATOM     21  C   UNL     1      46.682   6.080  12.872  0.00  0.00    +0.000 A 
ATOM     22  C   UNL     1      46.268   6.027  11.537  0.00  0.00    +0.000 A 
ATOM     23  C   UNL     1      45.564   4.919  11.057  0.00  0.00    +0.000 A 
ATOM     24  C   UNL     1      45.307   3.867  11.933  0.00  0.00    +0.000 A 
ATOM     25  F   UNL     1      44.649   2.769  11.525  0.00  0.00    +0.000 F 
ATOM     26  C   UNL     1      45.721   3.920  13.268  0.00  0.00    +0.000 A 
BRANCH  23  27
ATOM     27  C   UNL     1      45.139   4.917   9.634  0.00  0.00    +0.000 C 
ATOM     28  N   UNL     1      43.822   4.690   9.357  0.00  0.00    +0.000 N 
ATOM     29  O   UNL     1      45.939   5.114   8.727  0.00  0.00    +0.000 OA
ATOM     30  H   UNL     1      43.129   4.516  10.074  0.00  0.00    +0.000 HD
ATOM     31  H   UNL     1      43.534   4.685   8.387  0.00  0.00    +0.000 HD
ENDBRANCH  23  27
ENDBRANCH  18  20
ENDBRANCH  17  18
ENDBRANCH   1  17
TORSDOF 5
ENDMDL
