MODEL 1
REMARK VINA RESULT:    -7.569      0.000      0.000
REMARK INTER + INTRA:          -9.991
REMARK INTER:                  -9.561
REMARK INTRA:                  -0.431
REMARK UNBOUND:                -0.431
REMARK  Name = 
REMARK  9 active torsions:
REMARK  status: ('A' for Active; 'I' for Inactive)
REMARK    1  A    between atoms: C_1  and  C_2
REMARK    2  A    between atoms: C_2  and  N_3
REMARK    3  A    between atoms: C_2  and  C_4
REMARK    4  A    between atoms: C_7  and  C_8
REMARK    5  A    between atoms: C_8  and  N_9
REMARK    6  A    between atoms: C_11  and  C_12
REMARK    7  A    between atoms: C_12  and  C_13
REMARK    8  A    between atoms: C_12  and  C_14
REMARK    9  A    between atoms: C_12  and  C_15
REMARK                            x       y       z     vdW  Elec       q    Type
REMARK                         _______ _______ _______ _____ _____    ______ ____
ROOT
ATOM      1  N   UNL     1      45.440   5.783  11.289  0.00  0.00    +0.000 N 
ATOM      2  C   UNL     1      45.786   7.106  11.188  0.00  0.00    +0.000 A 
ATOM      3  C   UNL     1      46.640   7.441  12.225  0.00  0.00    +0.000 A 
ATOM      4  C   UNL     1      46.808   6.234  12.997  0.00  0.00    +0.000 A 
ATOM      5  C   UNL     1      47.516   5.910  14.178  0.00  0.00    +0.000 A 
ATOM      6  C   UNL     1      47.448   4.619  14.713  0.00  0.00    +0.000 A 
ATOM      7  C   UNL     1      46.711   3.632  14.073  0.00  0.00    +0.000 A 
ATOM      8  C   UNL     1      46.014   3.912  12.894  0.00  0.00    +0.000 A 
ATOM      9  C   UNL     1      46.064   5.221  12.384  0.00  0.00    +0.000 A 
ENDROOT
BRANCH   3  10
ATOM     10  C   UNL     1      47.245   8.820  12.505  0.00  0.00    +0.000 C 
ATOM     11  C   UNL     1      47.481   9.041  14.018  0.00  0.00    +0.000 C 
ATOM     12  C   UNL     1      48.610   8.970  11.800  0.00  0.00    +0.000 C 
ATOM     13  C   UNL     1      46.303   9.942  12.024  0.00  0.00    +0.000 C 
ENDBRANCH   3  10
BRANCH   1  14
ATOM     14  C   UNL     1      44.405   5.146  10.484  0.00  0.00    +0.000 C 
BRANCH  14  18
ATOM     15  C   UNL     1      46.170   2.289   7.839  0.00  0.00    +0.000 A 
ATOM     16  C   UNL     1      45.365   1.844   8.893  0.00  0.00    +0.000 A 
ATOM     17  C   UNL     1      44.738   2.765   9.729  0.00  0.00    +0.000 A 
ATOM     18  C   UNL     1      44.945   4.127   9.516  0.00  0.00    +0.000 A 
ATOM     19  N   UNL     1      45.711   4.582   8.492  0.00  0.00    +0.000 NA
ATOM     20  C   UNL     1      46.287   3.665   7.677  0.00  0.00    +0.000 A 
BRANCH  15  22
ATOM     21  C   UNL     1      46.825  -0.097   7.415  0.00  0.00    +0.000 C 
ATOM     22  C   UNL     1      46.886   1.343   6.903  0.00  0.00    +0.000 C 
BRANCH  22  23
ATOM     23  N   UNL     1      48.281   1.737   6.694  0.00  0.00    +0.000 NA
ATOM     24  H   UNL     1      48.392   2.153   5.772  0.00  0.00    +0.000 HD
ATOM     25  H   UNL     1      48.870   0.904   6.707  0.00  0.00    +0.000 HD
ENDBRANCH  22  23
ENDBRANCH  15  22
ENDBRANCH  14  18
ENDBRANCH   1  14
TORSDOF 5
ENDMDL
MODEL 2
REMARK VINA RESULT:    -7.180      1.279      3.108
REMARK INTER + INTRA:          -9.500
REMARK INTER:                  -9.126
REMARK INTRA:                  -0.373
REMARK UNBOUND:                -0.431
REMARK  Name = 
REMARK  9 active torsions:
REMARK  status: ('A' for Active; 'I' for Inactive)
REMARK    1  A    between atoms: C_1  and  C_2
REMARK    2  A    between atoms: C_2  and  N_3
REMARK    3  A    between atoms: C_2  and  C_4
REMARK    4  A    between atoms: C_7  and  C_8
REMARK    5  A    between atoms: C_8  and  N_9
REMARK    6  A    between atoms: C_11  and  C_12
REMARK    7  A    between atoms: C_12  and  C_13
REMARK    8  A    between atoms: C_12  and  C_14
REMARK    9  A    between atoms: C_12  and  C_15
REMARK                            x       y       z     vdW  Elec       q    Type
REMARK                         _______ _______ _______ _____ _____    ______ ____
ROOT
ATOM      1  N   UNL     1      44.724   6.065  11.436  0.00  0.00    +0.000 N 
ATOM      2  C   UNL     1      45.852   5.745  12.148  0.00  0.00    +0.000 A 
ATOM      3  C   UNL     1      46.460   6.905  12.598  0.00  0.00    +0.000 A 
ATOM      4  C   UNL     1      45.638   7.988  12.115  0.00  0.00    +0.000 A 
ATOM      5  C   UNL     1      45.718   9.399  12.198  0.00  0.00    +0.000 A 
ATOM      6  C   UNL     1      44.756  10.199  11.574  0.00  0.00    +0.000 A 
ATOM      7  C   UNL     1      43.693   9.620  10.894  0.00  0.00    +0.000 A 
ATOM      8  C   UNL     1      43.572   8.231  10.808  0.00  0.00    +0.000 A 
ATOM      9  C   UNL     1      44.563   7.436  11.411  0.00  0.00    +0.000 A 
ENDROOT
BRANCH   3  10
ATOM     10  C   UNL     1      47.756   7.006  13.408  0.00  0.00    +0.000 C 
ATOM     11  C   UNL     1      47.915   5.811  14.378  0.00  0.00    +0.000 C 
ATOM     12  C   UNL     1      48.984   7.007  12.473  0.00  0.00    +0.000 C 
ATOM     13  C   UNL     1      47.771   8.288  14.263  0.00  0.00    +0.000 C 
ENDBRANCH   3  10
BRANCH   1  14
ATOM     14  C   UNL     1      43.952   5.108  10.655  0.00  0.00    +0.000 C 
BRANCH  14  18
ATOM     15  C   UNL     1      46.147   2.584   7.994  0.00  0.00    +0.000 A 
ATOM     16  C   UNL     1      46.271   3.973   7.882  0.00  0.00    +0.000 A 
ATOM     17  C   UNL     1      45.606   4.807   8.777  0.00  0.00    +0.000 A 
ATOM     18  C   UNL     1      44.801   4.240   9.764  0.00  0.00    +0.000 A 
ATOM     19  N   UNL     1      44.676   2.895   9.900  0.00  0.00    +0.000 NA
ATOM     20  C   UNL     1      45.356   2.106   9.033  0.00  0.00    +0.000 A 
BRANCH  15  22
ATOM     21  C   UNL     1      46.810   0.196   7.593  0.00  0.00    +0.000 C 
ATOM     22  C   UNL     1      46.834   1.625   7.049  0.00  0.00    +0.000 C 
BRANCH  22  23
ATOM     23  N   UNL     1      48.216   2.028   6.775  0.00  0.00    +0.000 NA
ATOM     24  H   UNL     1      48.412   1.949   5.780  0.00  0.00    +0.000 HD
ATOM     25  H   UNL     1      48.852   1.386   7.248  0.00  0.00    +0.000 HD
ENDBRANCH  22  23
ENDBRANCH  15  22
ENDBRANCH  14  18
ENDBRANCH   1  14
TORSDOF 5
ENDMDL
MODEL 3
REMARK VINA RESULT:    -7.157      1.294      3.094
REMARK INTER + INTRA:          -9.470
REMARK INTER:                  -9.120
REMARK INTRA:                  -0.350
REMARK UNBOUND:                -0.431
REMARK  Name = 
REMARK  9 active torsions:
REMARK  status: ('A' for Active; 'I' for Inactive)
REMARK    1  A    between atoms: C_1  and  C_2
REMARK    2  A    between atoms: C_2  and  N_3
REMARK    3  A    between atoms: C_2  and  C_4
REMARK    4  A    between atoms: C_7  and  C_8
REMARK    5  A    between atoms: C_8  and  N_9
REMARK    6  A    between atoms: C_11  and  C_12
REMARK    7  A    between atoms: C_12  and  C_13
REMARK    8  A    between atoms: C_12  and  C_14
REMARK    9  A    between atoms: C_12  and  C_15
REMARK                            x       y       z     vdW  Elec       q    Type
REMARK                         _______ _______ _______ _____ _____    ______ ____
ROOT
ATOM      1  N   UNL     1      44.670   5.867  11.520  0.00  0.00    +0.000 N 
ATOM      2  C   UNL     1      45.787   5.536  12.242  0.00  0.00    +0.000 A 
ATOM      3  C   UNL     1      46.413   6.691  12.681  0.00  0.00    +0.000 A 
ATOM      4  C   UNL     1      45.614   7.782  12.180  0.00  0.00    +0.000 A 
ATOM      5  C   UNL     1      45.717   9.192  12.245  0.00  0.00    +0.000 A 
ATOM      6  C   UNL     1      44.773  10.001  11.606  0.00  0.00    +0.000 A 
ATOM      7  C   UNL     1      43.704   9.432  10.927  0.00  0.00    +0.000 A 
ATOM      8  C   UNL     1      43.560   8.044  10.857  0.00  0.00    +0.000 A 
ATOM      9  C   UNL     1      44.533   7.239  11.476  0.00  0.00    +0.000 A 
ENDROOT
BRANCH   3  10
ATOM     10  C   UNL     1      47.706   6.779  13.498  0.00  0.00    +0.000 C 
ATOM     11  C   UNL     1      47.771   8.088  14.319  0.00  0.00    +0.000 C 
ATOM     12  C   UNL     1      47.803   5.605  14.494  0.00  0.00    +0.000 C 
ATOM     13  C   UNL     1      48.941   6.761  12.575  0.00  0.00    +0.000 C 
ENDBRANCH   3  10
BRANCH   1  14
ATOM     14  C   UNL     1      43.886   4.913  10.746  0.00  0.00    +0.000 C 
BRANCH  14  18
ATOM     15  C   UNL     1      46.366   2.949   7.871  0.00  0.00    +0.000 A 
ATOM     16  C   UNL     1      45.559   2.183   8.720  0.00  0.00    +0.000 A 
ATOM     17  C   UNL     1      44.704   2.811   9.623  0.00  0.00    +0.000 A 
ATOM     18  C   UNL     1      44.685   4.203   9.685  0.00  0.00    +0.000 A 
ATOM     19  N   UNL     1      45.450   4.966   8.863  0.00  0.00    +0.000 NA
ATOM     20  C   UNL     1      46.252   4.330   7.975  0.00  0.00    +0.000 A 
BRANCH  15  22
ATOM     21  C   UNL     1      46.992   2.762   5.448  0.00  0.00    +0.000 C 
ATOM     22  C   UNL     1      47.322   2.330   6.877  0.00  0.00    +0.000 C 
BRANCH  22  23
ATOM     23  N   UNL     1      47.325   0.868   6.965  0.00  0.00    +0.000 NA
ATOM     24  H   UNL     1      47.807   0.471   6.160  0.00  0.00    +0.000 HD
ATOM     25  H   UNL     1      46.365   0.527   6.924  0.00  0.00    +0.000 HD
ENDBRANCH  22  23
ENDBRANCH  15  22
ENDBRANCH  14  18
ENDBRANCH   1  14
TORSDOF 5
ENDMDL
MODEL 4
REMARK VINA RESULT:    -6.503      1.688      3.441
REMARK INTER + INTRA:          -8.645
REMARK INTER:                  -8.230
REMARK INTRA:                  -0.415
REMARK UNBOUND:                -0.431
REMARK  Name = 
REMARK  9 active torsions:
REMARK  status: ('A' for Active; 'I' for Inactive)
REMARK    1  A    between atoms: C_1  and  C_2
REMARK    2  A    between atoms: C_2  and  N_3
REMARK    3  A    between atoms: C_2  and  C_4
REMARK    4  A    between atoms: C_7  and  C_8
REMARK    5  A    between atoms: C_8  and  N_9
REMARK    6  A    between atoms: C_11  and  C_12
REMARK    7  A    between atoms: C_12  and  C_13
REMARK    8  A    between atoms: C_12  and  C_14
REMARK    9  A    between atoms: C_12  and  C_15
REMARK                            x       y       z     vdW  Elec       q    Type
REMARK                         _______ _______ _______ _____ _____    ______ ____
ROOT
ATOM      1  N   UNL     1      45.362   7.038  12.549  0.00  0.00    +0.000 N 
ATOM      2  C   UNL     1      46.578   6.869  13.159  0.00  0.00    +0.000 A 
ATOM      3  C   UNL     1      47.297   8.050  13.091  0.00  0.00    +0.000 A 
ATOM      4  C   UNL     1      46.451   8.982  12.387  0.00  0.00    +0.000 A 
ATOM      5  C   UNL     1      46.598  10.325  11.966  0.00  0.00    +0.000 A 
ATOM      6  C   UNL     1      45.579  10.958  11.249  0.00  0.00    +0.000 A 
ATOM      7  C   UNL     1      44.396  10.288  10.969  0.00  0.00    +0.000 A 
ATOM      8  C   UNL     1      44.208   8.967  11.384  0.00  0.00    +0.000 A 
ATOM      9  C   UNL     1      45.252   8.330  12.077  0.00  0.00    +0.000 A 
ENDROOT
BRANCH   3  10
ATOM     10  C   UNL     1      48.713   8.293  13.623  0.00  0.00    +0.000 C 
ATOM     11  C   UNL     1      48.768   9.534  14.545  0.00  0.00    +0.000 C 
ATOM     12  C   UNL     1      49.199   7.084  14.449  0.00  0.00    +0.000 C 
ATOM     13  C   UNL     1      49.700   8.544  12.466  0.00  0.00    +0.000 C 
ENDBRANCH   3  10
BRANCH   1  14
ATOM     14  C   UNL     1      44.433   5.951  12.263  0.00  0.00    +0.000 C 
BRANCH  14  18
ATOM     15  C   UNL     1      45.413   3.931   8.625  0.00  0.00    +0.000 A 
ATOM     16  C   UNL     1      44.443   3.387   9.474  0.00  0.00    +0.000 A 
ATOM     17  C   UNL     1      44.073   4.062  10.635  0.00  0.00    +0.000 A 
ATOM     18  C   UNL     1      44.699   5.268  10.948  0.00  0.00    +0.000 A 
ATOM     19  N   UNL     1      45.633   5.821  10.133  0.00  0.00    +0.000 NA
ATOM     20  C   UNL     1      45.954   5.157   8.997  0.00  0.00    +0.000 A 
BRANCH  15  22
ATOM     21  C   UNL     1      46.547   1.910   7.661  0.00  0.00    +0.000 C 
ATOM     22  C   UNL     1      45.866   3.245   7.357  0.00  0.00    +0.000 C 
BRANCH  22  23
ATOM     23  N   UNL     1      46.765   4.094   6.572  0.00  0.00    +0.000 NA
ATOM     24  H   UNL     1      46.684   3.867   5.583  0.00  0.00    +0.000 HD
ATOM     25  H   UNL     1      47.730   3.894   6.836  0.00  0.00    +0.000 HD
ENDBRANCH  22  23
ENDBRANCH  15  22
ENDBRANCH  14  18
ENDBRANCH   1  14
TORSDOF 5
ENDMDL
MODEL 5
REMARK VINA RESULT:    -5.775      3.373      7.896
REMARK INTER + INTRA:          -7.725
REMARK INTER:                  -7.368
REMARK INTRA:                  -0.357
REMARK UNBOUND:                -0.431
REMARK  Name = 
REMARK  9 active torsions:
REMARK  status: ('A' for Active; 'I' for Inactive)
REMARK    1  A    between atoms: C_1  and  C_2
REMARK    2  A    between atoms: C_2  and  N_3
REMARK    3  A    between atoms: C_2  and  C_4
REMARK    4  A    between atoms: C_7  and  C_8
REMARK    5  A    between atoms: C_8  and  N_9
REMARK    6  A    between atoms: C_11  and  C_12
REMARK    7  A    between atoms: C_12  and  C_13
REMARK    8  A    between atoms: C_12  and  C_14
REMARK    9  A    between atoms: C_12  and  C_15
REMARK                            x       y       z     vdW  Elec       q    Type
REMARK                         _______ _______ _______ _____ _____    ______ ____
ROOT
ATOM      1  N   UNL     1      47.754   6.808  13.430  0.00  0.00    +0.000 N 
ATOM      2  C   UNL     1      47.120   5.610  13.226  0.00  0.00    +0.000 A 
ATOM      3  C   UNL     1      45.935   5.823  12.543  0.00  0.00    +0.000 A 
ATOM      4  C   UNL     1      45.859   7.249  12.331  0.00  0.00    +0.000 A 
ATOM      5  C   UNL     1      44.906   8.107  11.734  0.00  0.00    +0.000 A 
ATOM      6  C   UNL     1      45.111   9.490  11.717  0.00  0.00    +0.000 A 
ATOM      7  C   UNL     1      46.268  10.035  12.258  0.00  0.00    +0.000 A 
ATOM      8  C   UNL     1      47.239   9.216  12.839  0.00  0.00    +0.000 A 
ATOM      9  C   UNL     1      47.007   7.830  12.879  0.00  0.00    +0.000 A 
ENDROOT
BRANCH   3  10
ATOM     10  C   UNL     1      44.908   4.763  12.135  0.00  0.00    +0.000 C 
ATOM     11  C   UNL     1      45.393   3.337  12.484  0.00  0.00    +0.000 C 
ATOM     12  C   UNL     1      43.571   4.988  12.873  0.00  0.00    +0.000 C 
ATOM     13  C   UNL     1      44.657   4.797  10.614  0.00  0.00    +0.000 C 
ENDBRANCH   3  10
BRANCH   1  14
ATOM     14  C   UNL     1      48.922   6.980  14.284  0.00  0.00    +0.000 C 
BRANCH  14  18
ATOM     15  C   UNL     1      48.597   5.445  18.261  0.00  0.00    +0.000 A 
ATOM     16  C   UNL     1      48.621   6.829  18.058  0.00  0.00    +0.000 A 
ATOM     17  C   UNL     1      48.670   7.345  16.765  0.00  0.00    +0.000 A 
ATOM     18  C   UNL     1      48.720   6.465  15.685  0.00  0.00    +0.000 A 
ATOM     19  N   UNL     1      48.685   5.119  15.856  0.00  0.00    +0.000 NA
ATOM     20  C   UNL     1      48.609   4.645  17.124  0.00  0.00    +0.000 A 
BRANCH  15  22
ATOM     21  C   UNL     1      49.812   5.158  20.438  0.00  0.00    +0.000 C 
ATOM     22  C   UNL     1      48.554   4.823  19.637  0.00  0.00    +0.000 C 
BRANCH  22  23
ATOM     23  N   UNL     1      48.381   3.369  19.570  0.00  0.00    +0.000 NA
ATOM     24  H   UNL     1      48.393   3.060  18.601  0.00  0.00    +0.000 HD
ATOM     25  H   UNL     1      47.463   3.124  19.941  0.00  0.00    +0.000 HD
ENDBRANCH  22  23
ENDBRANCH  15  22
ENDBRANCH  14  18
ENDBRANCH   1  14
TORSDOF 5
ENDMDL
MODEL 6
REMARK VINA RESULT:    -5.750      3.796      7.550
REMARK INTER + INTRA:          -7.693
REMARK INTER:                  -7.190
REMARK INTRA:                  -0.503
REMARK UNBOUND:                -0.431
REMARK  Name = 
REMARK  9 active torsions:
REMARK  status: ('A' for Active; 'I' for Inactive)
REMARK    1  A    between atoms: C_1  and  C_2
REMARK    2  A    between atoms: C_2  and  N_3
REMARK    3  A    between atoms: C_2  and  C_4
REMARK    4  A    between atoms: C_7  and  C_8
REMARK    5  A    between atoms: C_8  and  N_9
REMARK    6  A    between atoms: C_11  and  C_12
REMARK    7  A    between atoms: C_12  and  C_13
REMARK    8  A    between atoms: C_12  and  C_14
REMARK    9  A    between atoms: C_12  and  C_15
REMARK                            x       y       z     vdW  Elec       q    Type
REMARK                         _______ _______ _______ _____ _____    ______ ____
ROOT
ATOM      1  N   UNL     1      47.075   4.818  14.348  0.00  0.00    +0.000 N 
ATOM      2  C   UNL     1      47.904   5.909  14.386  0.00  0.00    +0.000 A 
ATOM      3  C   UNL     1      47.689   6.694  13.266  0.00  0.00    +0.000 A 
ATOM      4  C   UNL     1      46.664   6.018  12.508  0.00  0.00    +0.000 A 
ATOM      5  C   UNL     1      46.023   6.270  11.272  0.00  0.00    +0.000 A 
ATOM      6  C   UNL     1      45.068   5.379  10.775  0.00  0.00    +0.000 A 
ATOM      7  C   UNL     1      44.712   4.252  11.504  0.00  0.00    +0.000 A 
ATOM      8  C   UNL     1      45.311   3.980  12.737  0.00  0.00    +0.000 A 
ATOM      9  C   UNL     1      46.294   4.866  13.211  0.00  0.00    +0.000 A 
ENDROOT
BRANCH   3  10
ATOM     10  C   UNL     1      48.420   7.989  12.899  0.00  0.00    +0.000 C 
ATOM     11  C   UNL     1      49.425   8.405  13.998  0.00  0.00    +0.000 C 
ATOM     12  C   UNL     1      49.216   7.812  11.589  0.00  0.00    +0.000 C 
ATOM     13  C   UNL     1      47.424   9.153  12.732  0.00  0.00    +0.000 C 
ENDBRANCH   3  10
BRANCH   1  14
ATOM     14  C   UNL     1      47.171   3.686  15.261  0.00  0.00    +0.000 C 
BRANCH  14  18
ATOM     15  C   UNL     1      49.151   4.854  18.866  0.00  0.00    +0.000 A 
ATOM     16  C   UNL     1      47.794   5.152  18.699  0.00  0.00    +0.000 A 
ATOM     17  C   UNL     1      47.121   4.729  17.555  0.00  0.00    +0.000 A 
ATOM     18  C   UNL     1      47.824   4.031  16.574  0.00  0.00    +0.000 A 
ATOM     19  N   UNL     1      49.137   3.719  16.719  0.00  0.00    +0.000 NA
ATOM     20  C   UNL     1      49.759   4.119  17.855  0.00  0.00    +0.000 A 
BRANCH  15  22
ATOM     21  C   UNL     1      50.352   6.761  19.972  0.00  0.00    +0.000 C 
ATOM     22  C   UNL     1      49.940   5.292  20.078  0.00  0.00    +0.000 C 
BRANCH  22  23
ATOM     23  N   UNL     1      51.126   4.458  20.284  0.00  0.00    +0.000 NA
ATOM     24  H   UNL     1      51.317   3.909  19.449  0.00  0.00    +0.000 HD
ATOM     25  H   UNL     1      50.940   3.790  21.032  0.00  0.00    +0.000 HD
ENDBRANCH  22  23
ENDBRANCH  15  22
ENDBRANCH  14  18
ENDBRANCH   1  14
TORSDOF 5
ENDMDL
MODEL 7
REMARK VINA RESULT:    -5.703      1.571      2.643
REMARK INTER + INTRA:          -7.635
REMARK INTER:                  -7.118
REMARK INTRA:                  -0.517
REMARK UNBOUND:                -0.431
REMARK  Name = 
REMARK  9 active torsions:
REMARK  status: ('A' for Active; 'I' for Inactive)
REMARK    1  A    between atoms: C_1  and  C_2
REMARK    2  A    between atoms: C_2  and  N_3
REMARK    3  A    between atoms: C_2  and  C_4
REMARK    4  A    between atoms: C_7  and  C_8
REMARK    5  A    between atoms: C_8  and  N_9
REMARK    6  A    between atoms: C_11  and  C_12
REMARK    7  A    between atoms: C_12  and  C_13
REMARK    8  A    between atoms: C_12  and  C_14
REMARK    9  A    between atoms: C_12  and  C_15
REMARK                            x       y       z     vdW  Elec       q    Type
REMARK                         _______ _______ _______ _____ _____    ______ ____
ROOT
ATOM      1  N   UNL     1      46.416   6.128  13.417  0.00  0.00    +0.000 N 
ATOM      2  C   UNL     1      46.966   7.341  13.091  0.00  0.00    +0.000 A 
ATOM      3  C   UNL     1      48.014   7.620  13.951  0.00  0.00    +0.000 A 
ATOM      4  C   UNL     1      48.088   6.497  14.853  0.00  0.00    +0.000 A 
ATOM      5  C   UNL     1      48.902   6.176  15.964  0.00  0.00    +0.000 A 
ATOM      6  C   UNL     1      48.695   4.990  16.675  0.00  0.00    +0.000 A 
ATOM      7  C   UNL     1      47.709   4.097  16.279  0.00  0.00    +0.000 A 
ATOM      8  C   UNL     1      46.898   4.372  15.175  0.00  0.00    +0.000 A 
ATOM      9  C   UNL     1      47.094   5.582  14.487  0.00  0.00    +0.000 A 
ENDROOT
BRANCH   3  10
ATOM     10  C   UNL     1      48.884   8.881  13.957  0.00  0.00    +0.000 C 
ATOM     11  C   UNL     1      48.409   9.905  12.901  0.00  0.00    +0.000 C 
ATOM     12  C   UNL     1      48.824   9.577  15.334  0.00  0.00    +0.000 C 
ATOM     13  C   UNL     1      50.351   8.538  13.629  0.00  0.00    +0.000 C 
ENDBRANCH   3  10
BRANCH   1  14
ATOM     14  C   UNL     1      45.176   5.614  12.849  0.00  0.00    +0.000 C 
BRANCH  14  18
ATOM     15  C   UNL     1      45.461   3.607   9.085  0.00  0.00    +0.000 A 
ATOM     16  C   UNL     1      45.721   4.980   9.154  0.00  0.00    +0.000 A 
ATOM     17  C   UNL     1      45.687   5.637  10.381  0.00  0.00    +0.000 A 
ATOM     18  C   UNL     1      45.367   4.914  11.529  0.00  0.00    +0.000 A 
ATOM     19  N   UNL     1      45.124   3.579  11.489  0.00  0.00    +0.000 NA
ATOM     20  C   UNL     1      45.191   2.960  10.286  0.00  0.00    +0.000 A 
BRANCH  15  22
ATOM     21  C   UNL     1      46.161   1.483   7.947  0.00  0.00    +0.000 C 
ATOM     22  C   UNL     1      45.473   2.838   7.785  0.00  0.00    +0.000 C 
BRANCH  22  23
ATOM     23  N   UNL     1      46.119   3.597   6.711  0.00  0.00    +0.000 NA
ATOM     24  H   UNL     1      45.427   3.889   6.024  0.00  0.00    +0.000 HD
ATOM     25  H   UNL     1      46.775   2.990   6.220  0.00  0.00    +0.000 HD
ENDBRANCH  22  23
ENDBRANCH  15  22
ENDBRANCH  14  18
ENDBRANCH   1  14
TORSDOF 5
ENDMDL
MODEL 8
REMARK VINA RESULT:    -5.653      2.599      4.503
REMARK INTER + INTRA:          -7.571
REMARK INTER:                  -6.912
REMARK INTRA:                  -0.658
REMARK UNBOUND:                -0.431
REMARK  Name = 
REMARK  9 active torsions:
REMARK  status: ('A' for Active; 'I' for Inactive)
REMARK    1  A    between atoms: C_1  and  C_2
REMARK    2  A    between atoms: C_2  and  N_3
REMARK    3  A    between atoms: C_2  and  C_4
REMARK    4  A    between atoms: C_7  and  C_8
REMARK    5  A    between atoms: C_8  and  N_9
REMARK    6  A    between atoms: C_11  and  C_12
REMARK    7  A    between atoms: C_12  and  C_13
REMARK    8  A    between atoms: C_12  and  C_14
REMARK    9  A    between atoms: C_12  and  C_15
REMARK                            x       y       z     vdW  Elec       q    Type
REMARK                         _______ _______ _______ _____ _____    ______ ____
ROOT
ATOM      1  N   UNL     1      48.102   7.956  13.180  0.00  0.00    +0.000 N 
ATOM      2  C   UNL     1      48.831   8.701  12.289  0.00  0.00    +0.000 A 
ATOM      3  C   UNL     1      50.148   8.768  12.711  0.00  0.00    +0.000 A 
ATOM      4  C   UNL     1      50.202   8.015  13.941  0.00  0.00    +0.000 A 
ATOM      5  C   UNL     1      51.224   7.725  14.876  0.00  0.00    +0.000 A 
ATOM      6  C   UNL     1      50.943   6.976  16.022  0.00  0.00    +0.000 A 
ATOM      7  C   UNL     1      49.665   6.480  16.241  0.00  0.00    +0.000 A 
ATOM      8  C   UNL     1      48.636   6.731  15.330  0.00  0.00    +0.000 A 
ATOM      9  C   UNL     1      48.922   7.512  14.198  0.00  0.00    +0.000 A 
ENDROOT
BRANCH   3  10
ATOM     10  C   UNL     1      51.293   9.520  12.026  0.00  0.00    +0.000 C 
ATOM     11  C   UNL     1      51.975  10.518  12.991  0.00  0.00    +0.000 C 
ATOM     12  C   UNL     1      52.377   8.536  11.540  0.00  0.00    +0.000 C 
ATOM     13  C   UNL     1      50.774  10.335  10.825  0.00  0.00    +0.000 C 
ENDBRANCH   3  10
BRANCH   1  14
ATOM     14  C   UNL     1      46.649   7.844  13.155  0.00  0.00    +0.000 C 
BRANCH  14  18
ATOM     15  C   UNL     1      45.022   4.263  11.479  0.00  0.00    +0.000 A 
ATOM     16  C   UNL     1      45.369   5.322  10.633  0.00  0.00    +0.000 A 
ATOM     17  C   UNL     1      45.952   6.473  11.158  0.00  0.00    +0.000 A 
ATOM     18  C   UNL     1      46.159   6.562  12.534  0.00  0.00    +0.000 A 
ATOM     19  N   UNL     1      45.842   5.543  13.372  0.00  0.00    +0.000 NA
ATOM     20  C   UNL     1      45.302   4.424  12.831  0.00  0.00    +0.000 A 
BRANCH  15  22
ATOM     21  C   UNL     1      44.460   2.896   9.450  0.00  0.00    +0.000 C 
ATOM     22  C   UNL     1      44.378   2.993  10.974  0.00  0.00    +0.000 C 
BRANCH  22  23
ATOM     23  N   UNL     1      42.982   2.884  11.403  0.00  0.00    +0.000 NA
ATOM     24  H   UNL     1      42.837   3.416  12.259  0.00  0.00    +0.000 HD
ATOM     25  H   UNL     1      42.776   1.911  11.629  0.00  0.00    +0.000 HD
ENDBRANCH  22  23
ENDBRANCH  15  22
ENDBRANCH  14  18
ENDBRANCH   1  14
TORSDOF 5
ENDMDL
MODEL 9
REMARK VINA RESULT:    -5.471      3.664      6.545
REMARK INTER + INTRA:          -7.342
REMARK INTER:                  -6.721
REMARK INTRA:                  -0.621
REMARK UNBOUND:                -0.431
REMARK  Name = 
REMARK  9 active torsions:
REMARK  status: ('A' for Active; 'I' for Inactive)
REMARK    1  A    between atoms: C_1  and  C_2
REMARK    2  A    between atoms: C_2  and  N_3
REMARK    3  A    between atoms: C_2  and  C_4
REMARK    4  A    between atoms: C_7  and  C_8
REMARK    5  A    between atoms: C_8  and  N_9
REMARK    6  A    between atoms: C_11  and  C_12
REMARK    7  A    between atoms: C_12  and  C_13
REMARK    8  A    between atoms: C_12  and  C_14
REMARK    9  A    between atoms: C_12  and  C_15
REMARK                            x       y       z     vdW  Elec       q    Type
REMARK                         _______ _______ _______ _____ _____    ______ ____
ROOT
ATOM      1  N   UNL     1      48.509   6.833  15.332  0.00  0.00    +0.000 N 
ATOM      2  C   UNL     1      48.629   5.819  16.248  0.00  0.00    +0.000 A 
ATOM      3  C   UNL     1      48.862   6.355  17.503  0.00  0.00    +0.000 A 
ATOM      4  C   UNL     1      48.886   7.786  17.318  0.00  0.00    +0.000 A 
ATOM      5  C   UNL     1      49.104   8.888  18.178  0.00  0.00    +0.000 A 
ATOM      6  C   UNL     1      49.100  10.191  17.673  0.00  0.00    +0.000 A 
ATOM      7  C   UNL     1      48.848  10.422  16.327  0.00  0.00    +0.000 A 
ATOM      8  C   UNL     1      48.610   9.360  15.452  0.00  0.00    +0.000 A 
ATOM      9  C   UNL     1      48.649   8.051  15.965  0.00  0.00    +0.000 A 
ENDROOT
BRANCH   3  10
ATOM     10  C   UNL     1      49.083   5.578  18.804  0.00  0.00    +0.000 C 
ATOM     11  C   UNL     1      48.035   5.955  19.877  0.00  0.00    +0.000 C 
ATOM     12  C   UNL     1      48.966   4.059  18.559  0.00  0.00    +0.000 C 
ATOM     13  C   UNL     1      50.472   5.888  19.399  0.00  0.00    +0.000 C 
ENDBRANCH   3  10
BRANCH   1  14
ATOM     14  C   UNL     1      48.456   6.629  13.890  0.00  0.00    +0.000 C 
BRANCH  14  18
ATOM     15  C   UNL     1      44.473   5.629  12.702  0.00  0.00    +0.000 A 
ATOM     16  C   UNL     1      44.936   6.937  12.523  0.00  0.00    +0.000 A 
ATOM     17  C   UNL     1      46.249   7.264  12.853  0.00  0.00    +0.000 A 
ATOM     18  C   UNL     1      47.081   6.281  13.385  0.00  0.00    +0.000 A 
ATOM     19  N   UNL     1      46.658   5.002  13.556  0.00  0.00    +0.000 NA
ATOM     20  C   UNL     1      45.385   4.704  13.200  0.00  0.00    +0.000 A 
BRANCH  15  22
ATOM     21  C   UNL     1      43.040   3.977  11.469  0.00  0.00    +0.000 C 
ATOM     22  C   UNL     1      43.059   5.211  12.373  0.00  0.00    +0.000 C 
BRANCH  22  23
ATOM     23  N   UNL     1      42.304   6.298  11.744  0.00  0.00    +0.000 NA
ATOM     24  H   UNL     1      41.650   5.920  11.062  0.00  0.00    +0.000 HD
ATOM     25  H   UNL     1      42.947   6.897  11.228  0.00  0.00    +0.000 HD
ENDBRANCH  22  23
ENDBRANCH  15  22
ENDBRANCH  14  18
ENDBRANCH   1  14
TORSDOF 5
ENDMDL
