MODEL 1
REMARK VINA RESULT:    -7.960      0.000      0.000
REMARK INTER + INTRA:         -11.126
REMARK INTER:                 -10.286
REMARK INTRA:                  -0.839
REMARK UNBOUND:                -0.839
REMARK  Name = 
REMARK  5 active torsions:
REMARK  status: ('A' for Active; 'I' for Inactive)
REMARK    1  A    between atoms: C_2  and  C_4
REMARK    2  A    between atoms: C_8  and  N_9
REMARK    3  A    between atoms: N_9  and  C_10
REMARK    4  A    between atoms: C_10  and  C_11
REMARK    5  A    between atoms: C_15  and  C_16
REMARK                            x       y       z     vdW  Elec       q    Type
REMARK                         _______ _______ _______ _____ _____    ______ ____
ROOT
ATOM      1  C   UNL     1      44.043   5.431  11.603  0.00  0.00    +0.000 C 
ATOM      2  C   UNL     1      42.735   6.163  11.290  0.00  0.00    +0.000 C 
ATOM      3  C   UNL     1      42.900   5.484  12.604  0.00  0.00    +0.000 C 
ENDROOT
BRANCH   1   4
ATOM      4  C   UNL     1      44.276   4.048  11.001  0.00  0.00    +0.000 A 
ATOM      5  C   UNL     1      43.472   2.960  11.373  0.00  0.00    +0.000 A 
ATOM      6  C   UNL     1      43.513   1.758  10.667  0.00  0.00    +0.000 A 
ATOM      7  C   UNL     1      44.370   1.622   9.575  0.00  0.00    +0.000 A 
ATOM      8  C   UNL     1      45.237   2.660   9.196  0.00  0.00    +0.000 A 
ATOM      9  C   UNL     1      45.197   3.846   9.955  0.00  0.00    +0.000 A 
BRANCH   8  10
ATOM     10  C   UNL     1      46.087   2.560   7.994  0.00  0.00    +0.000 A 
ATOM     11  C   UNL     1      46.133   3.563   7.017  0.00  0.00    +0.000 A 
ATOM     12  C   UNL     1      46.903   3.399   5.866  0.00  0.00    +0.000 A 
ATOM     13  C   UNL     1      47.629   2.229   5.721  0.00  0.00    +0.000 A 
ATOM     14  N   UNL     1      47.628   1.236   6.630  0.00  0.00    +0.000 NA
ATOM     15  C   UNL     1      46.860   1.424   7.732  0.00  0.00    +0.000 A 
ENDBRANCH   8  10
ENDBRANCH   1   4
BRANCH   1  16
ATOM     16  N   UNL     1      45.202   6.322  11.588  0.00  0.00    +0.000 N 
ATOM     17  H   UNL     1      45.549   6.603  10.672  0.00  0.00    +0.000 HD
BRANCH  16  22
ATOM     18  C   UNL     1      47.339   5.191  14.149  0.00  0.00    +0.000 A 
ATOM     19  N   UNL     1      48.454   5.957  14.123  0.00  0.00    +0.000 NA
ATOM     20  C   UNL     1      48.434   6.931  13.193  0.00  0.00    +0.000 A 
ATOM     21  C   UNL     1      47.390   7.154  12.327  0.00  0.00    +0.000 A 
ATOM     22  C   UNL     1      46.301   6.309  12.437  0.00  0.00    +0.000 A 
ATOM     23  N   UNL     1      46.275   5.319  13.347  0.00  0.00    +0.000 NA
BRANCH  18  25
ATOM     24  N   UNL     1      46.761   4.384  16.394  0.00  0.00    +0.000 N 
ATOM     25  C   UNL     1      47.297   4.069  15.166  0.00  0.00    +0.000 C 
ATOM     26  O   UNL     1      47.697   2.933  14.953  0.00  0.00    +0.000 OA
ATOM     27  H   UNL     1      46.714   3.666  17.103  0.00  0.00    +0.000 HD
ATOM     28  H   UNL     1      46.423   5.321  16.583  0.00  0.00    +0.000 HD
ENDBRANCH  18  25
ENDBRANCH  16  22
ENDBRANCH   1  16
TORSDOF 5
ENDMDL
MODEL 2
REMARK VINA RESULT:    -7.895      2.506      7.429
REMARK INTER + INTRA:         -11.042
REMARK INTER:                 -10.237
REMARK INTRA:                  -0.805
REMARK UNBOUND:                -0.839
REMARK  Name = 
REMARK  5 active torsions:
REMARK  status: ('A' for Active; 'I' for Inactive)
REMARK    1  A    between atoms: C_2  and  C_4
REMARK    2  A    between atoms: C_8  and  N_9
REMARK    3  A    between atoms: N_9  and  C_10
REMARK    4  A    between atoms: C_10  and  C_11
REMARK    5  A    between atoms: C_15  and  C_16
REMARK                            x       y       z     vdW  Elec       q    Type
REMARK                         _______ _______ _______ _____ _____    ______ ____
ROOT
ATOM      1  C   UNL     1      44.457   3.909  12.068  0.00  0.00    +0.000 C 
ATOM      2  C   UNL     1      43.337   3.541  13.045  0.00  0.00    +0.000 C 
ATOM      3  C   UNL     1      43.192   4.745  12.183  0.00  0.00    +0.000 C 
ENDROOT
BRANCH   1   4
ATOM      4  C   UNL     1      45.707   4.601  12.606  0.00  0.00    +0.000 A 
ATOM      5  C   UNL     1      46.223   5.742  11.973  0.00  0.00    +0.000 A 
ATOM      6  C   UNL     1      47.210   6.518  12.579  0.00  0.00    +0.000 A 
ATOM      7  C   UNL     1      47.706   6.159  13.832  0.00  0.00    +0.000 A 
ATOM      8  C   UNL     1      47.265   4.996  14.483  0.00  0.00    +0.000 A 
ATOM      9  C   UNL     1      46.296   4.214  13.826  0.00  0.00    +0.000 A 
BRANCH   8  10
ATOM     10  C   UNL     1      47.719   4.649  15.844  0.00  0.00    +0.000 A 
ATOM     11  C   UNL     1      47.345   3.460  16.484  0.00  0.00    +0.000 A 
ATOM     12  C   UNL     1      47.747   3.202  17.794  0.00  0.00    +0.000 A 
ATOM     13  C   UNL     1      48.532   4.142  18.439  0.00  0.00    +0.000 A 
ATOM     14  N   UNL     1      48.926   5.297  17.871  0.00  0.00    +0.000 NA
ATOM     15  C   UNL     1      48.510   5.521  16.601  0.00  0.00    +0.000 A 
ENDBRANCH   8  10
ENDBRANCH   1   4
BRANCH   1  16
ATOM     16  N   UNL     1      44.700   2.866  11.073  0.00  0.00    +0.000 N 
ATOM     17  H   UNL     1      45.166   2.022  11.402  0.00  0.00    +0.000 HD
BRANCH  16  22
ATOM     18  C   UNL     1      46.198   2.087   7.982  0.00  0.00    +0.000 A 
ATOM     19  N   UNL     1      45.784   3.007   7.081  0.00  0.00    +0.000 NA
ATOM     20  C   UNL     1      44.977   3.957   7.591  0.00  0.00    +0.000 A 
ATOM     21  C   UNL     1      44.586   4.016   8.908  0.00  0.00    +0.000 A 
ATOM     22  C   UNL     1      45.065   3.022   9.742  0.00  0.00    +0.000 A 
ATOM     23  N   UNL     1      45.869   2.049   9.279  0.00  0.00    +0.000 NA
BRANCH  18  25
ATOM     24  N   UNL     1      46.685  -0.304   7.725  0.00  0.00    +0.000 N 
ATOM     25  C   UNL     1      47.102   0.983   7.474  0.00  0.00    +0.000 C 
ATOM     26  O   UNL     1      48.146   1.174   6.865  0.00  0.00    +0.000 OA
ATOM     27  H   UNL     1      47.259  -1.072   7.406  0.00  0.00    +0.000 HD
ATOM     28  H   UNL     1      45.822  -0.477   8.226  0.00  0.00    +0.000 HD
ENDBRANCH  18  25
ENDBRANCH  16  22
ENDBRANCH   1  16
TORSDOF 5
ENDMDL
MODEL 3
REMARK VINA RESULT:    -7.658      2.552      6.568
REMARK INTER + INTRA:         -10.735
REMARK INTER:                 -10.238
REMARK INTRA:                  -0.497
REMARK UNBOUND:                -0.839
REMARK  Name = 
REMARK  5 active torsions:
REMARK  status: ('A' for Active; 'I' for Inactive)
REMARK    1  A    between atoms: C_2  and  C_4
REMARK    2  A    between atoms: C_8  and  N_9
REMARK    3  A    between atoms: N_9  and  C_10
REMARK    4  A    between atoms: C_10  and  C_11
REMARK    5  A    between atoms: C_15  and  C_16
REMARK                            x       y       z     vdW  Elec       q    Type
REMARK                         _______ _______ _______ _____ _____    ______ ____
ROOT
ATOM      1  C   UNL     1      44.101   5.507  10.976  0.00  0.00    +0.000 C 
ATOM      2  C   UNL     1      42.682   5.062  11.340  0.00  0.00    +0.000 C 
ATOM      3  C   UNL     1      43.021   6.512  11.345  0.00  0.00    +0.000 C 
ENDROOT
BRANCH   1   4
ATOM      4  C   UNL     1      45.206   5.375  12.021  0.00  0.00    +0.000 A 
ATOM      5  C   UNL     1      45.300   4.229  12.825  0.00  0.00    +0.000 A 
ATOM      6  C   UNL     1      46.428   3.987  13.608  0.00  0.00    +0.000 A 
ATOM      7  C   UNL     1      47.484   4.898  13.606  0.00  0.00    +0.000 A 
ATOM      8  C   UNL     1      47.418   6.088  12.863  0.00  0.00    +0.000 A 
ATOM      9  C   UNL     1      46.248   6.319  12.114  0.00  0.00    +0.000 A 
BRANCH   8  10
ATOM     10  C   UNL     1      48.560   7.018  12.786  0.00  0.00    +0.000 A 
ATOM     11  C   UNL     1      48.960   7.624  11.587  0.00  0.00    +0.000 A 
ATOM     12  C   UNL     1      50.085   8.448  11.548  0.00  0.00    +0.000 A 
ATOM     13  C   UNL     1      50.785   8.661  12.723  0.00  0.00    +0.000 A 
ATOM     14  N   UNL     1      50.443   8.112  13.903  0.00  0.00    +0.000 NA
ATOM     15  C   UNL     1      49.351   7.308  13.903  0.00  0.00    +0.000 A 
ENDBRANCH   8  10
ENDBRANCH   1   4
BRANCH   1  16
ATOM     16  N   UNL     1      44.478   5.124   9.616  0.00  0.00    +0.000 N 
ATOM     17  H   UNL     1      43.966   5.574   8.859  0.00  0.00    +0.000 HD
BRANCH  16  22
ATOM     18  C   UNL     1      46.280   2.711   7.790  0.00  0.00    +0.000 A 
ATOM     19  N   UNL     1      45.871   1.491   8.204  0.00  0.00    +0.000 NA
ATOM     20  C   UNL     1      44.897   1.521   9.135  0.00  0.00    +0.000 A 
ATOM     21  C   UNL     1      44.347   2.673   9.644  0.00  0.00    +0.000 A 
ATOM     22  C   UNL     1      44.843   3.867   9.152  0.00  0.00    +0.000 A 
ATOM     23  N   UNL     1      45.818   3.890   8.226  0.00  0.00    +0.000 NA
BRANCH  18  25
ATOM     24  N   UNL     1      47.153   3.559   5.659  0.00  0.00    +0.000 N 
ATOM     25  C   UNL     1      47.381   2.753   6.750  0.00  0.00    +0.000 C 
ATOM     26  O   UNL     1      48.431   2.130   6.835  0.00  0.00    +0.000 OA
ATOM     27  H   UNL     1      47.860   3.616   4.939  0.00  0.00    +0.000 HD
ATOM     28  H   UNL     1      46.289   4.083   5.577  0.00  0.00    +0.000 HD
ENDBRANCH  18  25
ENDBRANCH  16  22
ENDBRANCH   1  16
TORSDOF 5
ENDMDL
MODEL 4
REMARK VINA RESULT:    -7.610      2.486      7.133
REMARK INTER + INTRA:         -10.673
REMARK INTER:                 -10.183
REMARK INTRA:                  -0.490
REMARK UNBOUND:                -0.839
REMARK  Name = 
REMARK  5 active torsions:
REMARK  status: ('A' for Active; 'I' for Inactive)
REMARK    1  A    between atoms: C_2  and  C_4
REMARK    2  A    between atoms: C_8  and  N_9
REMARK    3  A    between atoms: N_9  and  C_10
REMARK    4  A    between atoms: C_10  and  C_11
REMARK    5  A    between atoms: C_15  and  C_16
REMARK                            x       y       z     vdW  Elec       q    Type
REMARK                         _______ _______ _______ _____ _____    ______ ____
ROOT
ATOM      1  C   UNL     1      44.067   5.204  10.992  0.00  0.00    +0.000 C 
ATOM      2  C   UNL     1      43.097   4.421  11.881  0.00  0.00    +0.000 C 
ATOM      3  C   UNL     1      42.931   5.892  11.730  0.00  0.00    +0.000 C 
ENDROOT
BRANCH   1   4
ATOM      4  C   UNL     1      45.453   5.544  11.533  0.00  0.00    +0.000 A 
ATOM      5  C   UNL     1      46.254   6.507  10.901  0.00  0.00    +0.000 A 
ATOM      6  C   UNL     1      47.408   6.998  11.509  0.00  0.00    +0.000 A 
ATOM      7  C   UNL     1      47.787   6.525  12.765  0.00  0.00    +0.000 A 
ATOM      8  C   UNL     1      47.053   5.520  13.417  0.00  0.00    +0.000 A 
ATOM      9  C   UNL     1      45.915   5.019  12.756  0.00  0.00    +0.000 A 
BRANCH   8  10
ATOM     10  C   UNL     1      47.396   5.070  14.779  0.00  0.00    +0.000 A 
ATOM     11  C   UNL     1      48.179   5.838  15.652  0.00  0.00    +0.000 A 
ATOM     12  C   UNL     1      48.530   5.346  16.909  0.00  0.00    +0.000 A 
ATOM     13  C   UNL     1      48.077   4.090  17.275  0.00  0.00    +0.000 A 
ATOM     14  N   UNL     1      47.317   3.313  16.480  0.00  0.00    +0.000 NA
ATOM     15  C   UNL     1      47.003   3.817  15.262  0.00  0.00    +0.000 A 
ENDBRANCH   8  10
ENDBRANCH   1   4
BRANCH   1  16
ATOM     16  N   UNL     1      44.032   4.763   9.598  0.00  0.00    +0.000 N 
ATOM     17  H   UNL     1      43.145   4.871   9.109  0.00  0.00    +0.000 HD
BRANCH  16  22
ATOM     18  C   UNL     1      46.202   2.962   7.488  0.00  0.00    +0.000 A 
ATOM     19  N   UNL     1      46.164   1.665   7.869  0.00  0.00    +0.000 NA
ATOM     20  C   UNL     1      45.313   1.411   8.883  0.00  0.00    +0.000 A 
ATOM     21  C   UNL     1      44.539   2.363   9.501  0.00  0.00    +0.000 A 
ATOM     22  C   UNL     1      44.660   3.660   9.034  0.00  0.00    +0.000 A 
ATOM     23  N   UNL     1      45.498   3.964   8.028  0.00  0.00    +0.000 NA
BRANCH  18  25
ATOM     24  N   UNL     1      48.400   2.761   6.416  0.00  0.00    +0.000 N 
ATOM     25  C   UNL     1      47.145   3.321   6.358  0.00  0.00    +0.000 C 
ATOM     26  O   UNL     1      46.850   4.053   5.423  0.00  0.00    +0.000 OA
ATOM     27  H   UNL     1      49.062   2.975   5.683  0.00  0.00    +0.000 HD
ATOM     28  H   UNL     1      48.657   2.150   7.182  0.00  0.00    +0.000 HD
ENDBRANCH  18  25
ENDBRANCH  16  22
ENDBRANCH   1  16
TORSDOF 5
ENDMDL
MODEL 5
REMARK VINA RESULT:    -7.575      2.322      4.595
REMARK INTER + INTRA:         -10.629
REMARK INTER:                  -9.476
REMARK INTRA:                  -1.152
REMARK UNBOUND:                -0.839
REMARK  Name = 
REMARK  5 active torsions:
REMARK  status: ('A' for Active; 'I' for Inactive)
REMARK    1  A    between atoms: C_2  and  C_4
REMARK    2  A    between atoms: C_8  and  N_9
REMARK    3  A    between atoms: N_9  and  C_10
REMARK    4  A    between atoms: C_10  and  C_11
REMARK    5  A    between atoms: C_15  and  C_16
REMARK                            x       y       z     vdW  Elec       q    Type
REMARK                         _______ _______ _______ _____ _____    ______ ____
ROOT
ATOM      1  C   UNL     1      48.772   7.988  12.713  0.00  0.00    +0.000 C 
ATOM      2  C   UNL     1      49.713   8.375  11.569  0.00  0.00    +0.000 C 
ATOM      3  C   UNL     1      49.180   9.433  12.470  0.00  0.00    +0.000 C 
ENDROOT
BRANCH   1   4
ATOM      4  C   UNL     1      47.308   7.697  12.397  0.00  0.00    +0.000 A 
ATOM      5  C   UNL     1      46.326   8.684  12.573  0.00  0.00    +0.000 A 
ATOM      6  C   UNL     1      45.037   8.517  12.070  0.00  0.00    +0.000 A 
ATOM      7  C   UNL     1      44.703   7.348  11.386  0.00  0.00    +0.000 A 
ATOM      8  C   UNL     1      45.630   6.305  11.232  0.00  0.00    +0.000 A 
ATOM      9  C   UNL     1      46.912   6.491  11.786  0.00  0.00    +0.000 A 
BRANCH   8  10
ATOM     10  C   UNL     1      45.317   5.100  10.441  0.00  0.00    +0.000 A 
ATOM     11  C   UNL     1      45.695   4.960   9.098  0.00  0.00    +0.000 A 
ATOM     12  C   UNL     1      45.323   3.830   8.370  0.00  0.00    +0.000 A 
ATOM     13  C   UNL     1      44.585   2.849   9.008  0.00  0.00    +0.000 A 
ATOM     14  N   UNL     1      44.201   2.927  10.297  0.00  0.00    +0.000 NA
ATOM     15  C   UNL     1      44.570   4.043  10.972  0.00  0.00    +0.000 A 
ENDBRANCH   8  10
ENDBRANCH   1   4
BRANCH   1  16
ATOM     16  N   UNL     1      49.398   7.077  13.670  0.00  0.00    +0.000 N 
ATOM     17  H   UNL     1      49.824   6.235  13.286  0.00  0.00    +0.000 HD
BRANCH  16  22
ATOM     18  C   UNL     1      48.028   5.111  16.252  0.00  0.00    +0.000 A 
ATOM     19  N   UNL     1      48.182   5.789  17.411  0.00  0.00    +0.000 NA
ATOM     20  C   UNL     1      48.755   7.001  17.272  0.00  0.00    +0.000 A 
ATOM     21  C   UNL     1      49.164   7.530  16.071  0.00  0.00    +0.000 A 
ATOM     22  C   UNL     1      48.963   6.749  14.948  0.00  0.00    +0.000 A 
ATOM     23  N   UNL     1      48.399   5.531  15.036  0.00  0.00    +0.000 NA
BRANCH  18  25
ATOM     24  N   UNL     1      47.664   2.882  15.290  0.00  0.00    +0.000 N 
ATOM     25  C   UNL     1      47.397   3.736  16.336  0.00  0.00    +0.000 C 
ATOM     26  O   UNL     1      46.692   3.359  17.262  0.00  0.00    +0.000 OA
ATOM     27  H   UNL     1      47.262   1.956  15.304  0.00  0.00    +0.000 HD
ATOM     28  H   UNL     1      48.249   3.181  14.519  0.00  0.00    +0.000 HD
ENDBRANCH  18  25
ENDBRANCH  16  22
ENDBRANCH   1  16
TORSDOF 5
ENDMDL
MODEL 6
REMARK VINA RESULT:    -7.546      1.524      2.566
REMARK INTER + INTRA:         -10.591
REMARK INTER:                  -9.651
REMARK INTRA:                  -0.940
REMARK UNBOUND:                -0.839
REMARK  Name = 
REMARK  5 active torsions:
REMARK  status: ('A' for Active; 'I' for Inactive)
REMARK    1  A    between atoms: C_2  and  C_4
REMARK    2  A    between atoms: C_8  and  N_9
REMARK    3  A    between atoms: N_9  and  C_10
REMARK    4  A    between atoms: C_10  and  C_11
REMARK    5  A    between atoms: C_15  and  C_16
REMARK                            x       y       z     vdW  Elec       q    Type
REMARK                         _______ _______ _______ _____ _____    ______ ____
ROOT
ATOM      1  C   UNL     1      46.287   7.222  12.426  0.00  0.00    +0.000 C 
ATOM      2  C   UNL     1      46.431   8.606  11.787  0.00  0.00    +0.000 C 
ATOM      3  C   UNL     1      45.569   8.438  12.989  0.00  0.00    +0.000 C 
ENDROOT
BRANCH   1   4
ATOM      4  C   UNL     1      45.357   6.202  11.774  0.00  0.00    +0.000 A 
ATOM      5  C   UNL     1      43.965   6.317  11.898  0.00  0.00    +0.000 A 
ATOM      6  C   UNL     1      43.104   5.544  11.121  0.00  0.00    +0.000 A 
ATOM      7  C   UNL     1      43.626   4.629  10.206  0.00  0.00    +0.000 A 
ATOM      8  C   UNL     1      45.010   4.433  10.082  0.00  0.00    +0.000 A 
ATOM      9  C   UNL     1      45.850   5.204  10.910  0.00  0.00    +0.000 A 
BRANCH   8  10
ATOM     10  C   UNL     1      45.577   3.531   9.061  0.00  0.00    +0.000 A 
ATOM     11  C   UNL     1      46.095   3.999   7.845  0.00  0.00    +0.000 A 
ATOM     12  C   UNL     1      46.563   3.105   6.883  0.00  0.00    +0.000 A 
ATOM     13  C   UNL     1      46.515   1.751   7.163  0.00  0.00    +0.000 A 
ATOM     14  N   UNL     1      46.035   1.246   8.316  0.00  0.00    +0.000 NA
ATOM     15  C   UNL     1      45.578   2.142   9.225  0.00  0.00    +0.000 A 
ENDBRANCH   8  10
ENDBRANCH   1   4
BRANCH   1  16
ATOM     16  N   UNL     1      47.561   6.689  12.906  0.00  0.00    +0.000 N 
ATOM     17  H   UNL     1      47.999   5.970  12.331  0.00  0.00    +0.000 HD
BRANCH  16  22
ATOM     18  C   UNL     1      48.134   4.812  15.831  0.00  0.00    +0.000 A 
ATOM     19  N   UNL     1      48.770   5.613  16.715  0.00  0.00    +0.000 NA
ATOM     20  C   UNL     1      48.970   6.872  16.277  0.00  0.00    +0.000 A 
ATOM     21  C   UNL     1      48.579   7.334  15.044  0.00  0.00    +0.000 A 
ATOM     22  C   UNL     1      47.939   6.429  14.216  0.00  0.00    +0.000 A 
ATOM     23  N   UNL     1      47.720   5.160  14.606  0.00  0.00    +0.000 NA
BRANCH  18  25
ATOM     24  N   UNL     1      46.867   3.184  17.160  0.00  0.00    +0.000 N 
ATOM     25  C   UNL     1      47.884   3.379  16.254  0.00  0.00    +0.000 C 
ATOM     26  O   UNL     1      48.517   2.418  15.836  0.00  0.00    +0.000 OA
ATOM     27  H   UNL     1      46.666   2.244  17.471  0.00  0.00    +0.000 HD
ATOM     28  H   UNL     1      46.333   3.970  17.511  0.00  0.00    +0.000 HD
ENDBRANCH  18  25
ENDBRANCH  16  22
ENDBRANCH   1  16
TORSDOF 5
ENDMDL
MODEL 7
REMARK VINA RESULT:    -7.395      2.892      6.645
REMARK INTER + INTRA:         -10.396
REMARK INTER:                  -9.325
REMARK INTRA:                  -1.071
REMARK UNBOUND:                -0.839
REMARK  Name = 
REMARK  5 active torsions:
REMARK  status: ('A' for Active; 'I' for Inactive)
REMARK    1  A    between atoms: C_2  and  C_4
REMARK    2  A    between atoms: C_8  and  N_9
REMARK    3  A    between atoms: N_9  and  C_10
REMARK    4  A    between atoms: C_10  and  C_11
REMARK    5  A    between atoms: C_15  and  C_16
REMARK                            x       y       z     vdW  Elec       q    Type
REMARK                         _______ _______ _______ _____ _____    ______ ____
ROOT
ATOM      1  C   UNL     1      44.265   3.921  11.725  0.00  0.00    +0.000 C 
ATOM      2  C   UNL     1      43.012   3.411  12.442  0.00  0.00    +0.000 C 
ATOM      3  C   UNL     1      42.940   4.662  11.640  0.00  0.00    +0.000 C 
ENDROOT
BRANCH   1   4
ATOM      4  C   UNL     1      45.331   4.652  12.536  0.00  0.00    +0.000 A 
ATOM      5  C   UNL     1      46.117   3.965  13.473  0.00  0.00    +0.000 A 
ATOM      6  C   UNL     1      47.243   4.556  14.043  0.00  0.00    +0.000 A 
ATOM      7  C   UNL     1      47.600   5.857  13.689  0.00  0.00    +0.000 A 
ATOM      8  C   UNL     1      46.818   6.609  12.799  0.00  0.00    +0.000 A 
ATOM      9  C   UNL     1      45.665   5.995  12.271  0.00  0.00    +0.000 A 
BRANCH   8  10
ATOM     10  C   UNL     1      47.229   7.954  12.352  0.00  0.00    +0.000 A 
ATOM     11  C   UNL     1      48.515   8.227  11.867  0.00  0.00    +0.000 A 
ATOM     12  C   UNL     1      48.880   9.526  11.514  0.00  0.00    +0.000 A 
ATOM     13  C   UNL     1      47.939  10.533  11.643  0.00  0.00    +0.000 A 
ATOM     14  N   UNL     1      46.687  10.327  12.096  0.00  0.00    +0.000 NA
ATOM     15  C   UNL     1      46.369   9.054  12.440  0.00  0.00    +0.000 A 
ENDBRANCH   8  10
ENDBRANCH   1   4
BRANCH   1  16
ATOM     16  N   UNL     1      44.773   2.971  10.737  0.00  0.00    +0.000 N 
ATOM     17  H   UNL     1      45.196   2.119  11.101  0.00  0.00    +0.000 HD
BRANCH  16  22
ATOM     18  C   UNL     1      46.554   2.343   7.764  0.00  0.00    +0.000 A 
ATOM     19  N   UNL     1      46.596   3.496   7.058  0.00  0.00    +0.000 NA
ATOM     20  C   UNL     1      46.007   4.542   7.671  0.00  0.00    +0.000 A 
ATOM     21  C   UNL     1      45.403   4.477   8.904  0.00  0.00    +0.000 A 
ATOM     22  C   UNL     1      45.414   3.247   9.537  0.00  0.00    +0.000 A 
ATOM     23  N   UNL     1      45.986   2.173   8.964  0.00  0.00    +0.000 NA
BRANCH  18  25
ATOM     24  N   UNL     1      46.847  -0.092   7.676  0.00  0.00    +0.000 N 
ATOM     25  C   UNL     1      47.190   1.124   7.130  0.00  0.00    +0.000 C 
ATOM     26  O   UNL     1      47.963   1.166   6.182  0.00  0.00    +0.000 OA
ATOM     27  H   UNL     1      47.249  -0.932   7.285  0.00  0.00    +0.000 HD
ATOM     28  H   UNL     1      46.206  -0.141   8.459  0.00  0.00    +0.000 HD
ENDBRANCH  18  25
ENDBRANCH  16  22
ENDBRANCH   1  16
TORSDOF 5
ENDMDL
MODEL 8
REMARK VINA RESULT:    -6.377      3.712      7.615
REMARK INTER + INTRA:          -9.081
REMARK INTER:                  -8.129
REMARK INTRA:                  -0.952
REMARK UNBOUND:                -0.839
REMARK  Name = 
REMARK  5 active torsions:
REMARK  status: ('A' for Active; 'I' for Inactive)
REMARK    1  A    between atoms: C_2  and  C_4
REMARK    2  A    between atoms: C_8  and  N_9
REMARK    3  A    between atoms: N_9  and  C_10
REMARK    4  A    between atoms: C_10  and  C_11
REMARK    5  A    between atoms: C_15  and  C_16
REMARK                            x       y       z     vdW  Elec       q    Type
REMARK                         _______ _______ _______ _____ _____    ______ ____
ROOT
ATOM      1  C   UNL     1      47.655   8.569  13.490  0.00  0.00    +0.000 C 
ATOM      2  C   UNL     1      48.077   9.829  12.729  0.00  0.00    +0.000 C 
ATOM      3  C   UNL     1      48.656   8.512  12.347  0.00  0.00    +0.000 C 
ENDROOT
BRANCH   1   4
ATOM      4  C   UNL     1      48.265   8.297  14.862  0.00  0.00    +0.000 A 
ATOM      5  C   UNL     1      48.225   9.270  15.871  0.00  0.00    +0.000 A 
ATOM      6  C   UNL     1      48.559   8.958  17.188  0.00  0.00    +0.000 A 
ATOM      7  C   UNL     1      48.950   7.660  17.518  0.00  0.00    +0.000 A 
ATOM      8  C   UNL     1      49.063   6.663  16.536  0.00  0.00    +0.000 A 
ATOM      9  C   UNL     1      48.755   7.022  15.209  0.00  0.00    +0.000 A 
BRANCH   8  10
ATOM     10  C   UNL     1      49.395   5.268  16.883  0.00  0.00    +0.000 A 
ATOM     11  C   UNL     1      50.645   4.896  17.397  0.00  0.00    +0.000 A 
ATOM     12  C   UNL     1      50.937   3.556  17.652  0.00  0.00    +0.000 A 
ATOM     13  C   UNL     1      49.961   2.609  17.397  0.00  0.00    +0.000 A 
ATOM     14  N   UNL     1      48.741   2.910  16.911  0.00  0.00    +0.000 NA
ATOM     15  C   UNL     1      48.494   4.220  16.664  0.00  0.00    +0.000 A 
ENDBRANCH   8  10
ENDBRANCH   1   4
BRANCH   1  16
ATOM     16  N   UNL     1      46.222   8.300  13.379  0.00  0.00    +0.000 N 
ATOM     17  H   UNL     1      45.664   8.453  14.218  0.00  0.00    +0.000 HD
BRANCH  16  22
ATOM     18  C   UNL     1      45.327   5.015  12.478  0.00  0.00    +0.000 A 
ATOM     19  N   UNL     1      44.356   5.097  11.539  0.00  0.00    +0.000 NA
ATOM     20  C   UNL     1      44.033   6.356  11.184  0.00  0.00    +0.000 A 
ATOM     21  C   UNL     1      44.616   7.483  11.713  0.00  0.00    +0.000 A 
ATOM     22  C   UNL     1      45.595   7.285  12.669  0.00  0.00    +0.000 A 
ATOM     23  N   UNL     1      45.950   6.048  13.060  0.00  0.00    +0.000 NA
BRANCH  18  25
ATOM     24  N   UNL     1      44.974   2.587  12.450  0.00  0.00    +0.000 N 
ATOM     25  C   UNL     1      45.734   3.629  12.930  0.00  0.00    +0.000 C 
ATOM     26  O   UNL     1      46.680   3.397  13.671  0.00  0.00    +0.000 OA
ATOM     27  H   UNL     1      45.209   1.645  12.728  0.00  0.00    +0.000 HD
ATOM     28  H   UNL     1      44.190   2.764  11.833  0.00  0.00    +0.000 HD
ENDBRANCH  18  25
ENDBRANCH  16  22
ENDBRANCH   1  16
TORSDOF 5
ENDMDL
MODEL 9
REMARK VINA RESULT:    -6.242      3.404      8.104
REMARK INTER + INTRA:          -8.906
REMARK INTER:                  -7.942
REMARK INTRA:                  -0.965
REMARK UNBOUND:                -0.839
REMARK  Name = 
REMARK  5 active torsions:
REMARK  status: ('A' for Active; 'I' for Inactive)
REMARK    1  A    between atoms: C_2  and  C_4
REMARK    2  A    between atoms: C_8  and  N_9
REMARK    3  A    between atoms: N_9  and  C_10
REMARK    4  A    between atoms: C_10  and  C_11
REMARK    5  A    between atoms: C_15  and  C_16
REMARK                            x       y       z     vdW  Elec       q    Type
REMARK                         _______ _______ _______ _____ _____    ______ ____
ROOT
ATOM      1  C   UNL     1      48.355   7.804  12.682  0.00  0.00    +0.000 C 
ATOM      2  C   UNL     1      48.727   8.887  11.666  0.00  0.00    +0.000 C 
ATOM      3  C   UNL     1      49.516   7.626  11.717  0.00  0.00    +0.000 C 
ENDROOT
BRANCH   1   4
ATOM      4  C   UNL     1      48.780   7.980  14.137  0.00  0.00    +0.000 A 
ATOM      5  C   UNL     1      48.125   8.899  14.971  0.00  0.00    +0.000 A 
ATOM      6  C   UNL     1      48.337   8.903  16.348  0.00  0.00    +0.000 A 
ATOM      7  C   UNL     1      49.222   7.987  16.918  0.00  0.00    +0.000 A 
ATOM      8  C   UNL     1      49.947   7.085  16.124  0.00  0.00    +0.000 A 
ATOM      9  C   UNL     1      49.737   7.134  14.732  0.00  0.00    +0.000 A 
BRANCH   8  10
ATOM     10  C   UNL     1      50.822   6.057  16.720  0.00  0.00    +0.000 A 
ATOM     11  C   UNL     1      50.318   4.927  17.378  0.00  0.00    +0.000 A 
ATOM     12  C   UNL     1      51.181   4.013  17.982  0.00  0.00    +0.000 A 
ATOM     13  C   UNL     1      52.544   4.244  17.904  0.00  0.00    +0.000 A 
ATOM     14  N   UNL     1      53.083   5.308  17.279  0.00  0.00    +0.000 NA
ATOM     15  C   UNL     1      52.215   6.181  16.712  0.00  0.00    +0.000 A 
ENDBRANCH   8  10
ENDBRANCH   1   4
BRANCH   1  16
ATOM     16  N   UNL     1      46.999   7.292  12.486  0.00  0.00    +0.000 N 
ATOM     17  H   UNL     1      46.235   7.914  12.746  0.00  0.00    +0.000 HD
BRANCH  16  22
ATOM     18  C   UNL     1      45.061   4.397  11.965  0.00  0.00    +0.000 A 
ATOM     19  N   UNL     1      45.557   3.423  12.760  0.00  0.00    +0.000 NA
ATOM     20  C   UNL     1      46.587   3.811  13.536  0.00  0.00    +0.000 A 
ATOM     21  C   UNL     1      47.117   5.080  13.541  0.00  0.00    +0.000 A 
ATOM     22  C   UNL     1      46.537   5.998  12.685  0.00  0.00    +0.000 A 
ATOM     23  N   UNL     1      45.509   5.657  11.888  0.00  0.00    +0.000 NA
BRANCH  18  25
ATOM     24  N   UNL     1      43.782   4.764   9.903  0.00  0.00    +0.000 N 
ATOM     25  C   UNL     1      43.906   4.027  11.058  0.00  0.00    +0.000 C 
ATOM     26  O   UNL     1      43.109   3.129  11.293  0.00  0.00    +0.000 OA
ATOM     27  H   UNL     1      43.023   4.553   9.270  0.00  0.00    +0.000 HD
ATOM     28  H   UNL     1      44.436   5.509   9.695  0.00  0.00    +0.000 HD
ENDBRANCH  18  25
ENDBRANCH  16  22
ENDBRANCH   1  16
TORSDOF 5
ENDMDL
