MODEL 1
REMARK VINA RESULT:    -5.605      0.000      0.000
REMARK INTER + INTRA:          -7.412
REMARK INTER:                  -6.915
REMARK INTRA:                  -0.497
REMARK UNBOUND:                -0.497
REMARK  Name = 
REMARK  5 active torsions:
REMARK  status: ('A' for Active; 'I' for Inactive)
REMARK    1  A    between atoms: C_1  and  N_2
REMARK    2  A    between atoms: N_2  and  C_3
REMARK    3  A    between atoms: C_3  and  C_4
REMARK    4  A    between atoms: C_7  and  C_8
REMARK    5  A    between atoms: C_15  and  C_16
REMARK                            x       y       z     vdW  Elec       q    Type
REMARK                         _______ _______ _______ _____ _____    ______ ____
ROOT
ATOM      1  C   UNL     1      48.410   7.210  13.409  0.00  0.00    +0.000 C 
ATOM      2  C   UNL     1      48.500   8.754  13.609  0.00  0.00    +0.000 C 
ATOM      3  C   UNL     1      47.998   8.514  15.052  0.00  0.00    +0.000 C 
ATOM      4  C   UNL     1      48.648   7.092  14.980  0.00  0.00    +0.000 C 
ENDROOT
BRANCH   4   5
ATOM      5  C   UNL     1      50.085   6.914  15.656  0.00  0.00    +0.000 A 
ATOM      6  C   UNL     1      51.232   7.635  15.271  0.00  0.00    +0.000 A 
ATOM      7  C   UNL     1      52.492   7.311  15.766  0.00  0.00    +0.000 A 
ATOM      8  C   UNL     1      52.573   6.296  16.697  0.00  0.00    +0.000 A 
ATOM      9 CL   UNL     1      54.093   5.750  17.271  0.00  0.00    +0.000 Cl
ATOM     10  N   UNL     1      51.511   5.632  17.185  0.00  0.00    +0.000 NA
ATOM     11  C   UNL     1      50.307   5.962  16.661  0.00  0.00    +0.000 A 
ENDBRANCH   4   5
BRANCH   1  12
ATOM     12  C   UNL     1      47.007   6.622  12.851  0.00  0.00    +0.000 A 
ATOM     13  C   UNL     1      46.430   5.450  13.382  0.00  0.00    +0.000 A 
ATOM     14  C   UNL     1      45.179   4.985  12.965  0.00  0.00    +0.000 A 
ATOM     15  C   UNL     1      44.457   5.688  11.996  0.00  0.00    +0.000 A 
ATOM     16  C   UNL     1      45.032   6.800  11.389  0.00  0.00    +0.000 A 
ATOM     17  C   UNL     1      46.291   7.247  11.808  0.00  0.00    +0.000 A 
BRANCH  15  18
ATOM     18  C   UNL     1      43.099   5.209  11.640  0.00  0.00    +0.000 C 
ATOM     19  N   UNL     1      42.067   6.094  11.761  0.00  0.00    +0.000 N 
ATOM     20  O   UNL     1      42.894   4.047  11.293  0.00  0.00    +0.000 OA
ATOM     21  H   UNL     1      42.155   6.990  12.218  0.00  0.00    +0.000 HD
ATOM     22  H   UNL     1      41.135   5.723  11.622  0.00  0.00    +0.000 HD
ENDBRANCH  15  18
ENDBRANCH   1  12
BRANCH   1  24
ATOM     23  C   UNL     1      50.186   7.520  11.602  0.00  0.00    +0.000 C 
ATOM     24  N   UNL     1      49.447   6.677  12.514  0.00  0.00    +0.000 NA
ATOM     25  H   UNL     1      50.082   6.014  12.957  0.00  0.00    +0.000 HD
ENDBRANCH   1  24
TORSDOF 4
ENDMDL
MODEL 2
REMARK VINA RESULT:    -5.346      1.907      2.313
REMARK INTER + INTRA:          -7.092
REMARK INTER:                  -6.548
REMARK INTRA:                  -0.544
REMARK UNBOUND:                -0.497
REMARK  Name = 
REMARK  5 active torsions:
REMARK  status: ('A' for Active; 'I' for Inactive)
REMARK    1  A    between atoms: C_1  and  N_2
REMARK    2  A    between atoms: N_2  and  C_3
REMARK    3  A    between atoms: C_3  and  C_4
REMARK    4  A    between atoms: C_7  and  C_8
REMARK    5  A    between atoms: C_15  and  C_16
REMARK                            x       y       z     vdW  Elec       q    Type
REMARK                         _______ _______ _______ _____ _____    ______ ____
ROOT
ATOM      1  C   UNL     1      47.967   7.277  12.741  0.00  0.00    +0.000 C 
ATOM      2  C   UNL     1      47.707   8.747  12.289  0.00  0.00    +0.000 C 
ATOM      3  C   UNL     1      46.956   8.940  13.627  0.00  0.00    +0.000 C 
ATOM      4  C   UNL     1      47.870   7.824  14.234  0.00  0.00    +0.000 C 
ENDROOT
BRANCH   4   5
ATOM      5  C   UNL     1      49.129   8.304  15.094  0.00  0.00    +0.000 A 
ATOM      6  C   UNL     1      49.766   9.550  14.931  0.00  0.00    +0.000 A 
ATOM      7  C   UNL     1      50.965   9.841  15.576  0.00  0.00    +0.000 A 
ATOM      8  C   UNL     1      51.480   8.889  16.431  0.00  0.00    +0.000 A 
ATOM      9 CL   UNL     1      53.008   9.111  17.174  0.00  0.00    +0.000 Cl
ATOM     10  N   UNL     1      50.878   7.720  16.711  0.00  0.00    +0.000 NA
ATOM     11  C   UNL     1      49.726   7.466  16.046  0.00  0.00    +0.000 A 
ENDBRANCH   4   5
BRANCH   1  12
ATOM     12  C   UNL     1      46.864   6.170  12.311  0.00  0.00    +0.000 A 
ATOM     13  C   UNL     1      46.196   6.232  11.070  0.00  0.00    +0.000 A 
ATOM     14  C   UNL     1      45.307   5.235  10.658  0.00  0.00    +0.000 A 
ATOM     15  C   UNL     1      45.059   4.131  11.478  0.00  0.00    +0.000 A 
ATOM     16  C   UNL     1      45.634   4.080  12.745  0.00  0.00    +0.000 A 
ATOM     17  C   UNL     1      46.512   5.091  13.151  0.00  0.00    +0.000 A 
BRANCH  15  18
ATOM     18  C   UNL     1      44.174   3.055  10.969  0.00  0.00    +0.000 C 
ATOM     19  N   UNL     1      44.661   2.257   9.975  0.00  0.00    +0.000 N 
ATOM     20  O   UNL     1      43.027   2.910  11.388  0.00  0.00    +0.000 OA
ATOM     21  H   UNL     1      45.514   2.455   9.472  0.00  0.00    +0.000 HD
ATOM     22  H   UNL     1      44.008   1.601   9.562  0.00  0.00    +0.000 HD
ENDBRANCH  15  18
ENDBRANCH   1  12
BRANCH   1  24
ATOM     23  C   UNL     1      50.224   7.564  11.585  0.00  0.00    +0.000 C 
ATOM     24  N   UNL     1      49.259   6.746  12.285  0.00  0.00    +0.000 NA
ATOM     25  H   UNL     1      49.738   6.164  12.970  0.00  0.00    +0.000 HD
ENDBRANCH   1  24
TORSDOF 4
ENDMDL
MODEL 3
REMARK VINA RESULT:    -5.345      3.411      4.226
REMARK INTER + INTRA:          -7.092
REMARK INTER:                  -6.850
REMARK INTRA:                  -0.242
REMARK UNBOUND:                -0.497
REMARK  Name = 
REMARK  5 active torsions:
REMARK  status: ('A' for Active; 'I' for Inactive)
REMARK    1  A    between atoms: C_1  and  N_2
REMARK    2  A    between atoms: N_2  and  C_3
REMARK    3  A    between atoms: C_3  and  C_4
REMARK    4  A    between atoms: C_7  and  C_8
REMARK    5  A    between atoms: C_15  and  C_16
REMARK                            x       y       z     vdW  Elec       q    Type
REMARK                         _______ _______ _______ _____ _____    ______ ____
ROOT
ATOM      1  C   UNL     1      47.439   7.449  12.426  0.00  0.00    +0.000 C 
ATOM      2  C   UNL     1      47.713   7.732  13.936  0.00  0.00    +0.000 C 
ATOM      3  C   UNL     1      48.896   6.743  13.822  0.00  0.00    +0.000 C 
ATOM      4  C   UNL     1      48.994   7.124  12.307  0.00  0.00    +0.000 C 
ENDROOT
BRANCH   4   5
ATOM      5  C   UNL     1      50.104   8.199  11.898  0.00  0.00    +0.000 A 
ATOM      6  C   UNL     1      50.085   9.546  12.307  0.00  0.00    +0.000 A 
ATOM      7  C   UNL     1      50.971  10.478  11.775  0.00  0.00    +0.000 A 
ATOM      8  C   UNL     1      51.913  10.025  10.875  0.00  0.00    +0.000 A 
ATOM      9 CL   UNL     1      52.965  11.119  10.080  0.00  0.00    +0.000 Cl
ATOM     10  N   UNL     1      52.054   8.738  10.513  0.00  0.00    +0.000 NA
ATOM     11  C   UNL     1      51.158   7.868  11.035  0.00  0.00    +0.000 A 
ENDBRANCH   4   5
BRANCH   1  12
ATOM     12  C   UNL     1      46.424   6.235  12.079  0.00  0.00    +0.000 A 
ATOM     13  C   UNL     1      45.903   6.051  10.780  0.00  0.00    +0.000 A 
ATOM     14  C   UNL     1      45.096   4.957  10.454  0.00  0.00    +0.000 A 
ATOM     15  C   UNL     1      44.785   4.000  11.423  0.00  0.00    +0.000 A 
ATOM     16  C   UNL     1      45.210   4.194  12.735  0.00  0.00    +0.000 A 
ATOM     17  C   UNL     1      46.007   5.300  13.051  0.00  0.00    +0.000 A 
BRANCH  15  18
ATOM     18  C   UNL     1      43.995   2.812  11.017  0.00  0.00    +0.000 C 
ATOM     19  N   UNL     1      44.404   2.134   9.906  0.00  0.00    +0.000 N 
ATOM     20  O   UNL     1      42.982   2.472  11.626  0.00  0.00    +0.000 OA
ATOM     21  H   UNL     1      45.108   2.482   9.272  0.00  0.00    +0.000 HD
ATOM     22  H   UNL     1      43.793   1.395   9.578  0.00  0.00    +0.000 HD
ENDBRANCH  15  18
ENDBRANCH   1  12
BRANCH   1  24
ATOM     23  C   UNL     1      46.208   9.685  12.363  0.00  0.00    +0.000 C 
ATOM     24  N   UNL     1      46.922   8.618  11.699  0.00  0.00    +0.000 NA
ATOM     25  H   UNL     1      47.574   9.012  11.024  0.00  0.00    +0.000 HD
ENDBRANCH   1  24
TORSDOF 4
ENDMDL
MODEL 4
REMARK VINA RESULT:    -5.086      4.388      7.646
REMARK INTER + INTRA:          -6.772
REMARK INTER:                  -6.331
REMARK INTRA:                  -0.441
REMARK UNBOUND:                -0.497
REMARK  Name = 
REMARK  5 active torsions:
REMARK  status: ('A' for Active; 'I' for Inactive)
REMARK    1  A    between atoms: C_1  and  N_2
REMARK    2  A    between atoms: N_2  and  C_3
REMARK    3  A    between atoms: C_3  and  C_4
REMARK    4  A    between atoms: C_7  and  C_8
REMARK    5  A    between atoms: C_15  and  C_16
REMARK                            x       y       z     vdW  Elec       q    Type
REMARK                         _______ _______ _______ _____ _____    ______ ____
ROOT
ATOM      1  C   UNL     1      48.395   7.423  13.037  0.00  0.00    +0.000 C 
ATOM      2  C   UNL     1      47.451   8.490  13.674  0.00  0.00    +0.000 C 
ATOM      3  C   UNL     1      46.917   8.750  12.246  0.00  0.00    +0.000 C 
ATOM      4  C   UNL     1      47.290   7.271  11.899  0.00  0.00    +0.000 C 
ENDROOT
BRANCH   4   5
ATOM      5  C   UNL     1      46.109   6.195  11.937  0.00  0.00    +0.000 A 
ATOM      6  C   UNL     1      45.509   5.725  13.121  0.00  0.00    +0.000 A 
ATOM      7  C   UNL     1      44.615   4.658  13.107  0.00  0.00    +0.000 A 
ATOM      8  C   UNL     1      44.288   4.112  11.882  0.00  0.00    +0.000 A 
ATOM      9 CL   UNL     1      43.291   2.722  11.778  0.00  0.00    +0.000 Cl
ATOM     10  N   UNL     1      44.744   4.572  10.704  0.00  0.00    +0.000 NA
ATOM     11  C   UNL     1      45.628   5.596  10.764  0.00  0.00    +0.000 A 
ENDBRANCH   4   5
BRANCH   1  12
ATOM     12  C   UNL     1      49.856   7.929  12.554  0.00  0.00    +0.000 A 
ATOM     13  C   UNL     1      50.363   7.620  11.274  0.00  0.00    +0.000 A 
ATOM     14  C   UNL     1      51.585   8.125  10.820  0.00  0.00    +0.000 A 
ATOM     15  C   UNL     1      52.344   8.966  11.637  0.00  0.00    +0.000 A 
ATOM     16  C   UNL     1      51.917   9.224  12.936  0.00  0.00    +0.000 A 
ATOM     17  C   UNL     1      50.697   8.702  13.383  0.00  0.00    +0.000 A 
BRANCH  15  18
ATOM     18  C   UNL     1      53.594   9.547  11.088  0.00  0.00    +0.000 C 
ATOM     19  N   UNL     1      54.162   8.921  10.016  0.00  0.00    +0.000 N 
ATOM     20  O   UNL     1      54.131  10.527  11.601  0.00  0.00    +0.000 OA
ATOM     21  H   UNL     1      53.867   8.015   9.683  0.00  0.00    +0.000 HD
ATOM     22  H   UNL     1      55.070   9.261   9.723  0.00  0.00    +0.000 HD
ENDBRANCH  15  18
ENDBRANCH   1  12
BRANCH   1  24
ATOM     23  C   UNL     1      48.537   6.356  15.351  0.00  0.00    +0.000 C 
ATOM     24  N   UNL     1      48.644   6.269  13.913  0.00  0.00    +0.000 NA
ATOM     25  H   UNL     1      48.221   5.400  13.591  0.00  0.00    +0.000 HD
ENDBRANCH   1  24
TORSDOF 4
ENDMDL
MODEL 5
REMARK VINA RESULT:    -4.796      4.658      7.921
REMARK INTER + INTRA:          -6.414
REMARK INTER:                  -6.179
REMARK INTRA:                  -0.235
REMARK UNBOUND:                -0.497
REMARK  Name = 
REMARK  5 active torsions:
REMARK  status: ('A' for Active; 'I' for Inactive)
REMARK    1  A    between atoms: C_1  and  N_2
REMARK    2  A    between atoms: N_2  and  C_3
REMARK    3  A    between atoms: C_3  and  C_4
REMARK    4  A    between atoms: C_7  and  C_8
REMARK    5  A    between atoms: C_15  and  C_16
REMARK                            x       y       z     vdW  Elec       q    Type
REMARK                         _______ _______ _______ _____ _____    ______ ____
ROOT
ATOM      1  C   UNL     1      48.638   5.582  16.518  0.00  0.00    +0.000 C 
ATOM      2  C   UNL     1      48.981   7.091  16.721  0.00  0.00    +0.000 C 
ATOM      3  C   UNL     1      49.629   7.047  15.318  0.00  0.00    +0.000 C 
ATOM      4  C   UNL     1      48.633   5.896  14.956  0.00  0.00    +0.000 C 
ENDROOT
BRANCH   4   5
ATOM      5  C   UNL     1      47.326   6.298  14.129  0.00  0.00    +0.000 A 
ATOM      6  C   UNL     1      46.327   5.384  13.741  0.00  0.00    +0.000 A 
ATOM      7  C   UNL     1      45.306   5.753  12.869  0.00  0.00    +0.000 A 
ATOM      8  C   UNL     1      45.271   7.065  12.442  0.00  0.00    +0.000 A 
ATOM      9 CL   UNL     1      44.125   7.578  11.277  0.00  0.00    +0.000 Cl
ATOM     10  N   UNL     1      46.132   8.014  12.848  0.00  0.00    +0.000 NA
ATOM     11  C   UNL     1      47.122   7.610  13.678  0.00  0.00    +0.000 A 
ENDBRANCH   4   5
BRANCH   1  12
ATOM     12  C   UNL     1      49.734   4.504  17.029  0.00  0.00    +0.000 A 
ATOM     13  C   UNL     1      49.481   3.117  16.998  0.00  0.00    +0.000 A 
ATOM     14  C   UNL     1      50.454   2.179  17.356  0.00  0.00    +0.000 A 
ATOM     15  C   UNL     1      51.724   2.602  17.757  0.00  0.00    +0.000 A 
ATOM     16  C   UNL     1      51.982   3.964  17.882  0.00  0.00    +0.000 A 
ATOM     17  C   UNL     1      50.995   4.893  17.532  0.00  0.00    +0.000 A 
BRANCH  15  18
ATOM     18  C   UNL     1      52.753   1.574  18.050  0.00  0.00    +0.000 C 
ATOM     19  N   UNL     1      52.691   0.403  17.351  0.00  0.00    +0.000 N 
ATOM     20  O   UNL     1      53.605   1.743  18.920  0.00  0.00    +0.000 OA
ATOM     21  H   UNL     1      51.906   0.145  16.771  0.00  0.00    +0.000 HD
ATOM     22  H   UNL     1      53.329  -0.329  17.640  0.00  0.00    +0.000 HD
ENDBRANCH  15  18
ENDBRANCH   1  12
BRANCH   1  24
ATOM     23  C   UNL     1      47.063   5.486  18.525  0.00  0.00    +0.000 C 
ATOM     24  N   UNL     1      47.369   5.184  17.145  0.00  0.00    +0.000 NA
ATOM     25  H   UNL     1      46.547   5.353  16.568  0.00  0.00    +0.000 HD
ENDBRANCH   1  24
TORSDOF 4
ENDMDL
MODEL 6
REMARK VINA RESULT:    -4.783      1.586      2.048
REMARK INTER + INTRA:          -6.398
REMARK INTER:                  -5.967
REMARK INTRA:                  -0.431
REMARK UNBOUND:                -0.497
REMARK  Name = 
REMARK  5 active torsions:
REMARK  status: ('A' for Active; 'I' for Inactive)
REMARK    1  A    between atoms: C_1  and  N_2
REMARK    2  A    between atoms: N_2  and  C_3
REMARK    3  A    between atoms: C_3  and  C_4
REMARK    4  A    between atoms: C_7  and  C_8
REMARK    5  A    between atoms: C_15  and  C_16
REMARK                            x       y       z     vdW  Elec       q    Type
REMARK                         _______ _______ _______ _____ _____    ______ ____
ROOT
ATOM      1  C   UNL     1      49.187   7.156  15.060  0.00  0.00    +0.000 C 
ATOM      2  C   UNL     1      49.191   8.326  16.093  0.00  0.00    +0.000 C 
ATOM      3  C   UNL     1      48.498   7.352  17.074  0.00  0.00    +0.000 C 
ATOM      4  C   UNL     1      49.203   6.178  16.317  0.00  0.00    +0.000 C 
ENDROOT
BRANCH   4   5
ATOM      5  C   UNL     1      50.535   5.586  16.974  0.00  0.00    +0.000 A 
ATOM      6  C   UNL     1      51.744   6.300  17.083  0.00  0.00    +0.000 A 
ATOM      7  C   UNL     1      52.919   5.677  17.495  0.00  0.00    +0.000 A 
ATOM      8  C   UNL     1      52.847   4.346  17.851  0.00  0.00    +0.000 A 
ATOM      9 CL   UNL     1      54.262   3.468  18.255  0.00  0.00    +0.000 Cl
ATOM     10  N   UNL     1      51.711   3.628  17.866  0.00  0.00    +0.000 NA
ATOM     11  C   UNL     1      50.595   4.264  17.438  0.00  0.00    +0.000 A 
ENDBRANCH   4   5
BRANCH   1  12
ATOM     12  C   UNL     1      47.901   7.044  14.082  0.00  0.00    +0.000 A 
ATOM     13  C   UNL     1      47.446   5.802  13.592  0.00  0.00    +0.000 A 
ATOM     14  C   UNL     1      46.288   5.690  12.818  0.00  0.00    +0.000 A 
ATOM     15  C   UNL     1      45.537   6.827  12.509  0.00  0.00    +0.000 A 
ATOM     16  C   UNL     1      46.001   8.079  12.902  0.00  0.00    +0.000 A 
ATOM     17  C   UNL     1      47.169   8.178  13.666  0.00  0.00    +0.000 A 
BRANCH  15  18
ATOM     18  C   UNL     1      44.270   6.656  11.755  0.00  0.00    +0.000 C 
ATOM     19  N   UNL     1      43.702   7.774  11.217  0.00  0.00    +0.000 N 
ATOM     20  O   UNL     1      43.722   5.560  11.654  0.00  0.00    +0.000 OA
ATOM     21  H   UNL     1      44.010   8.711  11.433  0.00  0.00    +0.000 HD
ATOM     22  H   UNL     1      42.785   7.660  10.803  0.00  0.00    +0.000 HD
ENDBRANCH  15  18
ENDBRANCH   1  12
BRANCH   1  24
ATOM     23  C   UNL     1      50.835   8.359  13.525  0.00  0.00    +0.000 C 
ATOM     24  N   UNL     1      50.360   7.157  14.174  0.00  0.00    +0.000 NA
ATOM     25  H   UNL     1      51.153   6.625  14.529  0.00  0.00    +0.000 HD
ENDBRANCH   1  24
TORSDOF 4
ENDMDL
MODEL 7
REMARK VINA RESULT:    -4.752      2.660      3.396
REMARK INTER + INTRA:          -6.360
REMARK INTER:                  -6.004
REMARK INTRA:                  -0.356
REMARK UNBOUND:                -0.497
REMARK  Name = 
REMARK  5 active torsions:
REMARK  status: ('A' for Active; 'I' for Inactive)
REMARK    1  A    between atoms: C_1  and  N_2
REMARK    2  A    between atoms: N_2  and  C_3
REMARK    3  A    between atoms: C_3  and  C_4
REMARK    4  A    between atoms: C_7  and  C_8
REMARK    5  A    between atoms: C_15  and  C_16
REMARK                            x       y       z     vdW  Elec       q    Type
REMARK                         _______ _______ _______ _____ _____    ______ ____
ROOT
ATOM      1  C   UNL     1      48.288   8.550  12.372  0.00  0.00    +0.000 C 
ATOM      2  C   UNL     1      48.529   8.832  13.888  0.00  0.00    +0.000 C 
ATOM      3  C   UNL     1      49.237   7.458  13.946  0.00  0.00    +0.000 C 
ATOM      4  C   UNL     1      49.596   7.643  12.434  0.00  0.00    +0.000 C 
ENDROOT
BRANCH   4   5
ATOM      5  C   UNL     1      51.067   8.170  12.096  0.00  0.00    +0.000 A 
ATOM      6  C   UNL     1      51.611   8.208  10.797  0.00  0.00    +0.000 A 
ATOM      7  C   UNL     1      52.955   8.502  10.583  0.00  0.00    +0.000 A 
ATOM      8  C   UNL     1      53.725   8.817  11.683  0.00  0.00    +0.000 A 
ATOM      9 CL   UNL     1      55.412   9.076  11.528  0.00  0.00    +0.000 Cl
ATOM     10  N   UNL     1      53.252   8.898  12.938  0.00  0.00    +0.000 NA
ATOM     11  C   UNL     1      51.946   8.582  13.107  0.00  0.00    +0.000 A 
ENDBRANCH   4   5
BRANCH   1  12
ATOM     12  C   UNL     1      46.911   7.795  11.976  0.00  0.00    +0.000 A 
ATOM     13  C   UNL     1      46.898   6.448  11.555  0.00  0.00    +0.000 A 
ATOM     14  C   UNL     1      45.706   5.765  11.295  0.00  0.00    +0.000 A 
ATOM     15  C   UNL     1      44.477   6.412  11.451  0.00  0.00    +0.000 A 
ATOM     16  C   UNL     1      44.455   7.765  11.781  0.00  0.00    +0.000 A 
ATOM     17  C   UNL     1      45.656   8.439  12.027  0.00  0.00    +0.000 A 
BRANCH  15  18
ATOM     18  C   UNL     1      43.233   5.630  11.244  0.00  0.00    +0.000 C 
ATOM     19  N   UNL     1      42.067   6.168  11.707  0.00  0.00    +0.000 N 
ATOM     20  O   UNL     1      43.249   4.519  10.718  0.00  0.00    +0.000 OA
ATOM     21  H   UNL     1      42.030   6.979  12.308  0.00  0.00    +0.000 HD
ATOM     22  H   UNL     1      41.247   5.575  11.659  0.00  0.00    +0.000 HD
ENDBRANCH  15  18
ENDBRANCH   1  12
BRANCH   1  24
ATOM     23  C   UNL     1      48.629  11.064  12.091  0.00  0.00    +0.000 C 
ATOM     24  N   UNL     1      48.329   9.762  11.541  0.00  0.00    +0.000 NA
ATOM     25  H   UNL     1      48.818   9.645  10.654  0.00  0.00    +0.000 HD
ENDBRANCH   1  24
TORSDOF 4
ENDMDL
MODEL 8
REMARK VINA RESULT:    -4.282      4.584      7.693
REMARK INTER + INTRA:          -5.780
REMARK INTER:                  -5.824
REMARK INTRA:                   0.044
REMARK UNBOUND:                -0.497
REMARK  Name = 
REMARK  5 active torsions:
REMARK  status: ('A' for Active; 'I' for Inactive)
REMARK    1  A    between atoms: C_1  and  N_2
REMARK    2  A    between atoms: N_2  and  C_3
REMARK    3  A    between atoms: C_3  and  C_4
REMARK    4  A    between atoms: C_7  and  C_8
REMARK    5  A    between atoms: C_15  and  C_16
REMARK                            x       y       z     vdW  Elec       q    Type
REMARK                         _______ _______ _______ _____ _____    ______ ____
ROOT
ATOM      1  C   UNL     1      46.300   6.877  12.829  0.00  0.00    +0.000 C 
ATOM      2  C   UNL     1      44.904   7.572  12.880  0.00  0.00    +0.000 C 
ATOM      3  C   UNL     1      45.119   7.929  11.390  0.00  0.00    +0.000 C 
ATOM      4  C   UNL     1      46.024   6.656  11.276  0.00  0.00    +0.000 C 
ENDROOT
BRANCH   4   5
ATOM      5  C   UNL     1      45.354   5.341  10.664  0.00  0.00    +0.000 A 
ATOM      6  C   UNL     1      44.470   4.504  11.373  0.00  0.00    +0.000 A 
ATOM      7  C   UNL     1      44.062   3.277  10.857  0.00  0.00    +0.000 A 
ATOM      8  C   UNL     1      44.504   2.934   9.596  0.00  0.00    +0.000 A 
ATOM      9 CL   UNL     1      44.150   1.395   8.930  0.00  0.00    +0.000 Cl
ATOM     10  N   UNL     1      45.267   3.725   8.821  0.00  0.00    +0.000 NA
ATOM     11  C   UNL     1      45.661   4.899   9.370  0.00  0.00    +0.000 A 
ENDBRANCH   4   5
BRANCH   1  12
ATOM     12  C   UNL     1      47.587   7.786  13.206  0.00  0.00    +0.000 A 
ATOM     13  C   UNL     1      47.500   8.849  14.130  0.00  0.00    +0.000 A 
ATOM     14  C   UNL     1      48.624   9.582  14.523  0.00  0.00    +0.000 A 
ATOM     15  C   UNL     1      49.883   9.269  14.004  0.00  0.00    +0.000 A 
ATOM     16  C   UNL     1      49.993   8.284  13.027  0.00  0.00    +0.000 A 
ATOM     17  C   UNL     1      48.859   7.566  12.633  0.00  0.00    +0.000 A 
BRANCH  15  18
ATOM     18  C   UNL     1      51.062  10.016  14.509  0.00  0.00    +0.000 C 
ATOM     19  N   UNL     1      51.002  10.500  15.784  0.00  0.00    +0.000 N 
ATOM     20  O   UNL     1      52.041  10.234  13.797  0.00  0.00    +0.000 OA
ATOM     21  H   UNL     1      50.155  10.511  16.333  0.00  0.00    +0.000 HD
ATOM     22  H   UNL     1      51.764  11.100  16.074  0.00  0.00    +0.000 HD
ENDBRANCH  15  18
ENDBRANCH   1  12
BRANCH   1  24
ATOM     23  C   UNL     1      47.167   4.526  13.318  0.00  0.00    +0.000 C 
ATOM     24  N   UNL     1      46.390   5.687  13.688  0.00  0.00    +0.000 NA
ATOM     25  H   UNL     1      46.534   5.894  14.675  0.00  0.00    +0.000 HD
ENDBRANCH   1  24
TORSDOF 4
ENDMDL
MODEL 9
REMARK VINA RESULT:    -4.243      1.985      2.433
REMARK INTER + INTRA:          -5.732
REMARK INTER:                  -5.398
REMARK INTRA:                  -0.334
REMARK UNBOUND:                -0.497
REMARK  Name = 
REMARK  5 active torsions:
REMARK  status: ('A' for Active; 'I' for Inactive)
REMARK    1  A    between atoms: C_1  and  N_2
REMARK    2  A    between atoms: N_2  and  C_3
REMARK    3  A    between atoms: C_3  and  C_4
REMARK    4  A    between atoms: C_7  and  C_8
REMARK    5  A    between atoms: C_15  and  C_16
REMARK                            x       y       z     vdW  Elec       q    Type
REMARK                         _______ _______ _______ _____ _____    ______ ____
ROOT
ATOM      1  C   UNL     1      48.504   8.076  13.725  0.00  0.00    +0.000 C 
ATOM      2  C   UNL     1      48.215   9.355  14.571  0.00  0.00    +0.000 C 
ATOM      3  C   UNL     1      48.720   8.558  15.797  0.00  0.00    +0.000 C 
ATOM      4  C   UNL     1      49.611   7.725  14.816  0.00  0.00    +0.000 C 
ENDROOT
BRANCH   4   5
ATOM      5  C   UNL     1      51.149   8.143  14.696  0.00  0.00    +0.000 A 
ATOM      6  C   UNL     1      51.621   9.184  13.874  0.00  0.00    +0.000 A 
ATOM      7  C   UNL     1      52.983   9.386  13.669  0.00  0.00    +0.000 A 
ATOM      8  C   UNL     1      53.861   8.567  14.348  0.00  0.00    +0.000 A 
ATOM      9 CL   UNL     1      55.548   8.663  14.067  0.00  0.00    +0.000 Cl
ATOM     10  N   UNL     1      53.485   7.618  15.224  0.00  0.00    +0.000 NA
ATOM     11  C   UNL     1      52.152   7.440  15.378  0.00  0.00    +0.000 A 
ENDBRANCH   4   5
BRANCH   1  12
ATOM     12  C   UNL     1      47.293   7.012  13.565  0.00  0.00    +0.000 A 
ATOM     13  C   UNL     1      46.068   7.367  12.961  0.00  0.00    +0.000 A 
ATOM     14  C   UNL     1      45.052   6.432  12.743  0.00  0.00    +0.000 A 
ATOM     15  C   UNL     1      45.230   5.099  13.122  0.00  0.00    +0.000 A 
ATOM     16  C   UNL     1      46.390   4.731  13.798  0.00  0.00    +0.000 A 
ATOM     17  C   UNL     1      47.395   5.680  14.021  0.00  0.00    +0.000 A 
BRANCH  15  18
ATOM     18  C   UNL     1      44.162   4.122  12.799  0.00  0.00    +0.000 C 
ATOM     19  N   UNL     1      44.539   2.833  12.555  0.00  0.00    +0.000 N 
ATOM     20  O   UNL     1      42.983   4.461  12.706  0.00  0.00    +0.000 OA
ATOM     21  H   UNL     1      45.501   2.551  12.433  0.00  0.00    +0.000 HD
ATOM     22  H   UNL     1      43.816   2.205  12.228  0.00  0.00    +0.000 HD
ENDBRANCH  15  18
ENDBRANCH   1  12
BRANCH   1  24
ATOM     23  C   UNL     1      49.537   7.363  11.502  0.00  0.00    +0.000 C 
ATOM     24  N   UNL     1      48.955   8.372  12.357  0.00  0.00    +0.000 NA
ATOM     25  H   UNL     1      48.307   8.944  11.818  0.00  0.00    +0.000 HD
ENDBRANCH   1  24
TORSDOF 4
ENDMDL
