MODEL 1
REMARK VINA RESULT:    -7.695      0.000      0.000
REMARK INTER + INTRA:         -11.932
REMARK INTER:                 -10.844
REMARK INTRA:                  -1.087
REMARK UNBOUND:                -1.087
REMARK  Name = 
REMARK  7 active torsions:
REMARK  status: ('A' for Active; 'I' for Inactive)
REMARK    1  A    between atoms: C_2  and  C_19
REMARK    2  A    between atoms: N_3  and  C_4
REMARK    3  A    between atoms: C_4  and  C_5
REMARK    4  A    between atoms: C_8  and  C_9
REMARK    5  A    between atoms: C_9  and  C_10
REMARK    6  A    between atoms: C_10  and  O_11
REMARK    7  A    between atoms: O_11  and  C_12
REMARK                            x       y       z     vdW  Elec       q    Type
REMARK                         _______ _______ _______ _____ _____    ______ ____
ROOT
ATOM      1  O   UNL     1      49.625   6.989  13.990  0.00  0.00    +0.000 OA
ATOM      2  C   UNL     1      48.721   6.794  14.799  0.00  0.00    +0.000 C 
ATOM      3  N   UNL     1      47.399   6.839  14.441  0.00  0.00    +0.000 N 
ATOM      4  H   UNL     1      46.692   6.888  15.168  0.00  0.00    +0.000 HD
ENDROOT
BRANCH   2   5
ATOM      5  C   UNL     1      49.005   6.454  16.197  0.00  0.00    +0.000 A 
ATOM      6  C   UNL     1      49.608   7.387  17.029  0.00  0.00    +0.000 A 
ATOM      7  S   UNL     1      49.874   6.816  18.614  0.00  0.00    +0.000 S 
ATOM      8  C   UNL     1      49.152   5.317  18.254  0.00  0.00    +0.000 A 
ATOM      9  N   UNL     1      49.025   4.353  19.205  0.00  0.00    +0.000 NA
ATOM     10  C   UNL     1      48.430   3.280  18.805  0.00  0.00    +0.000 A 
ATOM     11  N   UNL     1      47.954   3.082  17.533  0.00  0.00    +0.000 N 
ATOM     12  C   UNL     1      48.088   4.011  16.532  0.00  0.00    +0.000 A 
ATOM     13  O   UNL     1      47.700   3.780  15.391  0.00  0.00    +0.000 OA
ATOM     14  C   UNL     1      48.735   5.244  16.939  0.00  0.00    +0.000 A 
ATOM     15  H   UNL     1      47.511   2.211  17.280  0.00  0.00    +0.000 HD
ENDBRANCH   2   5
BRANCH   3  16
ATOM     16  C   UNL     1      47.006   7.260  13.121  0.00  0.00    +0.000 C 
BRANCH  16  17
ATOM     17  C   UNL     1      46.259   6.176  12.406  0.00  0.00    +0.000 A 
ATOM     18  C   UNL     1      46.037   6.232  11.029  0.00  0.00    +0.000 A 
ATOM     19  C   UNL     1      45.342   5.203  10.396  0.00  0.00    +0.000 A 
ATOM     20  C   UNL     1      44.873   4.137  11.158  0.00  0.00    +0.000 A 
ATOM     21  N   UNL     1      45.032   4.091  12.504  0.00  0.00    +0.000 NA
ATOM     22  C   UNL     1      45.719   5.097  13.092  0.00  0.00    +0.000 A 
BRANCH  20  23
ATOM     23  C   UNL     1      44.142   2.980  10.514  0.00  0.00    +0.000 C 
BRANCH  23  24
ATOM     24  C   UNL     1      44.453   2.815   9.024  0.00  0.00    +0.000 C 
BRANCH  24  25
ATOM     25  O   UNL     1      45.389   1.755   8.864  0.00  0.00    +0.000 OA
BRANCH  25  26
ATOM     26  C   UNL     1      46.057   1.733   7.613  0.00  0.00    +0.000 C 
ATOM     27  C   UNL     1      46.753   3.060   7.419  0.00  0.00    +0.000 C 
ATOM     28  C   UNL     1      47.869   2.722   6.464  0.00  0.00    +0.000 C 
ATOM     29  O   UNL     1      48.214   1.347   6.678  0.00  0.00    +0.000 OA
ATOM     30  C   UNL     1      47.223   0.761   7.536  0.00  0.00    +0.000 C 
ENDBRANCH  25  26
ENDBRANCH  24  25
ENDBRANCH  23  24
ENDBRANCH  20  23
ENDBRANCH  16  17
ENDBRANCH   3  16
TORSDOF 7
ENDMDL
MODEL 2
REMARK VINA RESULT:    -6.945      1.280      1.516
REMARK INTER + INTRA:         -10.875
REMARK INTER:                  -9.847
REMARK INTRA:                  -1.028
REMARK UNBOUND:                -1.087
REMARK  Name = 
REMARK  7 active torsions:
REMARK  status: ('A' for Active; 'I' for Inactive)
REMARK    1  A    between atoms: C_2  and  C_19
REMARK    2  A    between atoms: N_3  and  C_4
REMARK    3  A    between atoms: C_4  and  C_5
REMARK    4  A    between atoms: C_8  and  C_9
REMARK    5  A    between atoms: C_9  and  C_10
REMARK    6  A    between atoms: C_10  and  O_11
REMARK    7  A    between atoms: O_11  and  C_12
REMARK                            x       y       z     vdW  Elec       q    Type
REMARK                         _______ _______ _______ _____ _____    ______ ____
ROOT
ATOM      1  O   UNL     1      50.413   7.475  15.087  0.00  0.00    +0.000 OA
ATOM      2  C   UNL     1      49.373   7.097  15.620  0.00  0.00    +0.000 C 
ATOM      3  N   UNL     1      48.309   6.630  14.893  0.00  0.00    +0.000 N 
ATOM      4  H   UNL     1      47.405   6.535  15.346  0.00  0.00    +0.000 HD
ENDROOT
BRANCH   2   5
ATOM      5  C   UNL     1      49.222   7.080  17.078  0.00  0.00    +0.000 A 
ATOM      6  C   UNL     1      49.130   8.272  17.781  0.00  0.00    +0.000 A 
ATOM      7  S   UNL     1      48.973   8.061  19.466  0.00  0.00    +0.000 S 
ATOM      8  C   UNL     1      48.979   6.367  19.310  0.00  0.00    +0.000 A 
ATOM      9  N   UNL     1      48.844   5.561  20.397  0.00  0.00    +0.000 NA
ATOM     10  C   UNL     1      48.832   4.299  20.132  0.00  0.00    +0.000 A 
ATOM     11  N   UNL     1      48.950   3.767  18.872  0.00  0.00    +0.000 N 
ATOM     12  C   UNL     1      49.121   4.537  17.749  0.00  0.00    +0.000 A 
ATOM     13  O   UNL     1      49.278   4.027  16.643  0.00  0.00    +0.000 OA
ATOM     14  C   UNL     1      49.121   5.967  17.995  0.00  0.00    +0.000 A 
ATOM     15  H   UNL     1      48.948   2.767  18.733  0.00  0.00    +0.000 HD
ENDBRANCH   2   5
BRANCH   3  16
ATOM     16  C   UNL     1      48.311   6.696  13.455  0.00  0.00    +0.000 C 
BRANCH  16  17
ATOM     17  C   UNL     1      47.052   6.121  12.883  0.00  0.00    +0.000 A 
ATOM     18  C   UNL     1      46.481   6.634  11.717  0.00  0.00    +0.000 A 
ATOM     19  C   UNL     1      45.312   6.070  11.211  0.00  0.00    +0.000 A 
ATOM     20  C   UNL     1      44.729   5.003  11.888  0.00  0.00    +0.000 A 
ATOM     21  N   UNL     1      45.240   4.524  13.049  0.00  0.00    +0.000 NA
ATOM     22  C   UNL     1      46.381   5.083  13.514  0.00  0.00    +0.000 A 
BRANCH  20  23
ATOM     23  C   UNL     1      43.479   4.334  11.362  0.00  0.00    +0.000 C 
BRANCH  23  24
ATOM     24  C   UNL     1      43.716   2.909  10.853  0.00  0.00    +0.000 C 
BRANCH  24  25
ATOM     25  O   UNL     1      45.015   2.836  10.276  0.00  0.00    +0.000 OA
BRANCH  25  26
ATOM     26  C   UNL     1      45.033   2.644   8.871  0.00  0.00    +0.000 C 
ATOM     27  C   UNL     1      45.600   3.887   8.226  0.00  0.00    +0.000 C 
ATOM     28  C   UNL     1      46.143   3.372   6.917  0.00  0.00    +0.000 C 
ATOM     29  O   UNL     1      46.509   2.000   7.116  0.00  0.00    +0.000 OA
ATOM     30  C   UNL     1      46.006   1.578   8.392  0.00  0.00    +0.000 C 
ENDBRANCH  25  26
ENDBRANCH  24  25
ENDBRANCH  23  24
ENDBRANCH  20  23
ENDBRANCH  16  17
ENDBRANCH   3  16
TORSDOF 7
ENDMDL
MODEL 3
REMARK VINA RESULT:    -6.841      1.742      2.565
REMARK INTER + INTRA:         -10.728
REMARK INTER:                  -9.775
REMARK INTRA:                  -0.952
REMARK UNBOUND:                -1.087
REMARK  Name = 
REMARK  7 active torsions:
REMARK  status: ('A' for Active; 'I' for Inactive)
REMARK    1  A    between atoms: C_2  and  C_19
REMARK    2  A    between atoms: N_3  and  C_4
REMARK    3  A    between atoms: C_4  and  C_5
REMARK    4  A    between atoms: C_8  and  C_9
REMARK    5  A    between atoms: C_9  and  C_10
REMARK    6  A    between atoms: C_10  and  O_11
REMARK    7  A    between atoms: O_11  and  C_12
REMARK                            x       y       z     vdW  Elec       q    Type
REMARK                         _______ _______ _______ _____ _____    ______ ____
ROOT
ATOM      1  O   UNL     1      49.838   7.015  14.118  0.00  0.00    +0.000 OA
ATOM      2  C   UNL     1      48.888   6.911  14.890  0.00  0.00    +0.000 C 
ATOM      3  N   UNL     1      47.589   6.895  14.450  0.00  0.00    +0.000 N 
ATOM      4  H   UNL     1      46.840   7.027  15.122  0.00  0.00    +0.000 HD
ENDROOT
BRANCH   2   5
ATOM      5  C   UNL     1      49.088   6.752  16.334  0.00  0.00    +0.000 A 
ATOM      6  C   UNL     1      49.705   5.612  16.828  0.00  0.00    +0.000 A 
ATOM      7  S   UNL     1      49.840   5.591  18.528  0.00  0.00    +0.000 S 
ATOM      8  C   UNL     1      49.117   7.126  18.659  0.00  0.00    +0.000 A 
ATOM      9  N   UNL     1      48.953   7.724  19.869  0.00  0.00    +0.000 NA
ATOM     10  C   UNL     1      48.422   8.899  19.820  0.00  0.00    +0.000 A 
ATOM     11  N   UNL     1      48.032   9.529  18.665  0.00  0.00    +0.000 N 
ATOM     12  C   UNL     1      48.146   8.953  17.424  0.00  0.00    +0.000 A 
ATOM     13  O   UNL     1      47.737   9.522  16.417  0.00  0.00    +0.000 OA
ATOM     14  C   UNL     1      48.757   7.638  17.427  0.00  0.00    +0.000 A 
ATOM     15  H   UNL     1      47.608  10.445  18.697  0.00  0.00    +0.000 HD
ENDBRANCH   2   5
BRANCH   3  16
ATOM     16  C   UNL     1      47.276   7.144  13.067  0.00  0.00    +0.000 C 
BRANCH  16  17
ATOM     17  C   UNL     1      46.465   6.027  12.485  0.00  0.00    +0.000 A 
ATOM     18  C   UNL     1      46.442   4.762  13.073  0.00  0.00    +0.000 A 
ATOM     19  C   UNL     1      45.672   3.748  12.507  0.00  0.00    +0.000 A 
ATOM     20  C   UNL     1      44.942   4.019  11.353  0.00  0.00    +0.000 A 
ATOM     21  N   UNL     1      44.992   5.226  10.739  0.00  0.00    +0.000 NA
ATOM     22  C   UNL     1      45.739   6.196  11.314  0.00  0.00    +0.000 A 
BRANCH  20  23
ATOM     23  C   UNL     1      44.064   2.963  10.720  0.00  0.00    +0.000 C 
BRANCH  23  24
ATOM     24  C   UNL     1      44.343   2.751   9.229  0.00  0.00    +0.000 C 
BRANCH  24  25
ATOM     25  O   UNL     1      45.696   2.340   9.067  0.00  0.00    +0.000 OA
BRANCH  25  26
ATOM     26  C   UNL     1      46.082   2.073   7.729  0.00  0.00    +0.000 C 
ATOM     27  C   UNL     1      46.955   3.209   7.249  0.00  0.00    +0.000 C 
ATOM     28  C   UNL     1      47.775   2.569   6.157  0.00  0.00    +0.000 C 
ATOM     29  O   UNL     1      47.900   1.177   6.477  0.00  0.00    +0.000 OA
ATOM     30  C   UNL     1      47.012   0.881   7.566  0.00  0.00    +0.000 C 
ENDBRANCH  25  26
ENDBRANCH  24  25
ENDBRANCH  23  24
ENDBRANCH  20  23
ENDBRANCH  16  17
ENDBRANCH   3  16
TORSDOF 7
ENDMDL
MODEL 4
REMARK VINA RESULT:    -6.743      3.766      7.995
REMARK INTER + INTRA:         -10.590
REMARK INTER:                  -9.297
REMARK INTRA:                  -1.293
REMARK UNBOUND:                -1.087
REMARK  Name = 
REMARK  7 active torsions:
REMARK  status: ('A' for Active; 'I' for Inactive)
REMARK    1  A    between atoms: C_2  and  C_19
REMARK    2  A    between atoms: N_3  and  C_4
REMARK    3  A    between atoms: C_4  and  C_5
REMARK    4  A    between atoms: C_8  and  C_9
REMARK    5  A    between atoms: C_9  and  C_10
REMARK    6  A    between atoms: C_10  and  O_11
REMARK    7  A    between atoms: O_11  and  C_12
REMARK                            x       y       z     vdW  Elec       q    Type
REMARK                         _______ _______ _______ _____ _____    ______ ____
ROOT
ATOM      1  O   UNL     1      45.498   7.926  11.680  0.00  0.00    +0.000 OA
ATOM      2  C   UNL     1      46.181   6.936  11.435  0.00  0.00    +0.000 C 
ATOM      3  N   UNL     1      47.506   6.860  11.780  0.00  0.00    +0.000 N 
ATOM      4  H   UNL     1      48.081   6.130  11.373  0.00  0.00    +0.000 HD
ENDROOT
BRANCH   2   5
ATOM      5  C   UNL     1      45.608   5.749  10.792  0.00  0.00    +0.000 A 
ATOM      6  C   UNL     1      45.840   5.508   9.446  0.00  0.00    +0.000 A 
ATOM      7  S   UNL     1      45.086   4.092   8.866  0.00  0.00    +0.000 S 
ATOM      8  C   UNL     1      44.459   3.730  10.406  0.00  0.00    +0.000 A 
ATOM      9  N   UNL     1      43.723   2.606  10.617  0.00  0.00    +0.000 NA
ATOM     10  C   UNL     1      43.338   2.438  11.837  0.00  0.00    +0.000 A 
ATOM     11  N   UNL     1      43.619   3.300  12.868  0.00  0.00    +0.000 N 
ATOM     12  C   UNL     1      44.328   4.462  12.698  0.00  0.00    +0.000 A 
ATOM     13  O   UNL     1      44.515   5.239  13.630  0.00  0.00    +0.000 OA
ATOM     14  C   UNL     1      44.800   4.686  11.344  0.00  0.00    +0.000 A 
ATOM     15  H   UNL     1      43.275   3.118  13.799  0.00  0.00    +0.000 HD
ENDBRANCH   2   5
BRANCH   3  16
ATOM     16  C   UNL     1      48.193   8.003  12.323  0.00  0.00    +0.000 C 
BRANCH  16  17
ATOM     17  C   UNL     1      48.439   7.840  13.792  0.00  0.00    +0.000 A 
ATOM     18  C   UNL     1      48.317   8.915  14.673  0.00  0.00    +0.000 A 
ATOM     19  C   UNL     1      48.548   8.726  16.035  0.00  0.00    +0.000 A 
ATOM     20  C   UNL     1      48.907   7.460  16.489  0.00  0.00    +0.000 A 
ATOM     21  N   UNL     1      49.081   6.416  15.642  0.00  0.00    +0.000 NA
ATOM     22  C   UNL     1      48.841   6.624  14.327  0.00  0.00    +0.000 A 
BRANCH  20  23
ATOM     23  C   UNL     1      49.135   7.196  17.960  0.00  0.00    +0.000 C 
BRANCH  23  24
ATOM     24  C   UNL     1      48.136   6.206  18.565  0.00  0.00    +0.000 C 
BRANCH  24  25
ATOM     25  O   UNL     1      48.856   5.168  19.222  0.00  0.00    +0.000 OA
BRANCH  25  26
ATOM     26  C   UNL     1      48.754   3.892  18.613  0.00  0.00    +0.000 C 
ATOM     27  C   UNL     1      47.597   3.919  17.641  0.00  0.00    +0.000 C 
ATOM     28  C   UNL     1      47.956   2.834  16.657  0.00  0.00    +0.000 C 
ATOM     29  O   UNL     1      49.387   2.740  16.625  0.00  0.00    +0.000 OA
ATOM     30  C   UNL     1      49.915   3.534  17.699  0.00  0.00    +0.000 C 
ENDBRANCH  25  26
ENDBRANCH  24  25
ENDBRANCH  23  24
ENDBRANCH  20  23
ENDBRANCH  16  17
ENDBRANCH   3  16
TORSDOF 7
ENDMDL
MODEL 5
REMARK VINA RESULT:    -6.596      3.125      8.431
REMARK INTER + INTRA:         -10.382
REMARK INTER:                  -9.173
REMARK INTRA:                  -1.210
REMARK UNBOUND:                -1.087
REMARK  Name = 
REMARK  7 active torsions:
REMARK  status: ('A' for Active; 'I' for Inactive)
REMARK    1  A    between atoms: C_2  and  C_19
REMARK    2  A    between atoms: N_3  and  C_4
REMARK    3  A    between atoms: C_4  and  C_5
REMARK    4  A    between atoms: C_8  and  C_9
REMARK    5  A    between atoms: C_9  and  C_10
REMARK    6  A    between atoms: C_10  and  O_11
REMARK    7  A    between atoms: O_11  and  C_12
REMARK                            x       y       z     vdW  Elec       q    Type
REMARK                         _______ _______ _______ _____ _____    ______ ____
ROOT
ATOM      1  O   UNL     1      44.549   7.410  11.641  0.00  0.00    +0.000 OA
ATOM      2  C   UNL     1      45.259   6.408  11.659  0.00  0.00    +0.000 C 
ATOM      3  N   UNL     1      46.588   6.461  11.992  0.00  0.00    +0.000 N 
ATOM      4  H   UNL     1      47.181   5.664  11.787  0.00  0.00    +0.000 HD
ENDROOT
BRANCH   2   5
ATOM      5  C   UNL     1      44.715   5.078  11.367  0.00  0.00    +0.000 A 
ATOM      6  C   UNL     1      43.904   4.441  12.295  0.00  0.00    +0.000 A 
ATOM      7  S   UNL     1      43.375   2.899  11.793  0.00  0.00    +0.000 S 
ATOM      8  C   UNL     1      44.177   3.049  10.300  0.00  0.00    +0.000 A 
ATOM      9  N   UNL     1      44.104   2.066   9.362  0.00  0.00    +0.000 NA
ATOM     10  C   UNL     1      44.731   2.324   8.265  0.00  0.00    +0.000 A 
ATOM     11  N   UNL     1      45.433   3.479   8.022  0.00  0.00    +0.000 N 
ATOM     12  C   UNL     1      45.563   4.483   8.948  0.00  0.00    +0.000 A 
ATOM     13  O   UNL     1      46.243   5.478   8.719  0.00  0.00    +0.000 OA
ATOM     14  C   UNL     1      44.857   4.247  10.193  0.00  0.00    +0.000 A 
ATOM     15  H   UNL     1      45.916   3.612   7.146  0.00  0.00    +0.000 HD
ENDBRANCH   2   5
BRANCH   3  16
ATOM     16  C   UNL     1      47.246   7.725  12.198  0.00  0.00    +0.000 C 
BRANCH  16  17
ATOM     17  C   UNL     1      47.901   7.783  13.545  0.00  0.00    +0.000 A 
ATOM     18  C   UNL     1      47.960   8.970  14.275  0.00  0.00    +0.000 A 
ATOM     19  C   UNL     1      48.573   8.985  15.527  0.00  0.00    +0.000 A 
ATOM     20  C   UNL     1      49.124   7.807  16.022  0.00  0.00    +0.000 A 
ATOM     21  N   UNL     1      49.123   6.656  15.305  0.00  0.00    +0.000 NA
ATOM     22  C   UNL     1      48.513   6.666  14.097  0.00  0.00    +0.000 A 
BRANCH  20  23
ATOM     23  C   UNL     1      49.770   7.763  17.389  0.00  0.00    +0.000 C 
BRANCH  23  24
ATOM     24  C   UNL     1      50.234   6.363  17.801  0.00  0.00    +0.000 C 
BRANCH  24  25
ATOM     25  O   UNL     1      49.296   5.820  18.724  0.00  0.00    +0.000 OA
BRANCH  25  26
ATOM     26  C   UNL     1      48.889   4.490  18.449  0.00  0.00    +0.000 C 
ATOM     27  C   UNL     1      47.580   4.536  17.697  0.00  0.00    +0.000 C 
ATOM     28  C   UNL     1      47.574   3.229  16.945  0.00  0.00    +0.000 C 
ATOM     29  O   UNL     1      48.941   2.867  16.705  0.00  0.00    +0.000 OA
ATOM     30  C   UNL     1      49.782   3.747  17.467  0.00  0.00    +0.000 C 
ENDBRANCH  25  26
ENDBRANCH  24  25
ENDBRANCH  23  24
ENDBRANCH  20  23
ENDBRANCH  16  17
ENDBRANCH   3  16
TORSDOF 7
ENDMDL
MODEL 6
REMARK VINA RESULT:    -6.364      4.491      7.471
REMARK INTER + INTRA:         -10.056
REMARK INTER:                  -9.109
REMARK INTRA:                  -0.947
REMARK UNBOUND:                -1.087
REMARK  Name = 
REMARK  7 active torsions:
REMARK  status: ('A' for Active; 'I' for Inactive)
REMARK    1  A    between atoms: C_2  and  C_19
REMARK    2  A    between atoms: N_3  and  C_4
REMARK    3  A    between atoms: C_4  and  C_5
REMARK    4  A    between atoms: C_8  and  C_9
REMARK    5  A    between atoms: C_9  and  C_10
REMARK    6  A    between atoms: C_10  and  O_11
REMARK    7  A    between atoms: O_11  and  C_12
REMARK                            x       y       z     vdW  Elec       q    Type
REMARK                         _______ _______ _______ _____ _____    ______ ____
ROOT
ATOM      1  O   UNL     1      44.551   7.588  11.206  0.00  0.00    +0.000 OA
ATOM      2  C   UNL     1      44.975   6.642  11.864  0.00  0.00    +0.000 C 
ATOM      3  N   UNL     1      45.818   6.815  12.932  0.00  0.00    +0.000 N 
ATOM      4  H   UNL     1      46.312   6.011  13.306  0.00  0.00    +0.000 HD
ENDROOT
BRANCH   2   5
ATOM      5  C   UNL     1      44.569   5.263  11.574  0.00  0.00    +0.000 A 
ATOM      6  C   UNL     1      43.781   4.566  12.478  0.00  0.00    +0.000 A 
ATOM      7  S   UNL     1      43.417   2.975  11.983  0.00  0.00    +0.000 S 
ATOM      8  C   UNL     1      44.265   3.178  10.522  0.00  0.00    +0.000 A 
ATOM      9  N   UNL     1      44.324   2.180   9.600  0.00  0.00    +0.000 NA
ATOM     10  C   UNL     1      44.971   2.479   8.525  0.00  0.00    +0.000 A 
ATOM     11  N   UNL     1      45.573   3.690   8.290  0.00  0.00    +0.000 N 
ATOM     12  C   UNL     1      45.570   4.715   9.203  0.00  0.00    +0.000 A 
ATOM     13  O   UNL     1      46.166   5.766   8.984  0.00  0.00    +0.000 OA
ATOM     14  C   UNL     1      44.837   4.432  10.422  0.00  0.00    +0.000 A 
ATOM     15  H   UNL     1      46.079   3.856   7.432  0.00  0.00    +0.000 HD
ENDBRANCH   2   5
BRANCH   3  16
ATOM     16  C   UNL     1      46.359   8.113  13.242  0.00  0.00    +0.000 C 
BRANCH  16  17
ATOM     17  C   UNL     1      47.709   8.301  12.619  0.00  0.00    +0.000 A 
ATOM     18  C   UNL     1      48.083   9.518  12.047  0.00  0.00    +0.000 A 
ATOM     19  C   UNL     1      49.348   9.659  11.481  0.00  0.00    +0.000 A 
ATOM     20  C   UNL     1      50.217   8.571  11.492  0.00  0.00    +0.000 A 
ATOM     21  N   UNL     1      49.853   7.366  11.996  0.00  0.00    +0.000 NA
ATOM     22  C   UNL     1      48.623   7.259  12.548  0.00  0.00    +0.000 A 
BRANCH  20  23
ATOM     23  C   UNL     1      51.613   8.683  10.922  0.00  0.00    +0.000 C 
BRANCH  23  24
ATOM     24  C   UNL     1      52.083   7.414  10.204  0.00  0.00    +0.000 C 
BRANCH  24  25
ATOM     25  O   UNL     1      53.393   7.633   9.692  0.00  0.00    +0.000 OA
BRANCH  25  26
ATOM     26  C   UNL     1      53.660   7.007   8.448  0.00  0.00    +0.000 C 
ATOM     27  C   UNL     1      53.884   5.533   8.695  0.00  0.00    +0.000 C 
ATOM     28  C   UNL     1      53.533   4.910   7.367  0.00  0.00    +0.000 C 
ATOM     29  O   UNL     1      52.566   5.762   6.737  0.00  0.00    +0.000 OA
ATOM     30  C   UNL     1      52.482   6.983   7.488  0.00  0.00    +0.000 C 
ENDBRANCH  25  26
ENDBRANCH  24  25
ENDBRANCH  23  24
ENDBRANCH  20  23
ENDBRANCH  16  17
ENDBRANCH   3  16
TORSDOF 7
ENDMDL
MODEL 7
REMARK VINA RESULT:    -5.944      3.525      9.189
REMARK INTER + INTRA:          -9.464
REMARK INTER:                  -8.583
REMARK INTRA:                  -0.881
REMARK UNBOUND:                -1.087
REMARK  Name = 
REMARK  7 active torsions:
REMARK  status: ('A' for Active; 'I' for Inactive)
REMARK    1  A    between atoms: C_2  and  C_19
REMARK    2  A    between atoms: N_3  and  C_4
REMARK    3  A    between atoms: C_4  and  C_5
REMARK    4  A    between atoms: C_8  and  C_9
REMARK    5  A    between atoms: C_9  and  C_10
REMARK    6  A    between atoms: C_10  and  O_11
REMARK    7  A    between atoms: O_11  and  C_12
REMARK                            x       y       z     vdW  Elec       q    Type
REMARK                         _______ _______ _______ _____ _____    ______ ____
ROOT
ATOM      1  O   UNL     1      43.953   3.790   9.197  0.00  0.00    +0.000 OA
ATOM      2  C   UNL     1      44.740   2.945   9.613  0.00  0.00    +0.000 C 
ATOM      3  N   UNL     1      44.909   2.701  10.951  0.00  0.00    +0.000 N 
ATOM      4  H   UNL     1      45.712   2.160  11.257  0.00  0.00    +0.000 HD
ENDROOT
BRANCH   2   5
ATOM      5  C   UNL     1      45.521   2.108   8.696  0.00  0.00    +0.000 A 
ATOM      6  C   UNL     1      45.398   0.727   8.741  0.00  0.00    +0.000 A 
ATOM      7  S   UNL     1      46.390  -0.083   7.615  0.00  0.00    +0.000 S 
ATOM      8  C   UNL     1      46.985   1.387   6.998  0.00  0.00    +0.000 A 
ATOM      9  N   UNL     1      47.874   1.408   5.969  0.00  0.00    +0.000 NA
ATOM     10  C   UNL     1      48.216   2.589   5.580  0.00  0.00    +0.000 A 
ATOM     11  N   UNL     1      47.754   3.756   6.134  0.00  0.00    +0.000 N 
ATOM     12  C   UNL     1      46.884   3.786   7.196  0.00  0.00    +0.000 A 
ATOM     13  O   UNL     1      46.533   4.846   7.703  0.00  0.00    +0.000 OA
ATOM     14  C   UNL     1      46.454   2.479   7.656  0.00  0.00    +0.000 A 
ATOM     15  H   UNL     1      48.074   4.651   5.793  0.00  0.00    +0.000 HD
ENDBRANCH   2   5
BRANCH   3  16
ATOM     16  C   UNL     1      44.268   3.530  11.938  0.00  0.00    +0.000 C 
BRANCH  16  17
ATOM     17  C   UNL     1      45.194   4.601  12.430  0.00  0.00    +0.000 A 
ATOM     18  C   UNL     1      45.245   5.855  11.820  0.00  0.00    +0.000 A 
ATOM     19  C   UNL     1      46.114   6.829  12.307  0.00  0.00    +0.000 A 
ATOM     20  C   UNL     1      46.925   6.525  13.397  0.00  0.00    +0.000 A 
ATOM     21  N   UNL     1      46.927   5.296  13.970  0.00  0.00    +0.000 NA
ATOM     22  C   UNL     1      46.067   4.372  13.484  0.00  0.00    +0.000 A 
BRANCH  20  23
ATOM     23  C   UNL     1      47.861   7.557  13.985  0.00  0.00    +0.000 C 
BRANCH  23  24
ATOM     24  C   UNL     1      49.180   6.968  14.493  0.00  0.00    +0.000 C 
BRANCH  24  25
ATOM     25  O   UNL     1      49.179   6.996  15.916  0.00  0.00    +0.000 OA
BRANCH  25  26
ATOM     26  C   UNL     1      49.261   5.725  16.538  0.00  0.00    +0.000 C 
ATOM     27  C   UNL     1      50.434   5.734  17.490  0.00  0.00    +0.000 C 
ATOM     28  C   UNL     1      50.067   4.668  18.492  0.00  0.00    +0.000 C 
ATOM     29  O   UNL     1      48.635   4.609  18.548  0.00  0.00    +0.000 OA
ATOM     30  C   UNL     1      48.108   5.404  17.475  0.00  0.00    +0.000 C 
ENDBRANCH  25  26
ENDBRANCH  24  25
ENDBRANCH  23  24
ENDBRANCH  20  23
ENDBRANCH  16  17
ENDBRANCH   3  16
TORSDOF 7
ENDMDL
MODEL 8
REMARK VINA RESULT:    -5.878      3.894      7.882
REMARK INTER + INTRA:          -9.371
REMARK INTER:                  -7.903
REMARK INTRA:                  -1.468
REMARK UNBOUND:                -1.087
REMARK  Name = 
REMARK  7 active torsions:
REMARK  status: ('A' for Active; 'I' for Inactive)
REMARK    1  A    between atoms: C_2  and  C_19
REMARK    2  A    between atoms: N_3  and  C_4
REMARK    3  A    between atoms: C_4  and  C_5
REMARK    4  A    between atoms: C_8  and  C_9
REMARK    5  A    between atoms: C_9  and  C_10
REMARK    6  A    between atoms: C_10  and  O_11
REMARK    7  A    between atoms: O_11  and  C_12
REMARK                            x       y       z     vdW  Elec       q    Type
REMARK                         _______ _______ _______ _____ _____    ______ ____
ROOT
ATOM      1  O   UNL     1      48.373   8.016  12.396  0.00  0.00    +0.000 OA
ATOM      2  C   UNL     1      47.313   7.971  13.014  0.00  0.00    +0.000 C 
ATOM      3  N   UNL     1      47.104   8.696  14.158  0.00  0.00    +0.000 N 
ATOM      4  H   UNL     1      46.311   8.468  14.749  0.00  0.00    +0.000 HD
ENDROOT
BRANCH   2   5
ATOM      5  C   UNL     1      46.183   7.166  12.539  0.00  0.00    +0.000 A 
ATOM      6  C   UNL     1      45.157   7.765  11.822  0.00  0.00    +0.000 A 
ATOM      7  S   UNL     1      43.922   6.682  11.363  0.00  0.00    +0.000 S 
ATOM      8  C   UNL     1      44.738   5.366  12.069  0.00  0.00    +0.000 A 
ATOM      9  N   UNL     1      44.227   4.108  12.006  0.00  0.00    +0.000 NA
ATOM     10  C   UNL     1      44.964   3.201  12.553  0.00  0.00    +0.000 A 
ATOM     11  N   UNL     1      46.168   3.442  13.166  0.00  0.00    +0.000 N 
ATOM     12  C   UNL     1      46.708   4.698  13.285  0.00  0.00    +0.000 A 
ATOM     13  O   UNL     1      47.761   4.886  13.887  0.00  0.00    +0.000 OA
ATOM     14  C   UNL     1      45.924   5.750  12.666  0.00  0.00    +0.000 A 
ATOM     15  H   UNL     1      46.690   2.689  13.590  0.00  0.00    +0.000 HD
ENDBRANCH   2   5
BRANCH   3  16
ATOM     16  C   UNL     1      48.177   9.439  14.767  0.00  0.00    +0.000 C 
BRANCH  16  17
ATOM     17  C   UNL     1      48.724   8.721  15.963  0.00  0.00    +0.000 A 
ATOM     18  C   UNL     1      49.754   7.787  15.843  0.00  0.00    +0.000 A 
ATOM     19  C   UNL     1      50.241   7.142  16.978  0.00  0.00    +0.000 A 
ATOM     20  C   UNL     1      49.681   7.440  18.216  0.00  0.00    +0.000 A 
ATOM     21  N   UNL     1      48.645   8.305  18.346  0.00  0.00    +0.000 NA
ATOM     22  C   UNL     1      48.197   8.925  17.230  0.00  0.00    +0.000 A 
BRANCH  20  23
ATOM     23  C   UNL     1      50.196   6.793  19.482  0.00  0.00    +0.000 C 
BRANCH  23  24
ATOM     24  C   UNL     1      49.396   5.558  19.907  0.00  0.00    +0.000 C 
BRANCH  24  25
ATOM     25  O   UNL     1      49.959   4.408  19.285  0.00  0.00    +0.000 OA
BRANCH  25  26
ATOM     26  C   UNL     1      49.024   3.567  18.629  0.00  0.00    +0.000 C 
ATOM     27  C   UNL     1      47.851   4.411  18.187  0.00  0.00    +0.000 C 
ATOM     28  C   UNL     1      47.285   3.624  17.031  0.00  0.00    +0.000 C 
ATOM     29  O   UNL     1      48.367   2.892  16.441  0.00  0.00    +0.000 OA
ATOM     30  C   UNL     1      49.509   2.996  17.306  0.00  0.00    +0.000 C 
ENDBRANCH  25  26
ENDBRANCH  24  25
ENDBRANCH  23  24
ENDBRANCH  20  23
ENDBRANCH  16  17
ENDBRANCH   3  16
TORSDOF 7
ENDMDL
MODEL 9
REMARK VINA RESULT:    -5.826      4.465      8.703
REMARK INTER + INTRA:          -9.298
REMARK INTER:                  -8.464
REMARK INTRA:                  -0.834
REMARK UNBOUND:                -1.087
REMARK  Name = 
REMARK  7 active torsions:
REMARK  status: ('A' for Active; 'I' for Inactive)
REMARK    1  A    between atoms: C_2  and  C_19
REMARK    2  A    between atoms: N_3  and  C_4
REMARK    3  A    between atoms: C_4  and  C_5
REMARK    4  A    between atoms: C_8  and  C_9
REMARK    5  A    between atoms: C_9  and  C_10
REMARK    6  A    between atoms: C_10  and  O_11
REMARK    7  A    between atoms: O_11  and  C_12
REMARK                            x       y       z     vdW  Elec       q    Type
REMARK                         _______ _______ _______ _____ _____    ______ ____
ROOT
ATOM      1  O   UNL     1      43.899   3.756   9.136  0.00  0.00    +0.000 OA
ATOM      2  C   UNL     1      44.605   2.852   9.574  0.00  0.00    +0.000 C 
ATOM      3  N   UNL     1      44.622   2.519  10.904  0.00  0.00    +0.000 N 
ATOM      4  H   UNL     1      45.367   1.925  11.255  0.00  0.00    +0.000 HD
ENDROOT
BRANCH   2   5
ATOM      5  C   UNL     1      45.446   2.039   8.690  0.00  0.00    +0.000 A 
ATOM      6  C   UNL     1      45.363   0.655   8.732  0.00  0.00    +0.000 A 
ATOM      7  S   UNL     1      46.422  -0.126   7.646  0.00  0.00    +0.000 S 
ATOM      8  C   UNL     1      46.997   1.361   7.052  0.00  0.00    +0.000 A 
ATOM      9  N   UNL     1      47.924   1.408   6.058  0.00  0.00    +0.000 NA
ATOM     10  C   UNL     1      48.247   2.599   5.681  0.00  0.00    +0.000 A 
ATOM     11  N   UNL     1      47.728   3.752   6.216  0.00  0.00    +0.000 N 
ATOM     12  C   UNL     1      46.817   3.756   7.242  0.00  0.00    +0.000 A 
ATOM     13  O   UNL     1      46.415   4.806   7.734  0.00  0.00    +0.000 OA
ATOM     14  C   UNL     1      46.408   2.438   7.687  0.00  0.00    +0.000 A 
ATOM     15  H   UNL     1      48.035   4.656   5.886  0.00  0.00    +0.000 HD
ENDBRANCH   2   5
BRANCH   3  16
ATOM     16  C   UNL     1      43.913   3.315  11.872  0.00  0.00    +0.000 C 
BRANCH  16  17
ATOM     17  C   UNL     1      44.693   4.539  12.244  0.00  0.00    +0.000 A 
ATOM     18  C   UNL     1      45.948   4.447  12.847  0.00  0.00    +0.000 A 
ATOM     19  C   UNL     1      46.647   5.606  13.175  0.00  0.00    +0.000 A 
ATOM     20  C   UNL     1      46.070   6.843  12.899  0.00  0.00    +0.000 A 
ATOM     21  N   UNL     1      44.830   6.953  12.362  0.00  0.00    +0.000 NA
ATOM     22  C   UNL     1      44.177   5.812  12.044  0.00  0.00    +0.000 A 
BRANCH  20  23
ATOM     23  C   UNL     1      46.802   8.130  13.204  0.00  0.00    +0.000 C 
BRANCH  23  24
ATOM     24  C   UNL     1      47.935   8.437  12.221  0.00  0.00    +0.000 C 
BRANCH  24  25
ATOM     25  O   UNL     1      48.809   9.395  12.810  0.00  0.00    +0.000 OA
BRANCH  25  26
ATOM     26  C   UNL     1      50.163   9.297  12.401  0.00  0.00    +0.000 C 
ATOM     27  C   UNL     1      50.366   7.956  11.735  0.00  0.00    +0.000 C 
ATOM     28  C   UNL     1      51.549   8.201  10.833  0.00  0.00    +0.000 C 
ATOM     29  O   UNL     1      51.535   9.589  10.475  0.00  0.00    +0.000 OA
ATOM     30  C   UNL     1      50.557  10.256  11.288  0.00  0.00    +0.000 C 
ENDBRANCH  25  26
ENDBRANCH  24  25
ENDBRANCH  23  24
ENDBRANCH  20  23
ENDBRANCH  16  17
ENDBRANCH   3  16
TORSDOF 7
ENDMDL
