MODEL 1
REMARK VINA RESULT:    -9.111      0.000      0.000
REMARK INTER + INTRA:         -12.090
REMARK INTER:                 -11.508
REMARK INTRA:                  -0.582
REMARK UNBOUND:                -0.582
REMARK  Name = 
REMARK  5 active torsions:
REMARK  status: ('A' for Active; 'I' for Inactive)
REMARK    1  A    between atoms: C_2  and  C_4
REMARK    2  A    between atoms: N_8  and  C_9
REMARK    3  A    between atoms: C_9  and  C_10
REMARK    4  A    between atoms: C_15  and  N_16
REMARK    5  A    between atoms: C_19  and  N_20
REMARK                            x       y       z     vdW  Elec       q    Type
REMARK                         _______ _______ _______ _____ _____    ______ ____
ROOT
ATOM      1  C   UNL     1      44.648   4.763  11.999  0.00  0.00    +0.000 A 
ATOM      2  C   UNL     1      45.309   3.742  12.690  0.00  0.00    +0.000 A 
ATOM      3  C   UNL     1      46.387   4.044  13.518  0.00  0.00    +0.000 A 
ATOM      4  C   UNL     1      46.808   5.366  13.659  0.00  0.00    +0.000 A 
ATOM      5  F   UNL     1      47.824   5.598  14.506  0.00  0.00    +0.000 F 
ATOM      6  C   UNL     1      46.179   6.431  12.988  0.00  0.00    +0.000 A 
ATOM      7  C   UNL     1      45.084   6.094  12.168  0.00  0.00    +0.000 A 
ENDROOT
BRANCH   6   8
ATOM      8  N   UNL     1      46.607   7.747  13.091  0.00  0.00    +0.000 N 
ATOM      9  C   UNL     1      45.657   8.860  13.125  0.00  0.00    +0.000 C 
ATOM     10  C   UNL     1      45.910   9.817  11.964  0.00  0.00    +0.000 C 
ATOM     11  C   UNL     1      47.375  10.261  11.886  0.00  0.00    +0.000 C 
ATOM     12  C   UNL     1      48.293   9.033  11.869  0.00  0.00    +0.000 C 
ATOM     13  C   UNL     1      48.031   8.086  13.040  0.00  0.00    +0.000 C 
BRANCH  11  14
ATOM     14  N   UNL     1      47.739  11.179  12.974  0.00  0.00    +0.000 NA
ATOM     15  H   UNL     1      48.616  10.892  13.407  0.00  0.00    +0.000 HD
ATOM     16  H   UNL     1      47.035  11.131  13.710  0.00  0.00    +0.000 HD
ENDBRANCH  11  14
ENDBRANCH   6   8
BRANCH   1  17
ATOM     17  C   UNL     1      43.491   4.434  11.079  0.00  0.00    +0.000 C 
BRANCH  17  22
ATOM     18  C   UNL     1      46.417   2.371   7.716  0.00  0.00    +0.000 A 
ATOM     19  C   UNL     1      45.532   1.889   8.648  0.00  0.00    +0.000 A 
ATOM     20  N   UNL     1      44.658   2.667   9.327  0.00  0.00    +0.000 NA
ATOM     21  C   UNL     1      44.676   3.985   9.067  0.00  0.00    +0.000 A 
ATOM     22  N   UNL     1      43.801   4.838   9.724  0.00  0.00    +0.000 N 
ATOM     23  N   UNL     1      45.515   4.554   8.190  0.00  0.00    +0.000 NA
ATOM     24  C   UNL     1      46.373   3.733   7.532  0.00  0.00    +0.000 A 
ATOM     25  H   UNL     1      44.168   5.778   9.624  0.00  0.00    +0.000 HD
BRANCH  18  27
ATOM     26  N   UNL     1      48.511   2.142   6.500  0.00  0.00    +0.000 N 
ATOM     27  C   UNL     1      47.387   1.538   6.992  0.00  0.00    +0.000 C 
ATOM     28  O   UNL     1      47.201   0.337   6.849  0.00  0.00    +0.000 OA
ATOM     29  H   UNL     1      49.197   1.529   6.072  0.00  0.00    +0.000 HD
ATOM     30  H   UNL     1      48.833   3.054   6.794  0.00  0.00    +0.000 HD
ENDBRANCH  18  27
ENDBRANCH  17  22
ENDBRANCH   1  17
TORSDOF 5
ENDMDL
MODEL 2
REMARK VINA RESULT:    -8.565      2.006      3.381
REMARK INTER + INTRA:         -11.401
REMARK INTER:                 -11.057
REMARK INTRA:                  -0.344
REMARK UNBOUND:                -0.582
REMARK  Name = 
REMARK  5 active torsions:
REMARK  status: ('A' for Active; 'I' for Inactive)
REMARK    1  A    between atoms: C_2  and  C_4
REMARK    2  A    between atoms: N_8  and  C_9
REMARK    3  A    between atoms: C_9  and  C_10
REMARK    4  A    between atoms: C_15  and  N_16
REMARK    5  A    between atoms: C_19  and  N_20
REMARK                            x       y       z     vdW  Elec       q    Type
REMARK                         _______ _______ _______ _____ _____    ______ ____
ROOT
ATOM      1  C   UNL     1      44.648   5.544  11.841  0.00  0.00    +0.000 A 
ATOM      2  C   UNL     1      44.497   6.926  11.685  0.00  0.00    +0.000 A 
ATOM      3  C   UNL     1      45.329   7.801  12.378  0.00  0.00    +0.000 A 
ATOM      4  C   UNL     1      46.314   7.299  13.228  0.00  0.00    +0.000 A 
ATOM      5  F   UNL     1      47.114   8.193  13.834  0.00  0.00    +0.000 F 
ATOM      6  C   UNL     1      46.509   5.919  13.421  0.00  0.00    +0.000 A 
ATOM      7  C   UNL     1      45.659   5.060  12.696  0.00  0.00    +0.000 A 
ENDROOT
BRANCH   6   8
ATOM      8  N   UNL     1      47.461   5.405  14.290  0.00  0.00    +0.000 N 
ATOM      9  C   UNL     1      47.265   4.121  14.966  0.00  0.00    +0.000 C 
ATOM     10  C   UNL     1      47.293   4.304  16.481  0.00  0.00    +0.000 C 
ATOM     11  C   UNL     1      48.540   5.063  16.951  0.00  0.00    +0.000 C 
ATOM     12  C   UNL     1      48.669   6.382  16.180  0.00  0.00    +0.000 C 
ATOM     13  C   UNL     1      48.643   6.183  14.665  0.00  0.00    +0.000 C 
BRANCH  11  14
ATOM     14  N   UNL     1      49.763   4.258  16.832  0.00  0.00    +0.000 NA
ATOM     15  H   UNL     1      50.356   4.616  16.085  0.00  0.00    +0.000 HD
ATOM     16  H   UNL     1      49.518   3.305  16.563  0.00  0.00    +0.000 HD
ENDBRANCH  11  14
ENDBRANCH   6   8
BRANCH   1  17
ATOM     17  C   UNL     1      43.727   4.591  11.107  0.00  0.00    +0.000 C 
BRANCH  17  22
ATOM     18  C   UNL     1      46.355   2.257   7.676  0.00  0.00    +0.000 A 
ATOM     19  C   UNL     1      45.647   1.859   8.782  0.00  0.00    +0.000 A 
ATOM     20  N   UNL     1      44.804   2.668   9.466  0.00  0.00    +0.000 NA
ATOM     21  C   UNL     1      44.671   3.931   9.027  0.00  0.00    +0.000 A 
ATOM     22  N   UNL     1      43.818   4.810   9.679  0.00  0.00    +0.000 N 
ATOM     23  N   UNL     1      45.333   4.419   7.969  0.00  0.00    +0.000 NA
ATOM     24  C   UNL     1      46.167   3.570   7.314  0.00  0.00    +0.000 A 
ATOM     25  H   UNL     1      44.084   5.747   9.398  0.00  0.00    +0.000 HD
BRANCH  18  27
ATOM     26  N   UNL     1      48.353   1.985   6.316  0.00  0.00    +0.000 N 
ATOM     27  C   UNL     1      47.290   1.394   6.942  0.00  0.00    +0.000 C 
ATOM     28  O   UNL     1      47.131   0.181   6.908  0.00  0.00    +0.000 OA
ATOM     29  H   UNL     1      49.022   1.358   5.883  0.00  0.00    +0.000 HD
ATOM     30  H   UNL     1      48.668   2.925   6.512  0.00  0.00    +0.000 HD
ENDBRANCH  18  27
ENDBRANCH  17  22
ENDBRANCH   1  17
TORSDOF 5
ENDMDL
MODEL 3
REMARK VINA RESULT:    -7.543      4.939      8.017
REMARK INTER + INTRA:         -10.110
REMARK INTER:                  -9.264
REMARK INTRA:                  -0.846
REMARK UNBOUND:                -0.582
REMARK  Name = 
REMARK  5 active torsions:
REMARK  status: ('A' for Active; 'I' for Inactive)
REMARK    1  A    between atoms: C_2  and  C_4
REMARK    2  A    between atoms: N_8  and  C_9
REMARK    3  A    between atoms: C_9  and  C_10
REMARK    4  A    between atoms: C_15  and  N_16
REMARK    5  A    between atoms: C_19  and  N_20
REMARK                            x       y       z     vdW  Elec       q    Type
REMARK                         _______ _______ _______ _____ _____    ______ ____
ROOT
ATOM      1  C   UNL     1      48.042   6.484  14.509  0.00  0.00    +0.000 A 
ATOM      2  C   UNL     1      48.456   7.367  13.506  0.00  0.00    +0.000 A 
ATOM      3  C   UNL     1      47.872   7.313  12.244  0.00  0.00    +0.000 A 
ATOM      4  C   UNL     1      46.873   6.377  11.978  0.00  0.00    +0.000 A 
ATOM      5  F   UNL     1      46.318   6.404  10.755  0.00  0.00    +0.000 F 
ATOM      6  C   UNL     1      46.419   5.465  12.949  0.00  0.00    +0.000 A 
ATOM      7  C   UNL     1      47.021   5.554  14.220  0.00  0.00    +0.000 A 
ENDROOT
BRANCH   6   8
ATOM      8  N   UNL     1      45.451   4.505  12.691  0.00  0.00    +0.000 N 
ATOM      9  C   UNL     1      45.795   3.213  12.094  0.00  0.00    +0.000 C 
ATOM     10  C   UNL     1      45.053   3.017  10.775  0.00  0.00    +0.000 C 
ATOM     11  C   UNL     1      43.544   3.246  10.919  0.00  0.00    +0.000 C 
ATOM     12  C   UNL     1      43.282   4.612  11.563  0.00  0.00    +0.000 C 
ATOM     13  C   UNL     1      44.028   4.793  12.884  0.00  0.00    +0.000 C 
BRANCH  11  14
ATOM     14  N   UNL     1      42.884   2.170  11.672  0.00  0.00    +0.000 NA
ATOM     15  H   UNL     1      41.872   2.278  11.638  0.00  0.00    +0.000 HD
ATOM     16  H   UNL     1      43.140   2.239  12.657  0.00  0.00    +0.000 HD
ENDBRANCH  11  14
ENDBRANCH   6   8
BRANCH   1  17
ATOM     17  C   UNL     1      48.693   6.525  15.875  0.00  0.00    +0.000 C 
BRANCH  17  22
ATOM     18  C   UNL     1      51.144   2.585  17.488  0.00  0.00    +0.000 A 
ATOM     19  C   UNL     1      51.442   3.919  17.362  0.00  0.00    +0.000 A 
ATOM     20  N   UNL     1      50.520   4.873  17.095  0.00  0.00    +0.000 NA
ATOM     21  C   UNL     1      49.246   4.473  16.942  0.00  0.00    +0.000 A 
ATOM     22  N   UNL     1      48.250   5.401  16.674  0.00  0.00    +0.000 N 
ATOM     23  N   UNL     1      48.859   3.193  17.027  0.00  0.00    +0.000 NA
ATOM     24  C   UNL     1      49.819   2.271  17.297  0.00  0.00    +0.000 A 
ATOM     25  H   UNL     1      47.457   4.890  16.303  0.00  0.00    +0.000 HD
BRANCH  18  27
ATOM     26  N   UNL     1      51.690   0.296  18.100  0.00  0.00    +0.000 N 
ATOM     27  C   UNL     1      52.141   1.539  17.752  0.00  0.00    +0.000 C 
ATOM     28  O   UNL     1      53.338   1.771  17.647  0.00  0.00    +0.000 OA
ATOM     29  H   UNL     1      52.397  -0.424  18.202  0.00  0.00    +0.000 HD
ATOM     30  H   UNL     1      50.738  -0.015  17.963  0.00  0.00    +0.000 HD
ENDBRANCH  18  27
ENDBRANCH  17  22
ENDBRANCH   1  17
TORSDOF 5
ENDMDL
MODEL 4
REMARK VINA RESULT:    -6.921      4.579      8.302
REMARK INTER + INTRA:          -9.324
REMARK INTER:                  -8.466
REMARK INTRA:                  -0.858
REMARK UNBOUND:                -0.582
REMARK  Name = 
REMARK  5 active torsions:
REMARK  status: ('A' for Active; 'I' for Inactive)
REMARK    1  A    between atoms: C_2  and  C_4
REMARK    2  A    between atoms: N_8  and  C_9
REMARK    3  A    between atoms: C_9  and  C_10
REMARK    4  A    between atoms: C_15  and  N_16
REMARK    5  A    between atoms: C_19  and  N_20
REMARK                            x       y       z     vdW  Elec       q    Type
REMARK                         _______ _______ _______ _____ _____    ______ ____
ROOT
ATOM      1  C   UNL     1      48.191   7.532  13.387  0.00  0.00    +0.000 A 
ATOM      2  C   UNL     1      47.672   8.780  13.030  0.00  0.00    +0.000 A 
ATOM      3  C   UNL     1      46.440   8.866  12.389  0.00  0.00    +0.000 A 
ATOM      4  C   UNL     1      45.721   7.706  12.103  0.00  0.00    +0.000 A 
ATOM      5  F   UNL     1      44.518   7.857  11.524  0.00  0.00    +0.000 F 
ATOM      6  C   UNL     1      46.196   6.425  12.440  0.00  0.00    +0.000 A 
ATOM      7  C   UNL     1      47.441   6.373  13.099  0.00  0.00    +0.000 A 
ENDROOT
BRANCH   6   8
ATOM      8  N   UNL     1      45.510   5.259  12.132  0.00  0.00    +0.000 N 
ATOM      9  C   UNL     1      45.281   4.850  10.744  0.00  0.00    +0.000 C 
ATOM     10  C   UNL     1      43.786   4.735  10.459  0.00  0.00    +0.000 C 
ATOM     11  C   UNL     1      43.065   3.854  11.486  0.00  0.00    +0.000 C 
ATOM     12  C   UNL     1      43.374   4.348  12.905  0.00  0.00    +0.000 C 
ATOM     13  C   UNL     1      44.874   4.455  13.178  0.00  0.00    +0.000 C 
BRANCH  11  14
ATOM     14  N   UNL     1      43.400   2.432  11.336  0.00  0.00    +0.000 NA
ATOM     15  H   UNL     1      42.908   2.030  10.540  0.00  0.00    +0.000 HD
ATOM     16  H   UNL     1      43.074   1.917  12.155  0.00  0.00    +0.000 HD
ENDBRANCH  11  14
ENDBRANCH   6   8
BRANCH   1  17
ATOM     17  C   UNL     1      49.544   7.435  14.062  0.00  0.00    +0.000 C 
BRANCH  17  22
ATOM     18  C   UNL     1      49.001   5.290  18.447  0.00  0.00    +0.000 A 
ATOM     19  C   UNL     1      49.703   4.987  17.307  0.00  0.00    +0.000 A 
ATOM     20  N   UNL     1      49.883   5.852  16.283  0.00  0.00    +0.000 NA
ATOM     21  C   UNL     1      49.329   7.071  16.402  0.00  0.00    +0.000 A 
ATOM     22  N   UNL     1      49.481   8.008  15.390  0.00  0.00    +0.000 N 
ATOM     23  N   UNL     1      48.610   7.455  17.466  0.00  0.00    +0.000 NA
ATOM     24  C   UNL     1      48.458   6.553  18.469  0.00  0.00    +0.000 A 
ATOM     25  H   UNL     1      48.766   8.713  15.526  0.00  0.00    +0.000 HD
BRANCH  18  27
ATOM     26  N   UNL     1      48.261   3.119  19.257  0.00  0.00    +0.000 N 
ATOM     27  C   UNL     1      48.780   4.349  19.554  0.00  0.00    +0.000 C 
ATOM     28  O   UNL     1      49.070   4.652  20.704  0.00  0.00    +0.000 OA
ATOM     29  H   UNL     1      48.190   2.465  20.029  0.00  0.00    +0.000 HD
ATOM     30  H   UNL     1      48.236   2.730  18.325  0.00  0.00    +0.000 HD
ENDBRANCH  18  27
ENDBRANCH  17  22
ENDBRANCH   1  17
TORSDOF 5
ENDMDL
MODEL 5
REMARK VINA RESULT:    -6.703      3.139      6.888
REMARK INTER + INTRA:          -9.048
REMARK INTER:                  -8.644
REMARK INTRA:                  -0.404
REMARK UNBOUND:                -0.582
REMARK  Name = 
REMARK  5 active torsions:
REMARK  status: ('A' for Active; 'I' for Inactive)
REMARK    1  A    between atoms: C_2  and  C_4
REMARK    2  A    between atoms: N_8  and  C_9
REMARK    3  A    between atoms: C_9  and  C_10
REMARK    4  A    between atoms: C_15  and  N_16
REMARK    5  A    between atoms: C_19  and  N_20
REMARK                            x       y       z     vdW  Elec       q    Type
REMARK                         _______ _______ _______ _____ _____    ______ ____
ROOT
ATOM      1  C   UNL     1      44.608   5.326  12.185  0.00  0.00    +0.000 A 
ATOM      2  C   UNL     1      43.828   4.459  12.957  0.00  0.00    +0.000 A 
ATOM      3  C   UNL     1      43.438   3.226  12.443  0.00  0.00    +0.000 A 
ATOM      4  C   UNL     1      43.826   2.854  11.156  0.00  0.00    +0.000 A 
ATOM      5  F   UNL     1      43.456   1.634  10.733  0.00  0.00    +0.000 F 
ATOM      6  C   UNL     1      44.610   3.687  10.336  0.00  0.00    +0.000 A 
ATOM      7  C   UNL     1      44.998   4.923  10.891  0.00  0.00    +0.000 A 
ENDROOT
BRANCH   6   8
ATOM      8  N   UNL     1      44.974   3.347   9.041  0.00  0.00    +0.000 N 
ATOM      9  C   UNL     1      45.071   1.949   8.616  0.00  0.00    +0.000 C 
ATOM     10  C   UNL     1      46.484   1.633   8.134  0.00  0.00    +0.000 C 
ATOM     11  C   UNL     1      46.974   2.632   7.078  0.00  0.00    +0.000 C 
ATOM     12  C   UNL     1      46.821   4.063   7.605  0.00  0.00    +0.000 C 
ATOM     13  C   UNL     1      45.401   4.367   8.082  0.00  0.00    +0.000 C 
BRANCH  11  14
ATOM     14  N   UNL     1      46.288   2.465   5.790  0.00  0.00    +0.000 NA
ATOM     15  H   UNL     1      46.607   1.619   5.321  0.00  0.00    +0.000 HD
ATOM     16  H   UNL     1      46.535   3.238   5.171  0.00  0.00    +0.000 HD
ENDBRANCH  11  14
ENDBRANCH   6   8
BRANCH   1  17
ATOM     17  C   UNL     1      45.013   6.679  12.733  0.00  0.00    +0.000 C 
BRANCH  17  22
ATOM     18  C   UNL     1      49.642   8.117  11.949  0.00  0.00    +0.000 A 
ATOM     19  C   UNL     1      48.409   8.666  11.702  0.00  0.00    +0.000 A 
ATOM     20  N   UNL     1      47.255   8.180  12.214  0.00  0.00    +0.000 NA
ATOM     21  C   UNL     1      47.338   7.094  13.000  0.00  0.00    +0.000 A 
ATOM     22  N   UNL     1      46.193   6.549  13.562  0.00  0.00    +0.000 N 
ATOM     23  N   UNL     1      48.493   6.475  13.284  0.00  0.00    +0.000 NA
ATOM     24  C   UNL     1      49.625   6.999  12.749  0.00  0.00    +0.000 A 
ATOM     25  H   UNL     1      46.421   5.604  13.848  0.00  0.00    +0.000 HD
BRANCH  18  27
ATOM     26  N   UNL     1      51.964   7.768  11.314  0.00  0.00    +0.000 N 
ATOM     27  C   UNL     1      50.899   8.623  11.378  0.00  0.00    +0.000 C 
ATOM     28  O   UNL     1      50.982   9.769  10.958  0.00  0.00    +0.000 OA
ATOM     29  H   UNL     1      52.793   8.121  10.847  0.00  0.00    +0.000 HD
ATOM     30  H   UNL     1      51.887   6.765  11.412  0.00  0.00    +0.000 HD
ENDBRANCH  18  27
ENDBRANCH  17  22
ENDBRANCH   1  17
TORSDOF 5
ENDMDL
MODEL 6
REMARK VINA RESULT:    -6.480      4.319      6.264
REMARK INTER + INTRA:          -8.768
REMARK INTER:                  -7.965
REMARK INTRA:                  -0.803
REMARK UNBOUND:                -0.582
REMARK  Name = 
REMARK  5 active torsions:
REMARK  status: ('A' for Active; 'I' for Inactive)
REMARK    1  A    between atoms: C_2  and  C_4
REMARK    2  A    between atoms: N_8  and  C_9
REMARK    3  A    between atoms: C_9  and  C_10
REMARK    4  A    between atoms: C_15  and  N_16
REMARK    5  A    between atoms: C_19  and  N_20
REMARK                            x       y       z     vdW  Elec       q    Type
REMARK                         _______ _______ _______ _____ _____    ______ ____
ROOT
ATOM      1  C   UNL     1      48.707   7.324  14.460  0.00  0.00    +0.000 A 
ATOM      2  C   UNL     1      48.958   8.669  14.753  0.00  0.00    +0.000 A 
ATOM      3  C   UNL     1      49.115   9.077  16.075  0.00  0.00    +0.000 A 
ATOM      4  C   UNL     1      49.023   8.145  17.107  0.00  0.00    +0.000 A 
ATOM      5  F   UNL     1      49.228   8.592  18.357  0.00  0.00    +0.000 F 
ATOM      6  C   UNL     1      48.773   6.780  16.869  0.00  0.00    +0.000 A 
ATOM      7  C   UNL     1      48.631   6.397  15.520  0.00  0.00    +0.000 A 
ENDROOT
BRANCH   6   8
ATOM      8  N   UNL     1      48.644   5.846  17.887  0.00  0.00    +0.000 N 
ATOM      9  C   UNL     1      47.393   5.694  18.632  0.00  0.00    +0.000 C 
ATOM     10  C   UNL     1      47.620   5.948  20.119  0.00  0.00    +0.000 C 
ATOM     11  C   UNL     1      48.776   5.112  20.681  0.00  0.00    +0.000 C 
ATOM     12  C   UNL     1      50.034   5.324  19.832  0.00  0.00    +0.000 C 
ATOM     13  C   UNL     1      49.793   5.062  18.345  0.00  0.00    +0.000 C 
BRANCH  11  14
ATOM     14  N   UNL     1      48.437   3.685  20.779  0.00  0.00    +0.000 NA
ATOM     15  H   UNL     1      49.059   3.214  21.434  0.00  0.00    +0.000 HD
ATOM     16  H   UNL     1      48.590   3.237  19.876  0.00  0.00    +0.000 HD
ENDBRANCH  11  14
ENDBRANCH   6   8
BRANCH   1  17
ATOM     17  C   UNL     1      48.512   6.883  13.025  0.00  0.00    +0.000 C 
BRANCH  17  22
ATOM     18  C   UNL     1      44.814   4.039  11.488  0.00  0.00    +0.000 A 
ATOM     19  C   UNL     1      45.751   3.943  12.487  0.00  0.00    +0.000 A 
ATOM     20  N   UNL     1      46.545   4.969  12.871  0.00  0.00    +0.000 NA
ATOM     21  C   UNL     1      46.401   6.137  12.223  0.00  0.00    +0.000 A 
ATOM     22  N   UNL     1      47.181   7.230  12.572  0.00  0.00    +0.000 N 
ATOM     23  N   UNL     1      45.529   6.323  11.223  0.00  0.00    +0.000 NA
ATOM     24  C   UNL     1      44.752   5.266  10.873  0.00  0.00    +0.000 A 
ATOM     25  H   UNL     1      47.142   7.884  11.799  0.00  0.00    +0.000 HD
BRANCH  18  27
ATOM     26  N   UNL     1      44.367   2.200   9.960  0.00  0.00    +0.000 N 
ATOM     27  C   UNL     1      43.963   2.925  11.048  0.00  0.00    +0.000 C 
ATOM     28  O   UNL     1      42.934   2.644  11.647  0.00  0.00    +0.000 OA
ATOM     29  H   UNL     1      43.800   1.392   9.726  0.00  0.00    +0.000 HD
ATOM     30  H   UNL     1      45.306   2.224   9.586  0.00  0.00    +0.000 HD
ENDBRANCH  18  27
ENDBRANCH  17  22
ENDBRANCH   1  17
TORSDOF 5
ENDMDL
MODEL 7
REMARK VINA RESULT:    -6.441      3.799      6.372
REMARK INTER + INTRA:          -8.718
REMARK INTER:                  -8.109
REMARK INTRA:                  -0.610
REMARK UNBOUND:                -0.582
REMARK  Name = 
REMARK  5 active torsions:
REMARK  status: ('A' for Active; 'I' for Inactive)
REMARK    1  A    between atoms: C_2  and  C_4
REMARK    2  A    between atoms: N_8  and  C_9
REMARK    3  A    between atoms: C_9  and  C_10
REMARK    4  A    between atoms: C_15  and  N_16
REMARK    5  A    between atoms: C_19  and  N_20
REMARK                            x       y       z     vdW  Elec       q    Type
REMARK                         _______ _______ _______ _____ _____    ______ ____
ROOT
ATOM      1  C   UNL     1      49.164   7.780  14.143  0.00  0.00    +0.000 A 
ATOM      2  C   UNL     1      50.458   8.304  14.054  0.00  0.00    +0.000 A 
ATOM      3  C   UNL     1      51.425   7.937  14.986  0.00  0.00    +0.000 A 
ATOM      4  C   UNL     1      51.102   7.046  16.009  0.00  0.00    +0.000 A 
ATOM      5  F   UNL     1      52.090   6.696  16.851  0.00  0.00    +0.000 F 
ATOM      6  C   UNL     1      49.817   6.489  16.145  0.00  0.00    +0.000 A 
ATOM      7  C   UNL     1      48.865   6.871  15.178  0.00  0.00    +0.000 A 
ENDROOT
BRANCH   6   8
ATOM      8  N   UNL     1      49.471   5.628  17.177  0.00  0.00    +0.000 N 
ATOM      9  C   UNL     1      50.254   4.425  17.464  0.00  0.00    +0.000 C 
ATOM     10  C   UNL     1      49.383   3.177  17.341  0.00  0.00    +0.000 C 
ATOM     11  C   UNL     1      48.095   3.285  18.166  0.00  0.00    +0.000 C 
ATOM     12  C   UNL     1      47.353   4.578  17.809  0.00  0.00    +0.000 C 
ATOM     13  C   UNL     1      48.236   5.819  17.940  0.00  0.00    +0.000 C 
BRANCH  11  14
ATOM     14  N   UNL     1      48.348   3.201  19.611  0.00  0.00    +0.000 NA
ATOM     15  H   UNL     1      48.456   4.132  20.010  0.00  0.00    +0.000 HD
ATOM     16  H   UNL     1      49.234   2.722  19.775  0.00  0.00    +0.000 HD
ENDBRANCH  11  14
ENDBRANCH   6   8
BRANCH   1  17
ATOM     17  C   UNL     1      48.105   8.198  13.144  0.00  0.00    +0.000 C 
BRANCH  17  22
ATOM     18  C   UNL     1      44.630   5.292  11.247  0.00  0.00    +0.000 A 
ATOM     19  C   UNL     1      45.997   5.223  11.339  0.00  0.00    +0.000 A 
ATOM     20  N   UNL     1      46.740   6.046  12.114  0.00  0.00    +0.000 NA
ATOM     21  C   UNL     1      46.086   6.984  12.820  0.00  0.00    +0.000 A 
ATOM     22  N   UNL     1      46.789   7.856  13.640  0.00  0.00    +0.000 N 
ATOM     23  N   UNL     1      44.756   7.143  12.783  0.00  0.00    +0.000 NA
ATOM     24  C   UNL     1      44.052   6.293  11.992  0.00  0.00    +0.000 A 
ATOM     25  H   UNL     1      46.178   8.642  13.832  0.00  0.00    +0.000 HD
BRANCH  18  27
ATOM     26  N   UNL     1      44.004   4.491   9.037  0.00  0.00    +0.000 N 
ATOM     27  C   UNL     1      43.816   4.419  10.390  0.00  0.00    +0.000 C 
ATOM     28  O   UNL     1      43.008   3.638  10.875  0.00  0.00    +0.000 OA
ATOM     29  H   UNL     1      43.484   3.824   8.477  0.00  0.00    +0.000 HD
ATOM     30  H   UNL     1      44.808   4.923   8.604  0.00  0.00    +0.000 HD
ENDBRANCH  18  27
ENDBRANCH  17  22
ENDBRANCH   1  17
TORSDOF 5
ENDMDL
MODEL 8
REMARK VINA RESULT:    -6.422      4.918      6.166
REMARK INTER + INTRA:          -8.693
REMARK INTER:                  -8.018
REMARK INTRA:                  -0.675
REMARK UNBOUND:                -0.582
REMARK  Name = 
REMARK  5 active torsions:
REMARK  status: ('A' for Active; 'I' for Inactive)
REMARK    1  A    between atoms: C_2  and  C_4
REMARK    2  A    between atoms: N_8  and  C_9
REMARK    3  A    between atoms: C_9  and  C_10
REMARK    4  A    between atoms: C_15  and  N_16
REMARK    5  A    between atoms: C_19  and  N_20
REMARK                            x       y       z     vdW  Elec       q    Type
REMARK                         _______ _______ _______ _____ _____    ______ ____
ROOT
ATOM      1  C   UNL     1      47.670   4.004  16.683  0.00  0.00    +0.000 A 
ATOM      2  C   UNL     1      47.947   2.914  17.515  0.00  0.00    +0.000 A 
ATOM      3  C   UNL     1      48.442   3.124  18.799  0.00  0.00    +0.000 A 
ATOM      4  C   UNL     1      48.661   4.423  19.256  0.00  0.00    +0.000 A 
ATOM      5  F   UNL     1      49.097   4.562  20.519  0.00  0.00    +0.000 F 
ATOM      6  C   UNL     1      48.400   5.555  18.462  0.00  0.00    +0.000 A 
ATOM      7  C   UNL     1      47.888   5.308  17.172  0.00  0.00    +0.000 A 
ENDROOT
BRANCH   6   8
ATOM      8  N   UNL     1      48.645   6.852  18.889  0.00  0.00    +0.000 N 
ATOM      9  C   UNL     1      50.009   7.345  19.091  0.00  0.00    +0.000 C 
ATOM     10  C   UNL     1      50.208   7.793  20.537  0.00  0.00    +0.000 C 
ATOM     11  C   UNL     1      49.124   8.776  20.995  0.00  0.00    +0.000 C 
ATOM     12  C   UNL     1      47.736   8.181  20.732  0.00  0.00    +0.000 C 
ATOM     13  C   UNL     1      47.549   7.741  19.280  0.00  0.00    +0.000 C 
BRANCH  11  14
ATOM     14  N   UNL     1      49.263  10.096  20.364  0.00  0.00    +0.000 NA
ATOM     15  H   UNL     1      48.357  10.440  20.050  0.00  0.00    +0.000 HD
ATOM     16  H   UNL     1      49.837  10.012  19.524  0.00  0.00    +0.000 HD
ENDBRANCH  11  14
ENDBRANCH   6   8
BRANCH   1  17
ATOM     17  C   UNL     1      47.156   3.776  15.277  0.00  0.00    +0.000 C 
BRANCH  17  22
ATOM     18  C   UNL     1      45.489   4.812  10.774  0.00  0.00    +0.000 A 
ATOM     19  C   UNL     1      45.343   3.753  11.635  0.00  0.00    +0.000 A 
ATOM     20  N   UNL     1      45.719   3.783  12.934  0.00  0.00    +0.000 NA
ATOM     21  C   UNL     1      46.272   4.920  13.389  0.00  0.00    +0.000 A 
ATOM     22  N   UNL     1      46.674   5.019  14.714  0.00  0.00    +0.000 N 
ATOM     23  N   UNL     1      46.474   6.001  12.623  0.00  0.00    +0.000 NA
ATOM     24  C   UNL     1      46.079   5.924  11.326  0.00  0.00    +0.000 A 
ATOM     25  H   UNL     1      47.316   5.801  14.773  0.00  0.00    +0.000 HD
BRANCH  18  27
ATOM     26  N   UNL     1      43.826   4.414   9.045  0.00  0.00    +0.000 N 
ATOM     27  C   UNL     1      45.106   4.781   9.356  0.00  0.00    +0.000 C 
ATOM     28  O   UNL     1      45.904   5.092   8.482  0.00  0.00    +0.000 OA
ATOM     29  H   UNL     1      43.568   4.475   8.066  0.00  0.00    +0.000 HD
ATOM     30  H   UNL     1      43.070   4.388   9.715  0.00  0.00    +0.000 HD
ENDBRANCH  18  27
ENDBRANCH  17  22
ENDBRANCH   1  17
TORSDOF 5
ENDMDL
MODEL 9
REMARK VINA RESULT:    -6.200      5.471      6.943
REMARK INTER + INTRA:          -8.414
REMARK INTER:                  -7.751
REMARK INTRA:                  -0.663
REMARK UNBOUND:                -0.582
REMARK  Name = 
REMARK  5 active torsions:
REMARK  status: ('A' for Active; 'I' for Inactive)
REMARK    1  A    between atoms: C_2  and  C_4
REMARK    2  A    between atoms: N_8  and  C_9
REMARK    3  A    between atoms: C_9  and  C_10
REMARK    4  A    between atoms: C_15  and  N_16
REMARK    5  A    between atoms: C_19  and  N_20
REMARK                            x       y       z     vdW  Elec       q    Type
REMARK                         _______ _______ _______ _____ _____    ______ ____
ROOT
ATOM      1  C   UNL     1      48.502   3.835  16.606  0.00  0.00    +0.000 A 
ATOM      2  C   UNL     1      49.038   2.548  16.722  0.00  0.00    +0.000 A 
ATOM      3  C   UNL     1      50.247   2.353  17.385  0.00  0.00    +0.000 A 
ATOM      4  C   UNL     1      50.923   3.441  17.934  0.00  0.00    +0.000 A 
ATOM      5  F   UNL     1      52.061   3.183  18.600  0.00  0.00    +0.000 F 
ATOM      6  C   UNL     1      50.429   4.756  17.847  0.00  0.00    +0.000 A 
ATOM      7  C   UNL     1      49.198   4.919  17.181  0.00  0.00    +0.000 A 
ENDROOT
BRANCH   6   8
ATOM      8  N   UNL     1      51.107   5.854  18.358  0.00  0.00    +0.000 N 
ATOM      9  C   UNL     1      51.923   6.716  17.501  0.00  0.00    +0.000 C 
ATOM     10  C   UNL     1      53.371   6.734  17.982  0.00  0.00    +0.000 C 
ATOM     11  C   UNL     1      53.483   7.068  19.474  0.00  0.00    +0.000 C 
ATOM     12  C   UNL     1      52.587   6.126  20.288  0.00  0.00    +0.000 C 
ATOM     13  C   UNL     1      51.140   6.121  19.797  0.00  0.00    +0.000 C 
BRANCH  11  14
ATOM     14  N   UNL     1      53.168   8.475  19.758  0.00  0.00    +0.000 NA
ATOM     15  H   UNL     1      54.019   9.035  19.775  0.00  0.00    +0.000 HD
ATOM     16  H   UNL     1      52.763   8.551  20.691  0.00  0.00    +0.000 HD
ENDBRANCH  11  14
ENDBRANCH   6   8
BRANCH   1  17
ATOM     17  C   UNL     1      47.200   4.052  15.864  0.00  0.00    +0.000 C 
BRANCH  17  22
ATOM     18  C   UNL     1      44.546   4.708  11.783  0.00  0.00    +0.000 A 
ATOM     19  C   UNL     1      45.140   5.549  12.691  0.00  0.00    +0.000 A 
ATOM     20  N   UNL     1      46.023   5.138  13.631  0.00  0.00    +0.000 NA
ATOM     21  C   UNL     1      46.317   3.827  13.668  0.00  0.00    +0.000 A 
ATOM     22  N   UNL     1      47.219   3.341  14.603  0.00  0.00    +0.000 N 
ATOM     23  N   UNL     1      45.775   2.925  12.838  0.00  0.00    +0.000 NA
ATOM     24  C   UNL     1      44.896   3.385  11.911  0.00  0.00    +0.000 A 
ATOM     25  H   UNL     1      47.072   2.340  14.667  0.00  0.00    +0.000 HD
BRANCH  18  27
ATOM     26  N   UNL     1      43.739   4.707   9.489  0.00  0.00    +0.000 N 
ATOM     27  C   UNL     1      43.569   5.141  10.775  0.00  0.00    +0.000 C 
ATOM     28  O   UNL     1      42.623   5.854  11.082  0.00  0.00    +0.000 OA
ATOM     29  H   UNL     1      43.008   4.959   8.832  0.00  0.00    +0.000 HD
ATOM     30  H   UNL     1      44.340   3.937   9.231  0.00  0.00    +0.000 HD
ENDBRANCH  18  27
ENDBRANCH  17  22
ENDBRANCH   1  17
TORSDOF 5
ENDMDL
