MODEL 1
REMARK VINA RESULT:    -8.299      0.000      0.000
REMARK INTER + INTRA:         -12.879
REMARK INTER:                 -11.695
REMARK INTRA:                  -1.184
REMARK UNBOUND:                -1.184
REMARK  Name = 
REMARK  9 active torsions:
REMARK  status: ('A' for Active; 'I' for Inactive)
REMARK    1  A    between atoms: C_1  and  C_2
REMARK    2  A    between atoms: C_4  and  C_5
REMARK    3  A    between atoms: C_5  and  C_6
REMARK    4  A    between atoms: C_5  and  C_7
REMARK    5  A    between atoms: C_7  and  N_8
REMARK    6  A    between atoms: N_8  and  C_9
REMARK    7  A    between atoms: C_14  and  C_15
REMARK    8  A    between atoms: C_19  and  C_20
REMARK    9  A    between atoms: C_26  and  C_27
REMARK                            x       y       z     vdW  Elec       q    Type
REMARK                         _______ _______ _______ _____ _____    ______ ____
ROOT
ATOM      1  N   UNL     1      43.607   5.947  11.971  0.00  0.00    +0.000 N 
ATOM      2  H   UNL     1      42.951   6.714  12.097  0.00  0.00    +0.000 HD
ENDROOT
BRANCH   1   3
ATOM      3  C   UNL     1      44.929   6.277  12.245  0.00  0.00    +0.000 A 
ATOM      4  C   UNL     1      45.704   7.076  11.412  0.00  0.00    +0.000 A 
ATOM      5  C   UNL     1      47.049   7.289  11.686  0.00  0.00    +0.000 A 
ATOM      6  C   UNL     1      47.663   6.672  12.780  0.00  0.00    +0.000 A 
ATOM      7 CL   UNL     1      49.370   6.956  12.890  0.00  0.00    +0.000 Cl
ATOM      8  C   UNL     1      46.928   5.847  13.661  0.00  0.00    +0.000 A 
ATOM      9  C   UNL     1      45.556   5.673  13.349  0.00  0.00    +0.000 A 
BRANCH   8  10
ATOM     10  C   UNL     1      47.487   5.159  14.862  0.00  0.00    +0.000 A 
ATOM     11  C   UNL     1      47.299   3.781  15.075  0.00  0.00    +0.000 A 
ATOM     12  C   UNL     1      47.819   3.175  16.212  0.00  0.00    +0.000 A 
ATOM     13  N   UNL     1      48.533   3.827  17.146  0.00  0.00    +0.000 NA
ATOM     14  C   UNL     1      48.715   5.151  16.945  0.00  0.00    +0.000 A 
ATOM     15  C   UNL     1      48.195   5.843  15.857  0.00  0.00    +0.000 A 
BRANCH  14  16
ATOM     16  C   UNL     1      49.499   5.845  17.926  0.00  0.00    +0.000 C 
ATOM     17  N   UNL     1      50.129   6.449  18.693  0.00  0.00    +0.000 NA
ENDBRANCH  14  16
ENDBRANCH   8  10
ENDBRANCH   1   3
BRANCH   1  18
ATOM     18  C   UNL     1      43.281   4.984  10.919  0.00  0.00    +0.000 C 
BRANCH  18  19
ATOM     19  C   UNL     1      44.205   3.744  10.977  0.00  0.00    +0.000 C 
ATOM     20  C   UNL     1      43.375   2.537  11.449  0.00  0.00    +0.000 C 
BRANCH  19  24
ATOM     21  C   UNL     1      46.434   0.476   7.819  0.00  0.00    +0.000 C 
ATOM     22  C   UNL     1      46.096   1.891   8.181  0.00  0.00    +0.000 A 
ATOM     23  C   UNL     1      45.363   2.157   9.352  0.00  0.00    +0.000 A 
ATOM     24  C   UNL     1      45.002   3.466   9.705  0.00  0.00    +0.000 A 
ATOM     25  C   UNL     1      45.457   4.473   8.856  0.00  0.00    +0.000 A 
ATOM     26  N   UNL     1      46.167   4.272   7.725  0.00  0.00    +0.000 NA
ATOM     27  C   UNL     1      46.473   2.984   7.399  0.00  0.00    +0.000 A 
BRANCH  27  28
ATOM     28  C   UNL     1      47.259   2.850   6.114  0.00  0.00    +0.000 C 
ATOM     29  N   UNL     1      48.614   2.687   6.289  0.00  0.00    +0.000 N 
ATOM     30  O   UNL     1      46.776   2.889   4.994  0.00  0.00    +0.000 OA
ATOM     31  H   UNL     1      48.992   2.643   7.230  0.00  0.00    +0.000 HD
ATOM     32  H   UNL     1      49.207   2.577   5.482  0.00  0.00    +0.000 HD
ENDBRANCH  27  28
ENDBRANCH  19  24
ENDBRANCH  18  19
ENDBRANCH   1  18
TORSDOF 7
ENDMDL
MODEL 2
REMARK VINA RESULT:    -8.211      2.428      4.280
REMARK INTER + INTRA:         -12.754
REMARK INTER:                 -11.721
REMARK INTRA:                  -1.033
REMARK UNBOUND:                -1.184
REMARK  Name = 
REMARK  9 active torsions:
REMARK  status: ('A' for Active; 'I' for Inactive)
REMARK    1  A    between atoms: C_1  and  C_2
REMARK    2  A    between atoms: C_4  and  C_5
REMARK    3  A    between atoms: C_5  and  C_6
REMARK    4  A    between atoms: C_5  and  C_7
REMARK    5  A    between atoms: C_7  and  N_8
REMARK    6  A    between atoms: N_8  and  C_9
REMARK    7  A    between atoms: C_14  and  C_15
REMARK    8  A    between atoms: C_19  and  C_20
REMARK    9  A    between atoms: C_26  and  C_27
REMARK                            x       y       z     vdW  Elec       q    Type
REMARK                         _______ _______ _______ _____ _____    ______ ____
ROOT
ATOM      1  N   UNL     1      45.621   2.985  12.111  0.00  0.00    +0.000 N 
ATOM      2  H   UNL     1      46.022   2.051  12.079  0.00  0.00    +0.000 HD
ENDROOT
BRANCH   1   3
ATOM      3  C   UNL     1      46.350   3.892  12.871  0.00  0.00    +0.000 A 
ATOM      4  C   UNL     1      46.958   3.561  14.078  0.00  0.00    +0.000 A 
ATOM      5  C   UNL     1      47.588   4.534  14.844  0.00  0.00    +0.000 A 
ATOM      6  C   UNL     1      47.590   5.872  14.441  0.00  0.00    +0.000 A 
ATOM      7 CL   UNL     1      48.314   6.957  15.582  0.00  0.00    +0.000 Cl
ATOM      8  C   UNL     1      46.987   6.270  13.227  0.00  0.00    +0.000 A 
ATOM      9  C   UNL     1      46.370   5.240  12.472  0.00  0.00    +0.000 A 
BRANCH   8  10
ATOM     10  C   UNL     1      46.950   7.667  12.702  0.00  0.00    +0.000 A 
ATOM     11  C   UNL     1      48.120   8.330  12.290  0.00  0.00    +0.000 A 
ATOM     12  C   UNL     1      48.053   9.637  11.822  0.00  0.00    +0.000 A 
ATOM     13  N   UNL     1      46.907  10.332  11.709  0.00  0.00    +0.000 NA
ATOM     14  C   UNL     1      45.781   9.698  12.105  0.00  0.00    +0.000 A 
ATOM     15  C   UNL     1      45.765   8.408  12.622  0.00  0.00    +0.000 A 
BRANCH  14  16
ATOM     16  C   UNL     1      44.553  10.427  11.960  0.00  0.00    +0.000 C 
ATOM     17  N   UNL     1      43.550  10.990  11.800  0.00  0.00    +0.000 NA
ENDBRANCH  14  16
ENDBRANCH   8  10
ENDBRANCH   1   3
BRANCH   1  18
ATOM     18  C   UNL     1      44.162   3.066  12.050  0.00  0.00    +0.000 C 
BRANCH  18  19
ATOM     19  C   UNL     1      43.678   3.591  10.678  0.00  0.00    +0.000 C 
ATOM     20  C   UNL     1      43.267   5.066  10.836  0.00  0.00    +0.000 C 
BRANCH  19  24
ATOM     21  C   UNL     1      46.448   0.442   7.846  0.00  0.00    +0.000 C 
ATOM     22  C   UNL     1      45.992   1.836   8.150  0.00  0.00    +0.000 A 
ATOM     23  C   UNL     1      45.110   2.066   9.222  0.00  0.00    +0.000 A 
ATOM     24  C   UNL     1      44.637   3.354   9.515  0.00  0.00    +0.000 A 
ATOM     25  C   UNL     1      45.136   4.381   8.717  0.00  0.00    +0.000 A 
ATOM     26  N   UNL     1      45.987   4.216   7.682  0.00  0.00    +0.000 NA
ATOM     27  C   UNL     1      46.400   2.946   7.408  0.00  0.00    +0.000 A 
BRANCH  27  28
ATOM     28  C   UNL     1      47.342   2.851   6.229  0.00  0.00    +0.000 C 
ATOM     29  N   UNL     1      48.663   2.664   6.568  0.00  0.00    +0.000 N 
ATOM     30  O   UNL     1      47.006   2.940   5.059  0.00  0.00    +0.000 OA
ATOM     31  H   UNL     1      48.918   2.579   7.546  0.00  0.00    +0.000 HD
ATOM     32  H   UNL     1      49.352   2.577   5.838  0.00  0.00    +0.000 HD
ENDBRANCH  27  28
ENDBRANCH  19  24
ENDBRANCH  18  19
ENDBRANCH   1  18
TORSDOF 7
ENDMDL
MODEL 3
REMARK VINA RESULT:    -8.130      1.402      2.053
REMARK INTER + INTRA:         -12.641
REMARK INTER:                 -11.755
REMARK INTRA:                  -0.885
REMARK UNBOUND:                -1.184
REMARK  Name = 
REMARK  9 active torsions:
REMARK  status: ('A' for Active; 'I' for Inactive)
REMARK    1  A    between atoms: C_1  and  C_2
REMARK    2  A    between atoms: C_4  and  C_5
REMARK    3  A    between atoms: C_5  and  C_6
REMARK    4  A    between atoms: C_5  and  C_7
REMARK    5  A    between atoms: C_7  and  N_8
REMARK    6  A    between atoms: N_8  and  C_9
REMARK    7  A    between atoms: C_14  and  C_15
REMARK    8  A    between atoms: C_19  and  C_20
REMARK    9  A    between atoms: C_26  and  C_27
REMARK                            x       y       z     vdW  Elec       q    Type
REMARK                         _______ _______ _______ _____ _____    ______ ____
ROOT
ATOM      1  N   UNL     1      44.453   4.233  12.991  0.00  0.00    +0.000 N 
ATOM      2  H   UNL     1      43.609   4.786  12.866  0.00  0.00    +0.000 HD
ENDROOT
BRANCH   1   3
ATOM      3  C   UNL     1      45.545   4.956  13.456  0.00  0.00    +0.000 A 
ATOM      4  C   UNL     1      46.089   6.038  12.772  0.00  0.00    +0.000 A 
ATOM      5  C   UNL     1      47.243   6.660  13.235  0.00  0.00    +0.000 A 
ATOM      6  C   UNL     1      47.905   6.186  14.371  0.00  0.00    +0.000 A 
ATOM      7 CL   UNL     1      49.391   7.008  14.722  0.00  0.00    +0.000 Cl
ATOM      8  C   UNL     1      47.403   5.088  15.105  0.00  0.00    +0.000 A 
ATOM      9  C   UNL     1      46.215   4.497  14.604  0.00  0.00    +0.000 A 
BRANCH   8  10
ATOM     10  C   UNL     1      48.026   4.519  16.336  0.00  0.00    +0.000 A 
ATOM     11  C   UNL     1      47.683   4.986  17.618  0.00  0.00    +0.000 A 
ATOM     12  C   UNL     1      48.294   4.446  18.743  0.00  0.00    +0.000 A 
ATOM     13  N   UNL     1      49.206   3.458  18.696  0.00  0.00    +0.000 NA
ATOM     14  C   UNL     1      49.537   3.009  17.467  0.00  0.00    +0.000 A 
ATOM     15  C   UNL     1      49.006   3.521  16.289  0.00  0.00    +0.000 A 
BRANCH  14  16
ATOM     16  C   UNL     1      50.490   1.936  17.414  0.00  0.00    +0.000 C 
ATOM     17  N   UNL     1      51.250   1.057  17.421  0.00  0.00    +0.000 NA
ENDBRANCH  14  16
ENDBRANCH   8  10
ENDBRANCH   1   3
BRANCH   1  18
ATOM     18  C   UNL     1      44.638   3.115  12.065  0.00  0.00    +0.000 C 
BRANCH  18  19
ATOM     19  C   UNL     1      43.973   3.395  10.696  0.00  0.00    +0.000 C 
ATOM     20  C   UNL     1      43.320   4.788  10.745  0.00  0.00    +0.000 C 
BRANCH  19  24
ATOM     21  C   UNL     1      46.675   0.349   7.689  0.00  0.00    +0.000 C 
ATOM     22  C   UNL     1      46.197   1.728   8.031  0.00  0.00    +0.000 A 
ATOM     23  C   UNL     1      45.367   1.923   9.150  0.00  0.00    +0.000 A 
ATOM     24  C   UNL     1      44.875   3.195   9.481  0.00  0.00    +0.000 A 
ATOM     25  C   UNL     1      45.302   4.243   8.668  0.00  0.00    +0.000 A 
ATOM     26  N   UNL     1      46.101   4.110   7.587  0.00  0.00    +0.000 NA
ATOM     27  C   UNL     1      46.534   2.855   7.279  0.00  0.00    +0.000 A 
BRANCH  27  28
ATOM     28  C   UNL     1      47.414   2.797   6.051  0.00  0.00    +0.000 C 
ATOM     29  N   UNL     1      48.750   2.597   6.315  0.00  0.00    +0.000 N 
ATOM     30  O   UNL     1      47.019   2.923   4.904  0.00  0.00    +0.000 OA
ATOM     31  H   UNL     1      49.055   2.480   7.276  0.00  0.00    +0.000 HD
ATOM     32  H   UNL     1      49.401   2.533   5.549  0.00  0.00    +0.000 HD
ENDBRANCH  27  28
ENDBRANCH  19  24
ENDBRANCH  18  19
ENDBRANCH   1  18
TORSDOF 7
ENDMDL
MODEL 4
REMARK VINA RESULT:    -7.875      3.069      7.968
REMARK INTER + INTRA:         -12.281
REMARK INTER:                 -11.458
REMARK INTRA:                  -0.823
REMARK UNBOUND:                -1.184
REMARK  Name = 
REMARK  9 active torsions:
REMARK  status: ('A' for Active; 'I' for Inactive)
REMARK    1  A    between atoms: C_1  and  C_2
REMARK    2  A    between atoms: C_4  and  C_5
REMARK    3  A    between atoms: C_5  and  C_6
REMARK    4  A    between atoms: C_5  and  C_7
REMARK    5  A    between atoms: C_7  and  N_8
REMARK    6  A    between atoms: N_8  and  C_9
REMARK    7  A    between atoms: C_14  and  C_15
REMARK    8  A    between atoms: C_19  and  C_20
REMARK    9  A    between atoms: C_26  and  C_27
REMARK                            x       y       z     vdW  Elec       q    Type
REMARK                         _______ _______ _______ _____ _____    ______ ____
ROOT
ATOM      1  N   UNL     1      44.809   7.678  12.054  0.00  0.00    +0.000 N 
ATOM      2  H   UNL     1      44.041   8.339  12.149  0.00  0.00    +0.000 HD
ENDROOT
BRANCH   1   3
ATOM      3  C   UNL     1      44.409   6.378  11.766  0.00  0.00    +0.000 A 
ATOM      4  C   UNL     1      43.541   5.651  12.574  0.00  0.00    +0.000 A 
ATOM      5  C   UNL     1      43.257   4.321  12.290  0.00  0.00    +0.000 A 
ATOM      6  C   UNL     1      43.868   3.672  11.213  0.00  0.00    +0.000 A 
ATOM      7 CL   UNL     1      43.487   1.986  11.090  0.00  0.00    +0.000 Cl
ATOM      8  C   UNL     1      44.760   4.358  10.359  0.00  0.00    +0.000 A 
ATOM      9  C   UNL     1      45.007   5.717  10.679  0.00  0.00    +0.000 A 
BRANCH   8  10
ATOM     10  C   UNL     1      45.449   3.760   9.177  0.00  0.00    +0.000 A 
ATOM     11  C   UNL     1      45.940   4.560   8.128  0.00  0.00    +0.000 A 
ATOM     12  C   UNL     1      46.561   3.971   7.035  0.00  0.00    +0.000 A 
ATOM     13  N   UNL     1      46.755   2.645   6.910  0.00  0.00    +0.000 NA
ATOM     14  C   UNL     1      46.284   1.875   7.914  0.00  0.00    +0.000 A 
ATOM     15  C   UNL     1      45.615   2.379   9.023  0.00  0.00    +0.000 A 
BRANCH  14  16
ATOM     16  C   UNL     1      46.513   0.463   7.797  0.00  0.00    +0.000 C 
ATOM     17  N   UNL     1      46.748  -0.671   7.702  0.00  0.00    +0.000 NA
ENDBRANCH  14  16
ENDBRANCH   8  10
ENDBRANCH   1   3
BRANCH   1  18
ATOM     18  C   UNL     1      45.987   7.930  12.883  0.00  0.00    +0.000 C 
BRANCH  18  19
ATOM     19  C   UNL     1      47.104   6.893  12.617  0.00  0.00    +0.000 C 
ATOM     20  C   UNL     1      48.374   7.643  12.180  0.00  0.00    +0.000 C 
BRANCH  19  24
ATOM     21  C   UNL     1      49.047   5.803  17.161  0.00  0.00    +0.000 C 
ATOM     22  C   UNL     1      48.302   5.359  15.939  0.00  0.00    +0.000 A 
ATOM     23  C   UNL     1      48.072   6.269  14.891  0.00  0.00    +0.000 A 
ATOM     24  C   UNL     1      47.350   5.897  13.747  0.00  0.00    +0.000 A 
ATOM     25  C   UNL     1      46.929   4.570  13.698  0.00  0.00    +0.000 A 
ATOM     26  N   UNL     1      47.129   3.656  14.672  0.00  0.00    +0.000 NA
ATOM     27  C   UNL     1      47.807   4.064  15.783  0.00  0.00    +0.000 A 
BRANCH  27  28
ATOM     28  C   UNL     1      47.976   2.982  16.825  0.00  0.00    +0.000 C 
ATOM     29  N   UNL     1      46.889   2.809  17.650  0.00  0.00    +0.000 N 
ATOM     30  O   UNL     1      48.980   2.303  16.968  0.00  0.00    +0.000 OA
ATOM     31  H   UNL     1      46.059   3.375  17.504  0.00  0.00    +0.000 HD
ATOM     32  H   UNL     1      46.918   2.098  18.364  0.00  0.00    +0.000 HD
ENDBRANCH  27  28
ENDBRANCH  19  24
ENDBRANCH  18  19
ENDBRANCH   1  18
TORSDOF 7
ENDMDL
MODEL 5
REMARK VINA RESULT:    -7.484      1.414      2.015
REMARK INTER + INTRA:         -11.730
REMARK INTER:                 -10.851
REMARK INTRA:                  -0.879
REMARK UNBOUND:                -1.184
REMARK  Name = 
REMARK  9 active torsions:
REMARK  status: ('A' for Active; 'I' for Inactive)
REMARK    1  A    between atoms: C_1  and  C_2
REMARK    2  A    between atoms: C_4  and  C_5
REMARK    3  A    between atoms: C_5  and  C_6
REMARK    4  A    between atoms: C_5  and  C_7
REMARK    5  A    between atoms: C_7  and  N_8
REMARK    6  A    between atoms: N_8  and  C_9
REMARK    7  A    between atoms: C_14  and  C_15
REMARK    8  A    between atoms: C_19  and  C_20
REMARK    9  A    between atoms: C_26  and  C_27
REMARK                            x       y       z     vdW  Elec       q    Type
REMARK                         _______ _______ _______ _____ _____    ______ ____
ROOT
ATOM      1  N   UNL     1      46.038   4.167  12.141  0.00  0.00    +0.000 N 
ATOM      2  H   UNL     1      46.759   3.458  12.255  0.00  0.00    +0.000 HD
ENDROOT
BRANCH   1   3
ATOM      3  C   UNL     1      46.408   5.431  12.582  0.00  0.00    +0.000 A 
ATOM      4  C   UNL     1      45.961   6.607  11.988  0.00  0.00    +0.000 A 
ATOM      5  C   UNL     1      46.443   7.840  12.408  0.00  0.00    +0.000 A 
ATOM      6  C   UNL     1      47.419   7.925  13.406  0.00  0.00    +0.000 A 
ATOM      7 CL   UNL     1      47.987   9.535  13.709  0.00  0.00    +0.000 Cl
ATOM      8  C   UNL     1      47.914   6.766  14.044  0.00  0.00    +0.000 A 
ATOM      9  C   UNL     1      47.380   5.533  13.593  0.00  0.00    +0.000 A 
BRANCH   8  10
ATOM     10  C   UNL     1      48.940   6.753  15.128  0.00  0.00    +0.000 A 
ATOM     11  C   UNL     1      50.214   7.320  14.943  0.00  0.00    +0.000 A 
ATOM     12  C   UNL     1      51.152   7.277  15.967  0.00  0.00    +0.000 A 
ATOM     13  N   UNL     1      50.915   6.733  17.175  0.00  0.00    +0.000 NA
ATOM     14  C   UNL     1      49.692   6.187  17.355  0.00  0.00    +0.000 A 
ATOM     15  C   UNL     1      48.712   6.151  16.371  0.00  0.00    +0.000 A 
BRANCH  14  16
ATOM     16  C   UNL     1      49.426   5.630  18.651  0.00  0.00    +0.000 C 
ATOM     17  N   UNL     1      49.245   5.143  19.690  0.00  0.00    +0.000 NA
ENDBRANCH  14  16
ENDBRANCH   8  10
ENDBRANCH   1   3
BRANCH   1  18
ATOM     18  C   UNL     1      44.654   3.708  12.266  0.00  0.00    +0.000 C 
BRANCH  18  19
ATOM     19  C   UNL     1      43.919   3.742  10.905  0.00  0.00    +0.000 C 
ATOM     20  C   UNL     1      43.131   5.060  10.807  0.00  0.00    +0.000 C 
BRANCH  19  24
ATOM     21  C   UNL     1      46.380   0.495   7.902  0.00  0.00    +0.000 C 
ATOM     22  C   UNL     1      46.001   1.906   8.236  0.00  0.00    +0.000 A 
ATOM     23  C   UNL     1      45.196   2.166   9.361  0.00  0.00    +0.000 A 
ATOM     24  C   UNL     1      44.795   3.471   9.685  0.00  0.00    +0.000 A 
ATOM     25  C   UNL     1      45.286   4.481   8.860  0.00  0.00    +0.000 A 
ATOM     26  N   UNL     1      46.065   4.286   7.774  0.00  0.00    +0.000 NA
ATOM     27  C   UNL     1      46.408   3.001   7.473  0.00  0.00    +0.000 A 
BRANCH  27  28
ATOM     28  C   UNL     1      47.272   2.874   6.239  0.00  0.00    +0.000 C 
ATOM     29  N   UNL     1      48.613   2.705   6.496  0.00  0.00    +0.000 N 
ATOM     30  O   UNL     1      46.859   2.923   5.091  0.00  0.00    +0.000 OA
ATOM     31  H   UNL     1      48.932   2.653   7.458  0.00  0.00    +0.000 HD
ATOM     32  H   UNL     1      49.254   2.599   5.726  0.00  0.00    +0.000 HD
ENDBRANCH  27  28
ENDBRANCH  19  24
ENDBRANCH  18  19
ENDBRANCH   1  18
TORSDOF 7
ENDMDL
MODEL 6
REMARK VINA RESULT:    -7.307      2.907      3.997
REMARK INTER + INTRA:         -11.481
REMARK INTER:                 -10.313
REMARK INTRA:                  -1.168
REMARK UNBOUND:                -1.184
REMARK  Name = 
REMARK  9 active torsions:
REMARK  status: ('A' for Active; 'I' for Inactive)
REMARK    1  A    between atoms: C_1  and  C_2
REMARK    2  A    between atoms: C_4  and  C_5
REMARK    3  A    between atoms: C_5  and  C_6
REMARK    4  A    between atoms: C_5  and  C_7
REMARK    5  A    between atoms: C_7  and  N_8
REMARK    6  A    between atoms: N_8  and  C_9
REMARK    7  A    between atoms: C_14  and  C_15
REMARK    8  A    between atoms: C_19  and  C_20
REMARK    9  A    between atoms: C_26  and  C_27
REMARK                            x       y       z     vdW  Elec       q    Type
REMARK                         _______ _______ _______ _____ _____    ______ ____
ROOT
ATOM      1  N   UNL     1      44.673   6.141  12.690  0.00  0.00    +0.000 N 
ATOM      2  H   UNL     1      43.659   6.206  12.640  0.00  0.00    +0.000 HD
ENDROOT
BRANCH   1   3
ATOM      3  C   UNL     1      45.330   7.354  12.522  0.00  0.00    +0.000 A 
ATOM      4  C   UNL     1      44.675   8.538  12.202  0.00  0.00    +0.000 A 
ATOM      5  C   UNL     1      45.395   9.699  11.948  0.00  0.00    +0.000 A 
ATOM      6  C   UNL     1      46.793   9.693  11.966  0.00  0.00    +0.000 A 
ATOM      7 CL   UNL     1      47.516  11.199  11.504  0.00  0.00    +0.000 Cl
ATOM      8  C   UNL     1      47.514   8.520  12.282  0.00  0.00    +0.000 A 
ATOM      9  C   UNL     1      46.736   7.365  12.550  0.00  0.00    +0.000 A 
BRANCH   8  10
ATOM     10  C   UNL     1      49.002   8.416  12.344  0.00  0.00    +0.000 A 
ATOM     11  C   UNL     1      49.717   8.770  13.502  0.00  0.00    +0.000 A 
ATOM     12  C   UNL     1      51.103   8.676  13.521  0.00  0.00    +0.000 A 
ATOM     13  N   UNL     1      51.836   8.235  12.483  0.00  0.00    +0.000 NA
ATOM     14  C   UNL     1      51.152   7.895  11.369  0.00  0.00    +0.000 A 
ATOM     15  C   UNL     1      49.771   7.997  11.252  0.00  0.00    +0.000 A 
BRANCH  14  16
ATOM     16  C   UNL     1      51.929   7.399  10.269  0.00  0.00    +0.000 C 
ATOM     17  N   UNL     1      52.587   7.038   9.382  0.00  0.00    +0.000 NA
ENDBRANCH  14  16
ENDBRANCH   8  10
ENDBRANCH   1   3
BRANCH   1  18
ATOM     18  C   UNL     1      45.267   4.896  12.202  0.00  0.00    +0.000 C 
BRANCH  18  19
ATOM     19  C   UNL     1      44.387   4.234  11.115  0.00  0.00    +0.000 C 
ATOM     20  C   UNL     1      43.166   5.135  10.857  0.00  0.00    +0.000 C 
BRANCH  19  24
ATOM     21  C   UNL     1      46.211   0.655   8.036  0.00  0.00    +0.000 C 
ATOM     22  C   UNL     1      46.020   2.107   8.351  0.00  0.00    +0.000 A 
ATOM     23  C   UNL     1      45.347   2.486   9.527  0.00  0.00    +0.000 A 
ATOM     24  C   UNL     1      45.121   3.835   9.838  0.00  0.00    +0.000 A 
ATOM     25  C   UNL     1      45.648   4.762   8.940  0.00  0.00    +0.000 A 
ATOM     26  N   UNL     1      46.306   4.452   7.802  0.00  0.00    +0.000 NA
ATOM     27  C   UNL     1      46.479   3.130   7.519  0.00  0.00    +0.000 A 
BRANCH  27  28
ATOM     28  C   UNL     1      47.215   2.874   6.224  0.00  0.00    +0.000 C 
ATOM     29  N   UNL     1      48.566   2.656   6.369  0.00  0.00    +0.000 N 
ATOM     30  O   UNL     1      46.698   2.865   5.118  0.00  0.00    +0.000 OA
ATOM     31  H   UNL     1      48.973   2.654   7.299  0.00  0.00    +0.000 HD
ATOM     32  H   UNL     1      49.126   2.464   5.553  0.00  0.00    +0.000 HD
ENDBRANCH  27  28
ENDBRANCH  19  24
ENDBRANCH  18  19
ENDBRANCH   1  18
TORSDOF 7
ENDMDL
MODEL 7
REMARK VINA RESULT:    -7.038      3.437      7.570
REMARK INTER + INTRA:         -11.102
REMARK INTER:                  -9.101
REMARK INTRA:                  -2.001
REMARK UNBOUND:                -1.184
REMARK  Name = 
REMARK  9 active torsions:
REMARK  status: ('A' for Active; 'I' for Inactive)
REMARK    1  A    between atoms: C_1  and  C_2
REMARK    2  A    between atoms: C_4  and  C_5
REMARK    3  A    between atoms: C_5  and  C_6
REMARK    4  A    between atoms: C_5  and  C_7
REMARK    5  A    between atoms: C_7  and  N_8
REMARK    6  A    between atoms: N_8  and  C_9
REMARK    7  A    between atoms: C_14  and  C_15
REMARK    8  A    between atoms: C_19  and  C_20
REMARK    9  A    between atoms: C_26  and  C_27
REMARK                            x       y       z     vdW  Elec       q    Type
REMARK                         _______ _______ _______ _____ _____    ______ ____
ROOT
ATOM      1  N   UNL     1      48.142   9.741  12.737  0.00  0.00    +0.000 N 
ATOM      2  H   UNL     1      48.178  10.510  13.402  0.00  0.00    +0.000 HD
ENDROOT
BRANCH   1   3
ATOM      3  C   UNL     1      46.891   9.540  12.165  0.00  0.00    +0.000 A 
ATOM      4  C   UNL     1      46.092  10.577  11.695  0.00  0.00    +0.000 A 
ATOM      5  C   UNL     1      44.809  10.325  11.226  0.00  0.00    +0.000 A 
ATOM      6  C   UNL     1      44.277   9.033  11.255  0.00  0.00    +0.000 A 
ATOM      7 CL   UNL     1      42.623   8.934  10.746  0.00  0.00    +0.000 Cl
ATOM      8  C   UNL     1      45.039   7.940  11.723  0.00  0.00    +0.000 A 
ATOM      9  C   UNL     1      46.348   8.243  12.176  0.00  0.00    +0.000 A 
BRANCH   8  10
ATOM     10  C   UNL     1      44.569   6.524  11.778  0.00  0.00    +0.000 A 
ATOM     11  C   UNL     1      43.793   6.047  12.850  0.00  0.00    +0.000 A 
ATOM     12  C   UNL     1      43.384   4.719  12.878  0.00  0.00    +0.000 A 
ATOM     13  N   UNL     1      43.668   3.830  11.909  0.00  0.00    +0.000 NA
ATOM     14  C   UNL     1      44.414   4.285  10.879  0.00  0.00    +0.000 A 
ATOM     15  C   UNL     1      44.898   5.585  10.793  0.00  0.00    +0.000 A 
BRANCH  14  16
ATOM     16  C   UNL     1      44.696   3.346   9.831  0.00  0.00    +0.000 C 
ATOM     17  N   UNL     1      44.875   2.583   8.973  0.00  0.00    +0.000 NA
ENDBRANCH  14  16
ENDBRANCH   8  10
ENDBRANCH   1   3
BRANCH   1  18
ATOM     18  C   UNL     1      49.030   8.609  13.006  0.00  0.00    +0.000 C 
BRANCH  18  19
ATOM     19  C   UNL     1      49.260   8.416  14.524  0.00  0.00    +0.000 C 
ATOM     20  C   UNL     1      48.668   9.626  15.267  0.00  0.00    +0.000 C 
BRANCH  19  24
ATOM     21  C   UNL     1      46.804   4.028  13.949  0.00  0.00    +0.000 C 
ATOM     22  C   UNL     1      47.594   4.957  14.820  0.00  0.00    +0.000 A 
ATOM     23  C   UNL     1      48.026   6.196  14.311  0.00  0.00    +0.000 A 
ATOM     24  C   UNL     1      48.794   7.076  15.087  0.00  0.00    +0.000 A 
ATOM     25  C   UNL     1      49.052   6.668  16.394  0.00  0.00    +0.000 A 
ATOM     26  N   UNL     1      48.657   5.494  16.933  0.00  0.00    +0.000 NA
ATOM     27  C   UNL     1      47.938   4.651  16.138  0.00  0.00    +0.000 A 
BRANCH  27  28
ATOM     28  C   UNL     1      47.545   3.358  16.816  0.00  0.00    +0.000 C 
ATOM     29  N   UNL     1      48.522   2.389  16.804  0.00  0.00    +0.000 N 
ATOM     30  O   UNL     1      46.461   3.144  17.332  0.00  0.00    +0.000 OA
ATOM     31  H   UNL     1      49.421   2.594  16.381  0.00  0.00    +0.000 HD
ATOM     32  H   UNL     1      48.343   1.502  17.248  0.00  0.00    +0.000 HD
ENDBRANCH  27  28
ENDBRANCH  19  24
ENDBRANCH  18  19
ENDBRANCH   1  18
TORSDOF 7
ENDMDL
MODEL 8
REMARK VINA RESULT:    -6.894      4.132      5.783
REMARK INTER + INTRA:         -10.899
REMARK INTER:                  -9.275
REMARK INTRA:                  -1.624
REMARK UNBOUND:                -1.184
REMARK  Name = 
REMARK  9 active torsions:
REMARK  status: ('A' for Active; 'I' for Inactive)
REMARK    1  A    between atoms: C_1  and  C_2
REMARK    2  A    between atoms: C_4  and  C_5
REMARK    3  A    between atoms: C_5  and  C_6
REMARK    4  A    between atoms: C_5  and  C_7
REMARK    5  A    between atoms: C_7  and  N_8
REMARK    6  A    between atoms: N_8  and  C_9
REMARK    7  A    between atoms: C_14  and  C_15
REMARK    8  A    between atoms: C_19  and  C_20
REMARK    9  A    between atoms: C_26  and  C_27
REMARK                            x       y       z     vdW  Elec       q    Type
REMARK                         _______ _______ _______ _____ _____    ______ ____
ROOT
ATOM      1  N   UNL     1      49.572   9.084  14.166  0.00  0.00    +0.000 N 
ATOM      2  H   UNL     1      50.385   8.617  13.770  0.00  0.00    +0.000 HD
ENDROOT
BRANCH   1   3
ATOM      3  C   UNL     1      49.249   8.672  15.453  0.00  0.00    +0.000 A 
ATOM      4  C   UNL     1      49.242   9.528  16.549  0.00  0.00    +0.000 A 
ATOM      5  C   UNL     1      49.008   9.039  17.828  0.00  0.00    +0.000 A 
ATOM      6  C   UNL     1      48.817   7.671  18.048  0.00  0.00    +0.000 A 
ATOM      7 CL   UNL     1      48.665   7.234  19.718  0.00  0.00    +0.000 Cl
ATOM      8  C   UNL     1      48.816   6.752  16.975  0.00  0.00    +0.000 A 
ATOM      9  C   UNL     1      49.043   7.301  15.687  0.00  0.00    +0.000 A 
BRANCH   8  10
ATOM     10  C   UNL     1      48.606   5.280  17.104  0.00  0.00    +0.000 A 
ATOM     11  C   UNL     1      47.317   4.729  17.226  0.00  0.00    +0.000 A 
ATOM     12  C   UNL     1      47.157   3.355  17.361  0.00  0.00    +0.000 A 
ATOM     13  N   UNL     1      48.179   2.480  17.360  0.00  0.00    +0.000 NA
ATOM     14  C   UNL     1      49.417   3.007  17.243  0.00  0.00    +0.000 A 
ATOM     15  C   UNL     1      49.669   4.370  17.145  0.00  0.00    +0.000 A 
BRANCH  14  16
ATOM     16  C   UNL     1      50.508   2.075  17.215  0.00  0.00    +0.000 C 
ATOM     17  N   UNL     1      51.357   1.282  17.193  0.00  0.00    +0.000 NA
ENDBRANCH  14  16
ENDBRANCH   8  10
ENDBRANCH   1   3
BRANCH   1  18
ATOM     18  C   UNL     1      48.525   9.473  13.221  0.00  0.00    +0.000 C 
BRANCH  18  19
ATOM     19  C   UNL     1      48.338   8.412  12.110  0.00  0.00    +0.000 C 
ATOM     20  C   UNL     1      49.701   7.758  11.824  0.00  0.00    +0.000 C 
BRANCH  19  24
ATOM     21  C   UNL     1      46.829   3.846  13.688  0.00  0.00    +0.000 C 
ATOM     22  C   UNL     1      46.489   5.184  13.107  0.00  0.00    +0.000 A 
ATOM     23  C   UNL     1      47.510   6.125  12.872  0.00  0.00    +0.000 A 
ATOM     24  C   UNL     1      47.224   7.399  12.359  0.00  0.00    +0.000 A 
ATOM     25  C   UNL     1      45.887   7.646  12.054  0.00  0.00    +0.000 A 
ATOM     26  N   UNL     1      44.872   6.779  12.255  0.00  0.00    +0.000 NA
ATOM     27  C   UNL     1      45.185   5.561  12.784  0.00  0.00    +0.000 A 
BRANCH  27  28
ATOM     28  C   UNL     1      43.989   4.658  12.984  0.00  0.00    +0.000 C 
ATOM     29  N   UNL     1      42.808   5.319  13.232  0.00  0.00    +0.000 N 
ATOM     30  O   UNL     1      44.024   3.438  12.950  0.00  0.00    +0.000 OA
ATOM     31  H   UNL     1      42.800   6.334  13.242  0.00  0.00    +0.000 HD
ATOM     32  H   UNL     1      41.963   4.788  13.363  0.00  0.00    +0.000 HD
ENDBRANCH  27  28
ENDBRANCH  19  24
ENDBRANCH  18  19
ENDBRANCH   1  18
TORSDOF 7
ENDMDL
MODEL 9
REMARK VINA RESULT:    -6.863      3.288      5.153
REMARK INTER + INTRA:         -10.856
REMARK INTER:                  -9.088
REMARK INTRA:                  -1.767
REMARK UNBOUND:                -1.184
REMARK  Name = 
REMARK  9 active torsions:
REMARK  status: ('A' for Active; 'I' for Inactive)
REMARK    1  A    between atoms: C_1  and  C_2
REMARK    2  A    between atoms: C_4  and  C_5
REMARK    3  A    between atoms: C_5  and  C_6
REMARK    4  A    between atoms: C_5  and  C_7
REMARK    5  A    between atoms: C_7  and  N_8
REMARK    6  A    between atoms: N_8  and  C_9
REMARK    7  A    between atoms: C_14  and  C_15
REMARK    8  A    between atoms: C_19  and  C_20
REMARK    9  A    between atoms: C_26  and  C_27
REMARK                            x       y       z     vdW  Elec       q    Type
REMARK                         _______ _______ _______ _____ _____    ______ ____
ROOT
ATOM      1  N   UNL     1      47.753  10.155  13.275  0.00  0.00    +0.000 N 
ATOM      2  H   UNL     1      47.830  11.168  13.237  0.00  0.00    +0.000 HD
ENDROOT
BRANCH   1   3
ATOM      3  C   UNL     1      48.814   9.525  13.914  0.00  0.00    +0.000 A 
ATOM      4  C   UNL     1      50.126   9.592  13.457  0.00  0.00    +0.000 A 
ATOM      5  C   UNL     1      51.130   8.860  14.080  0.00  0.00    +0.000 A 
ATOM      6  C   UNL     1      50.838   8.010  15.150  0.00  0.00    +0.000 A 
ATOM      7 CL   UNL     1      52.193   7.087  15.715  0.00  0.00    +0.000 Cl
ATOM      8  C   UNL     1      49.524   7.898  15.656  0.00  0.00    +0.000 A 
ATOM      9  C   UNL     1      48.537   8.676  14.999  0.00  0.00    +0.000 A 
BRANCH   8  10
ATOM     10  C   UNL     1      49.114   7.033  16.802  0.00  0.00    +0.000 A 
ATOM     11  C   UNL     1      49.429   7.373  18.130  0.00  0.00    +0.000 A 
ATOM     12  C   UNL     1      49.047   6.537  19.172  0.00  0.00    +0.000 A 
ATOM     13  N   UNL     1      48.354   5.397  19.000  0.00  0.00    +0.000 NA
ATOM     14  C   UNL     1      48.051   5.068  17.726  0.00  0.00    +0.000 A 
ATOM     15  C   UNL     1      48.430   5.825  16.623  0.00  0.00    +0.000 A 
BRANCH  14  16
ATOM     16  C   UNL     1      47.288   3.866  17.540  0.00  0.00    +0.000 C 
ATOM     17  N   UNL     1      46.636   2.912  17.424  0.00  0.00    +0.000 NA
ENDBRANCH  14  16
ENDBRANCH   8  10
ENDBRANCH   1   3
BRANCH   1  18
ATOM     18  C   UNL     1      47.075   9.515  12.148  0.00  0.00    +0.000 C 
BRANCH  18  19
ATOM     19  C   UNL     1      45.642   9.069  12.524  0.00  0.00    +0.000 C 
ATOM     20  C   UNL     1      44.639   9.919  11.726  0.00  0.00    +0.000 C 
BRANCH  19  24
ATOM     21  C   UNL     1      46.829   4.305  13.757  0.00  0.00    +0.000 C 
ATOM     22  C   UNL     1      45.957   5.260  13.000  0.00  0.00    +0.000 A 
ATOM     23  C   UNL     1      46.194   6.645  13.088  0.00  0.00    +0.000 A 
ATOM     24  C   UNL     1      45.378   7.569  12.419  0.00  0.00    +0.000 A 
ATOM     25  C   UNL     1      44.365   7.027  11.630  0.00  0.00    +0.000 A 
ATOM     26  N   UNL     1      44.100   5.709  11.506  0.00  0.00    +0.000 NA
ATOM     27  C   UNL     1      44.895   4.842  12.196  0.00  0.00    +0.000 A 
BRANCH  27  28
ATOM     28  C   UNL     1      44.522   3.389  12.009  0.00  0.00    +0.000 C 
ATOM     29  N   UNL     1      45.018   2.817  10.859  0.00  0.00    +0.000 N 
ATOM     30  O   UNL     1      43.832   2.742  12.779  0.00  0.00    +0.000 OA
ATOM     31  H   UNL     1      45.601   3.370  10.240  0.00  0.00    +0.000 HD
ATOM     32  H   UNL     1      44.824   1.847  10.668  0.00  0.00    +0.000 HD
ENDBRANCH  27  28
ENDBRANCH  19  24
ENDBRANCH  18  19
ENDBRANCH   1  18
TORSDOF 7
ENDMDL
