MODEL 1
REMARK VINA RESULT:    -8.073      0.000      0.000
REMARK INTER + INTRA:          -9.933
REMARK INTER:                  -9.489
REMARK INTRA:                  -0.444
REMARK UNBOUND:                -0.444
REMARK  Name = 
REMARK  3 active torsions:
REMARK  status: ('A' for Active; 'I' for Inactive)
REMARK    1  A    between atoms: C_2  and  C_4
REMARK    2  A    between atoms: N_8  and  C_9
REMARK    3  A    between atoms: C_9  and  C_10
REMARK                            x       y       z     vdW  Elec       q    Type
REMARK                         _______ _______ _______ _____ _____    ______ ____
ROOT
ATOM      1  C   UNL     1      46.225   2.074   7.936  0.00  0.00    +0.000 A 
ATOM      2  C   UNL     1      46.304   3.416   7.577  0.00  0.00    +0.000 A 
ATOM      3  C   UNL     1      45.448   4.329   8.191  0.00  0.00    +0.000 A 
ATOM      4  C   UNL     1      44.575   3.902   9.193  0.00  0.00    +0.000 A 
ATOM      5  N   UNL     1      43.744   4.859   9.799  0.00  0.00    +0.000 N 
ATOM      6  N   UNL     1      44.469   2.599   9.521  0.00  0.00    +0.000 NA
ATOM      7  C   UNL     1      45.274   1.714   8.877  0.00  0.00    +0.000 A 
ATOM      8  H   UNL     1      44.215   5.756   9.806  0.00  0.00    +0.000 HD
ENDROOT
BRANCH   1  10
ATOM      9  N   UNL     1      46.801  -0.265   7.668  0.00  0.00    +0.000 N 
ATOM     10  C   UNL     1      47.100   1.035   7.362  0.00  0.00    +0.000 C 
ATOM     11  O   UNL     1      48.017   1.313   6.602  0.00  0.00    +0.000 OA
ATOM     12  H   UNL     1      47.327  -0.972   7.169  0.00  0.00    +0.000 HD
ATOM     13  H   UNL     1      45.910  -0.536   8.060  0.00  0.00    +0.000 HD
ENDBRANCH   1  10
BRANCH   5  14
ATOM     14  C   UNL     1      43.288   4.482  11.138  0.00  0.00    +0.000 C 
BRANCH  14  15
ATOM     15  C   UNL     1      44.170   5.128  12.230  0.00  0.00    +0.000 C 
ATOM     16  C   UNL     1      44.754   6.470  11.760  0.00  0.00    +0.000 C 
ATOM     17  C   UNL     1      45.652   7.104  12.817  0.00  0.00    +0.000 C 
ATOM     18  C   UNL     1      46.753   6.146  13.260  0.00  0.00    +0.000 C 
ATOM     19  C   UNL     1      46.168   4.839  13.780  0.00  0.00    +0.000 C 
ATOM     20  C   UNL     1      45.268   4.176  12.739  0.00  0.00    +0.000 C 
ENDBRANCH  14  15
ENDBRANCH   5  14
TORSDOF 3
ENDMDL
MODEL 2
REMARK VINA RESULT:    -7.428      2.979      6.383
REMARK INTER + INTRA:          -9.174
REMARK INTER:                  -8.806
REMARK INTRA:                  -0.368
REMARK UNBOUND:                -0.444
REMARK  Name = 
REMARK  3 active torsions:
REMARK  status: ('A' for Active; 'I' for Inactive)
REMARK    1  A    between atoms: C_2  and  C_4
REMARK    2  A    between atoms: N_8  and  C_9
REMARK    3  A    between atoms: C_9  and  C_10
REMARK                            x       y       z     vdW  Elec       q    Type
REMARK                         _______ _______ _______ _____ _____    ______ ____
ROOT
ATOM      1  C   UNL     1      45.358   6.733  12.352  0.00  0.00    +0.000 A 
ATOM      2  C   UNL     1      46.038   5.720  13.020  0.00  0.00    +0.000 A 
ATOM      3  C   UNL     1      45.835   4.398  12.626  0.00  0.00    +0.000 A 
ATOM      4  C   UNL     1      45.010   4.115  11.536  0.00  0.00    +0.000 A 
ATOM      5  N   UNL     1      44.848   2.770  11.160  0.00  0.00    +0.000 N 
ATOM      6  N   UNL     1      44.321   5.088  10.908  0.00  0.00    +0.000 NA
ATOM      7  C   UNL     1      44.490   6.366  11.337  0.00  0.00    +0.000 A 
ATOM      8  H   UNL     1      45.695   2.258  11.373  0.00  0.00    +0.000 HD
ENDROOT
BRANCH   1  10
ATOM      9  N   UNL     1      46.370   8.469  13.706  0.00  0.00    +0.000 N 
ATOM     10  C   UNL     1      45.521   8.162  12.679  0.00  0.00    +0.000 C 
ATOM     11  O   UNL     1      44.968   9.038  12.029  0.00  0.00    +0.000 OA
ATOM     12  H   UNL     1      46.572   9.452  13.839  0.00  0.00    +0.000 HD
ATOM     13  H   UNL     1      47.035   7.803  14.074  0.00  0.00    +0.000 HD
ENDBRANCH   1  10
BRANCH   5  14
ATOM     14  C   UNL     1      44.452   2.592   9.762  0.00  0.00    +0.000 C 
BRANCH  14  15
ATOM     15  C   UNL     1      45.683   2.585   8.829  0.00  0.00    +0.000 C 
ATOM     16  C   UNL     1      45.551   3.636   7.715  0.00  0.00    +0.000 C 
ATOM     17  C   UNL     1      46.746   3.618   6.768  0.00  0.00    +0.000 C 
ATOM     18  C   UNL     1      46.978   2.226   6.190  0.00  0.00    +0.000 C 
ATOM     19  C   UNL     1      47.166   1.196   7.297  0.00  0.00    +0.000 C 
ATOM     20  C   UNL     1      45.980   1.185   8.259  0.00  0.00    +0.000 C 
ENDBRANCH  14  15
ENDBRANCH   5  14
TORSDOF 3
ENDMDL
MODEL 3
REMARK VINA RESULT:    -6.750      1.400      1.761
REMARK INTER + INTRA:          -8.377
REMARK INTER:                  -8.162
REMARK INTRA:                  -0.215
REMARK UNBOUND:                -0.444
REMARK  Name = 
REMARK  3 active torsions:
REMARK  status: ('A' for Active; 'I' for Inactive)
REMARK    1  A    between atoms: C_2  and  C_4
REMARK    2  A    between atoms: N_8  and  C_9
REMARK    3  A    between atoms: C_9  and  C_10
REMARK                            x       y       z     vdW  Elec       q    Type
REMARK                         _______ _______ _______ _____ _____    ______ ____
ROOT
ATOM      1  C   UNL     1      46.516   2.790   7.308  0.00  0.00    +0.000 A 
ATOM      2  C   UNL     1      45.924   1.676   7.892  0.00  0.00    +0.000 A 
ATOM      3  C   UNL     1      45.132   1.850   9.026  0.00  0.00    +0.000 A 
ATOM      4  C   UNL     1      44.893   3.134   9.519  0.00  0.00    +0.000 A 
ATOM      5  N   UNL     1      44.073   3.266  10.652  0.00  0.00    +0.000 N 
ATOM      6  N   UNL     1      45.491   4.214   8.978  0.00  0.00    +0.000 NA
ATOM      7  C   UNL     1      46.301   4.022   7.904  0.00  0.00    +0.000 A 
ATOM      8  H   UNL     1      43.384   2.524  10.656  0.00  0.00    +0.000 HD
ENDROOT
BRANCH   1  10
ATOM      9  N   UNL     1      48.670   2.394   6.271  0.00  0.00    +0.000 N 
ATOM     10  C   UNL     1      47.352   2.714   6.095  0.00  0.00    +0.000 C 
ATOM     11  O   UNL     1      46.881   2.873   4.977  0.00  0.00    +0.000 OA
ATOM     12  H   UNL     1      49.203   2.220   5.428  0.00  0.00    +0.000 HD
ATOM     13  H   UNL     1      49.019   1.999   7.133  0.00  0.00    +0.000 HD
ENDBRANCH   1  10
BRANCH   5  14
ATOM     14  C   UNL     1      43.444   4.583  10.775  0.00  0.00    +0.000 C 
BRANCH  14  15
ATOM     15  C   UNL     1      44.129   5.430  11.869  0.00  0.00    +0.000 C 
ATOM     16  C   UNL     1      44.608   6.782  11.316  0.00  0.00    +0.000 C 
ATOM     17  C   UNL     1      45.315   7.617  12.379  0.00  0.00    +0.000 C 
ATOM     18  C   UNL     1      46.462   6.844  13.021  0.00  0.00    +0.000 C 
ATOM     19  C   UNL     1      45.974   5.531  13.620  0.00  0.00    +0.000 C 
ATOM     20  C   UNL     1      45.267   4.669  12.575  0.00  0.00    +0.000 C 
ENDBRANCH  14  15
ENDBRANCH   5  14
TORSDOF 3
ENDMDL
MODEL 4
REMARK VINA RESULT:    -6.354      3.367      6.463
REMARK INTER + INTRA:          -7.912
REMARK INTER:                  -7.600
REMARK INTRA:                  -0.312
REMARK UNBOUND:                -0.444
REMARK  Name = 
REMARK  3 active torsions:
REMARK  status: ('A' for Active; 'I' for Inactive)
REMARK    1  A    between atoms: C_2  and  C_4
REMARK    2  A    between atoms: N_8  and  C_9
REMARK    3  A    between atoms: C_9  and  C_10
REMARK                            x       y       z     vdW  Elec       q    Type
REMARK                         _______ _______ _______ _____ _____    ______ ____
ROOT
ATOM      1  C   UNL     1      47.451   6.965  13.604  0.00  0.00    +0.000 A 
ATOM      2  C   UNL     1      46.865   8.027  12.923  0.00  0.00    +0.000 A 
ATOM      3  C   UNL     1      45.978   7.753  11.884  0.00  0.00    +0.000 A 
ATOM      4  C   UNL     1      45.642   6.432  11.583  0.00  0.00    +0.000 A 
ATOM      5  N   UNL     1      44.728   6.202  10.541  0.00  0.00    +0.000 N 
ATOM      6  N   UNL     1      46.232   5.398  12.216  0.00  0.00    +0.000 NA
ATOM      7  C   UNL     1      47.134   5.681  13.192  0.00  0.00    +0.000 A 
ATOM      8  H   UNL     1      44.075   6.974  10.490  0.00  0.00    +0.000 HD
ENDROOT
BRANCH   1  10
ATOM      9  N   UNL     1      48.217   8.270  15.497  0.00  0.00    +0.000 N 
ATOM     10  C   UNL     1      48.385   7.149  14.731  0.00  0.00    +0.000 C 
ATOM     11  O   UNL     1      49.236   6.314  15.005  0.00  0.00    +0.000 OA
ATOM     12  H   UNL     1      48.778   8.322  16.338  0.00  0.00    +0.000 HD
ATOM     13  H   UNL     1      47.373   8.824  15.464  0.00  0.00    +0.000 HD
ENDBRANCH   1  10
BRANCH   5  14
ATOM     14  C   UNL     1      44.032   4.917  10.639  0.00  0.00    +0.000 C 
BRANCH  14  15
ATOM     15  C   UNL     1      44.390   3.995   9.453  0.00  0.00    +0.000 C 
ATOM     16  C   UNL     1      44.630   2.550   9.917  0.00  0.00    +0.000 C 
ATOM     17  C   UNL     1      45.016   1.634   8.759  0.00  0.00    +0.000 C 
ATOM     18  C   UNL     1      46.220   2.177   7.997  0.00  0.00    +0.000 C 
ATOM     19  C   UNL     1      45.958   3.590   7.489  0.00  0.00    +0.000 C 
ATOM     20  C   UNL     1      45.575   4.533   8.628  0.00  0.00    +0.000 C 
ENDBRANCH  14  15
ENDBRANCH   5  14
TORSDOF 3
ENDMDL
MODEL 5
REMARK VINA RESULT:    -6.005      3.693      5.183
REMARK INTER + INTRA:          -7.502
REMARK INTER:                  -7.273
REMARK INTRA:                  -0.229
REMARK UNBOUND:                -0.444
REMARK  Name = 
REMARK  3 active torsions:
REMARK  status: ('A' for Active; 'I' for Inactive)
REMARK    1  A    between atoms: C_2  and  C_4
REMARK    2  A    between atoms: N_8  and  C_9
REMARK    3  A    between atoms: C_9  and  C_10
REMARK                            x       y       z     vdW  Elec       q    Type
REMARK                         _______ _______ _______ _____ _____    ______ ____
ROOT
ATOM      1  C   UNL     1      44.966   4.037  10.929  0.00  0.00    +0.000 A 
ATOM      2  C   UNL     1      45.474   5.324  11.074  0.00  0.00    +0.000 A 
ATOM      3  C   UNL     1      46.006   5.703  12.305  0.00  0.00    +0.000 A 
ATOM      4  C   UNL     1      46.081   4.778  13.347  0.00  0.00    +0.000 A 
ATOM      5  N   UNL     1      46.644   5.196  14.565  0.00  0.00    +0.000 N 
ATOM      6  N   UNL     1      45.560   3.541  13.224  0.00  0.00    +0.000 NA
ATOM      7  C   UNL     1      44.998   3.203  12.034  0.00  0.00    +0.000 A 
ATOM      8  H   UNL     1      47.349   5.900  14.385  0.00  0.00    +0.000 HD
ENDROOT
BRANCH   1  10
ATOM      9  N   UNL     1      44.000   4.468   8.749  0.00  0.00    +0.000 N 
ATOM     10  C   UNL     1      44.402   3.533   9.662  0.00  0.00    +0.000 C 
ATOM     11  O   UNL     1      44.345   2.337   9.414  0.00  0.00    +0.000 OA
ATOM     12  H   UNL     1      43.734   4.115   7.838  0.00  0.00    +0.000 HD
ATOM     13  H   UNL     1      44.278   5.437   8.810  0.00  0.00    +0.000 HD
ENDBRANCH   1  10
BRANCH   5  14
ATOM     14  C   UNL     1      47.175   4.100  15.377  0.00  0.00    +0.000 C 
BRANCH  14  15
ATOM     15  C   UNL     1      47.688   4.613  16.741  0.00  0.00    +0.000 C 
ATOM     16  C   UNL     1      48.769   5.692  16.566  0.00  0.00    +0.000 C 
ATOM     17  C   UNL     1      49.306   6.185  17.906  0.00  0.00    +0.000 C 
ATOM     18  C   UNL     1      49.812   5.029  18.762  0.00  0.00    +0.000 C 
ATOM     19  C   UNL     1      48.721   3.989  18.982  0.00  0.00    +0.000 C 
ATOM     20  C   UNL     1      48.167   3.470  17.656  0.00  0.00    +0.000 C 
ENDBRANCH  14  15
ENDBRANCH   5  14
TORSDOF 3
ENDMDL
MODEL 6
REMARK VINA RESULT:    -5.945      4.369      6.201
REMARK INTER + INTRA:          -7.431
REMARK INTER:                  -7.143
REMARK INTRA:                  -0.289
REMARK UNBOUND:                -0.444
REMARK  Name = 
REMARK  3 active torsions:
REMARK  status: ('A' for Active; 'I' for Inactive)
REMARK    1  A    between atoms: C_2  and  C_4
REMARK    2  A    between atoms: N_8  and  C_9
REMARK    3  A    between atoms: C_9  and  C_10
REMARK                            x       y       z     vdW  Elec       q    Type
REMARK                         _______ _______ _______ _____ _____    ______ ____
ROOT
ATOM      1  C   UNL     1      45.557   5.161  11.825  0.00  0.00    +0.000 A 
ATOM      2  C   UNL     1      46.634   5.994  12.106  0.00  0.00    +0.000 A 
ATOM      3  C   UNL     1      47.218   5.936  13.371  0.00  0.00    +0.000 A 
ATOM      4  C   UNL     1      46.762   5.008  14.308  0.00  0.00    +0.000 A 
ATOM      5  N   UNL     1      47.392   4.970  15.563  0.00  0.00    +0.000 N 
ATOM      6  N   UNL     1      45.697   4.222  14.053  0.00  0.00    +0.000 NA
ATOM      7  C   UNL     1      45.106   4.327  12.834  0.00  0.00    +0.000 A 
ATOM      8  H   UNL     1      48.364   5.233  15.459  0.00  0.00    +0.000 HD
ENDROOT
BRANCH   1  10
ATOM      9  N   UNL     1      45.635   5.485   9.424  0.00  0.00    +0.000 N 
ATOM     10  C   UNL     1      44.885   5.131  10.512  0.00  0.00    +0.000 C 
ATOM     11  O   UNL     1      43.727   4.755  10.390  0.00  0.00    +0.000 OA
ATOM     12  H   UNL     1      45.203   5.340   8.520  0.00  0.00    +0.000 HD
ATOM     13  H   UNL     1      46.643   5.536   9.457  0.00  0.00    +0.000 HD
ENDBRANCH   1  10
BRANCH   5  14
ATOM     14  C   UNL     1      47.256   3.685  16.253  0.00  0.00    +0.000 C 
BRANCH  14  15
ATOM     15  C   UNL     1      48.498   3.382  17.119  0.00  0.00    +0.000 C 
ATOM     16  C   UNL     1      49.354   4.640  17.334  0.00  0.00    +0.000 C 
ATOM     17  C   UNL     1      50.601   4.349  18.163  0.00  0.00    +0.000 C 
ATOM     18  C   UNL     1      51.423   3.219  17.552  0.00  0.00    +0.000 C 
ATOM     19  C   UNL     1      50.588   1.954  17.393  0.00  0.00    +0.000 C 
ATOM     20  C   UNL     1      49.333   2.214  16.561  0.00  0.00    +0.000 C 
ENDBRANCH  14  15
ENDBRANCH   5  14
TORSDOF 3
ENDMDL
MODEL 7
REMARK VINA RESULT:    -5.541      5.678      8.116
REMARK INTER + INTRA:          -6.957
REMARK INTER:                  -6.714
REMARK INTRA:                  -0.243
REMARK UNBOUND:                -0.444
REMARK  Name = 
REMARK  3 active torsions:
REMARK  status: ('A' for Active; 'I' for Inactive)
REMARK    1  A    between atoms: C_2  and  C_4
REMARK    2  A    between atoms: N_8  and  C_9
REMARK    3  A    between atoms: C_9  and  C_10
REMARK                            x       y       z     vdW  Elec       q    Type
REMARK                         _______ _______ _______ _____ _____    ______ ____
ROOT
ATOM      1  C   UNL     1      49.417   4.342  17.851  0.00  0.00    +0.000 A 
ATOM      2  C   UNL     1      48.509   3.292  17.769  0.00  0.00    +0.000 A 
ATOM      3  C   UNL     1      47.516   3.334  16.792  0.00  0.00    +0.000 A 
ATOM      4  C   UNL     1      47.484   4.386  15.875  0.00  0.00    +0.000 A 
ATOM      5  N   UNL     1      46.479   4.380  14.894  0.00  0.00    +0.000 N 
ATOM      6  N   UNL     1      48.340   5.424  15.970  0.00  0.00    +0.000 NA
ATOM      7  C   UNL     1      49.269   5.393  16.961  0.00  0.00    +0.000 A 
ATOM      8  H   UNL     1      46.244   3.423  14.661  0.00  0.00    +0.000 HD
ENDROOT
BRANCH   1  10
ATOM      9  N   UNL     1      50.162   4.409  20.156  0.00  0.00    +0.000 N 
ATOM     10  C   UNL     1      50.516   4.381  18.835  0.00  0.00    +0.000 C 
ATOM     11  O   UNL     1      51.689   4.334  18.492  0.00  0.00    +0.000 OA
ATOM     12  H   UNL     1      50.919   4.307  20.821  0.00  0.00    +0.000 HD
ATOM     13  H   UNL     1      49.231   4.178  20.471  0.00  0.00    +0.000 HD
ENDBRANCH   1  10
BRANCH   5  14
ATOM     14  C   UNL     1      46.816   5.155  13.698  0.00  0.00    +0.000 C 
BRANCH  14  15
ATOM     15  C   UNL     1      45.777   4.932  12.577  0.00  0.00    +0.000 C 
ATOM     16  C   UNL     1      44.556   5.849  12.751  0.00  0.00    +0.000 C 
ATOM     17  C   UNL     1      43.508   5.617  11.667  0.00  0.00    +0.000 C 
ATOM     18  C   UNL     1      43.093   4.151  11.598  0.00  0.00    +0.000 C 
ATOM     19  C   UNL     1      44.299   3.248  11.368  0.00  0.00    +0.000 C 
ATOM     20  C   UNL     1      45.365   3.454  12.443  0.00  0.00    +0.000 C 
ENDBRANCH  14  15
ENDBRANCH   5  14
TORSDOF 3
ENDMDL
MODEL 8
REMARK VINA RESULT:    -5.375      3.670      5.217
REMARK INTER + INTRA:          -6.762
REMARK INTER:                  -6.453
REMARK INTRA:                  -0.310
REMARK UNBOUND:                -0.444
REMARK  Name = 
REMARK  3 active torsions:
REMARK  status: ('A' for Active; 'I' for Inactive)
REMARK    1  A    between atoms: C_2  and  C_4
REMARK    2  A    between atoms: N_8  and  C_9
REMARK    3  A    between atoms: C_9  and  C_10
REMARK                            x       y       z     vdW  Elec       q    Type
REMARK                         _______ _______ _______ _____ _____    ______ ____
ROOT
ATOM      1  C   UNL     1      44.734   4.026  11.337  0.00  0.00    +0.000 A 
ATOM      2  C   UNL     1      44.916   5.125  10.504  0.00  0.00    +0.000 A 
ATOM      3  C   UNL     1      45.654   6.211  10.973  0.00  0.00    +0.000 A 
ATOM      4  C   UNL     1      46.249   6.157  12.234  0.00  0.00    +0.000 A 
ATOM      5  N   UNL     1      47.001   7.265  12.660  0.00  0.00    +0.000 N 
ATOM      6  N   UNL     1      46.047   5.110  13.059  0.00  0.00    +0.000 NA
ATOM      7  C   UNL     1      45.283   4.082  12.607  0.00  0.00    +0.000 A 
ATOM      8  H   UNL     1      47.425   7.711  11.855  0.00  0.00    +0.000 HD
ENDROOT
BRANCH   1  10
ATOM      9  N   UNL     1      44.484   2.119   9.863  0.00  0.00    +0.000 N 
ATOM     10  C   UNL     1      43.988   2.821  10.927  0.00  0.00    +0.000 C 
ATOM     11  O   UNL     1      43.004   2.433  11.541  0.00  0.00    +0.000 OA
ATOM     12  H   UNL     1      44.039   1.229   9.671  0.00  0.00    +0.000 HD
ATOM     13  H   UNL     1      45.422   2.256   9.516  0.00  0.00    +0.000 HD
ENDBRANCH   1  10
BRANCH   5  14
ATOM     14  C   UNL     1      47.998   6.944  13.682  0.00  0.00    +0.000 C 
BRANCH  14  15
ATOM     15  C   UNL     1      49.430   7.219  13.171  0.00  0.00    +0.000 C 
ATOM     16  C   UNL     1      50.183   8.184  14.101  0.00  0.00    +0.000 C 
ATOM     17  C   UNL     1      51.588   8.489  13.592  0.00  0.00    +0.000 C 
ATOM     18  C   UNL     1      51.560   9.010  12.159  0.00  0.00    +0.000 C 
ATOM     19  C   UNL     1      50.864   8.025  11.229  0.00  0.00    +0.000 C 
ATOM     20  C   UNL     1      49.449   7.705  11.710  0.00  0.00    +0.000 C 
ENDBRANCH  14  15
ENDBRANCH   5  14
TORSDOF 3
ENDMDL
MODEL 9
REMARK VINA RESULT:    -5.364      3.750      5.431
REMARK INTER + INTRA:          -6.749
REMARK INTER:                  -6.466
REMARK INTRA:                  -0.283
REMARK UNBOUND:                -0.444
REMARK  Name = 
REMARK  3 active torsions:
REMARK  status: ('A' for Active; 'I' for Inactive)
REMARK    1  A    between atoms: C_2  and  C_4
REMARK    2  A    between atoms: N_8  and  C_9
REMARK    3  A    between atoms: C_9  and  C_10
REMARK                            x       y       z     vdW  Elec       q    Type
REMARK                         _______ _______ _______ _____ _____    ______ ____
ROOT
ATOM      1  C   UNL     1      44.937   3.884  11.529  0.00  0.00    +0.000 A 
ATOM      2  C   UNL     1      45.430   3.758  12.824  0.00  0.00    +0.000 A 
ATOM      3  C   UNL     1      46.270   4.751  13.324  0.00  0.00    +0.000 A 
ATOM      4  C   UNL     1      46.553   5.879  12.553  0.00  0.00    +0.000 A 
ATOM      5  N   UNL     1      47.389   6.865  13.103  0.00  0.00    +0.000 N 
ATOM      6  N   UNL     1      46.107   5.990  11.286  0.00  0.00    +0.000 NA
ATOM      7  C   UNL     1      45.331   4.989  10.794  0.00  0.00    +0.000 A 
ATOM      8  H   UNL     1      47.266   6.887  14.108  0.00  0.00    +0.000 HD
ENDROOT
BRANCH   1  10
ATOM      9  N   UNL     1      44.493   2.215   9.829  0.00  0.00    +0.000 N 
ATOM     10  C   UNL     1      44.025   2.899  10.917  0.00  0.00    +0.000 C 
ATOM     11  O   UNL     1      42.922   2.662  11.390  0.00  0.00    +0.000 OA
ATOM     12  H   UNL     1      43.910   1.457   9.496  0.00  0.00    +0.000 HD
ATOM     13  H   UNL     1      45.473   2.192   9.587  0.00  0.00    +0.000 HD
ENDBRANCH   1  10
BRANCH   5  14
ATOM     14  C   UNL     1      47.205   8.192  12.512  0.00  0.00    +0.000 C 
BRANCH  14  15
ATOM     15  C   UNL     1      48.445   8.616  11.694  0.00  0.00    +0.000 C 
ATOM     16  C   UNL     1      49.656   7.722  12.004  0.00  0.00    +0.000 C 
ATOM     17  C   UNL     1      50.896   8.149  11.226  0.00  0.00    +0.000 C 
ATOM     18  C   UNL     1      51.221   9.621  11.459  0.00  0.00    +0.000 C 
ATOM     19  C   UNL     1      50.037  10.509  11.096  0.00  0.00    +0.000 C 
ATOM     20  C   UNL     1      48.780  10.109  11.866  0.00  0.00    +0.000 C 
ENDBRANCH  14  15
ENDBRANCH   5  14
TORSDOF 3
ENDMDL
