MODEL 1
REMARK VINA RESULT:    -7.120      0.000      0.000
REMARK INTER + INTRA:          -9.281
REMARK INTER:                  -8.786
REMARK INTRA:                  -0.496
REMARK UNBOUND:                -0.496
REMARK  Name = 
REMARK  4 active torsions:
REMARK  status: ('A' for Active; 'I' for Inactive)
REMARK    1  A    between atoms: C_2  and  C_4
REMARK    2  A    between atoms: C_7  and  C_8
REMARK    3  A    between atoms: C_9  and  C_10
REMARK    4  A    between atoms: C_14  and  C_15
REMARK                            x       y       z     vdW  Elec       q    Type
REMARK                         _______ _______ _______ _____ _____    ______ ____
ROOT
ATOM      1  C   UNL     1      46.882   4.718  13.875  0.00  0.00    +0.000 C 
ATOM      2  C   UNL     1      45.568   4.695  13.595  0.00  0.00    +0.000 C 
ENDROOT
BRANCH   1   6
ATOM      3  C   UNL     1      48.342   4.770  17.841  0.00  0.00    +0.000 A 
ATOM      4  C   UNL     1      48.714   5.814  17.006  0.00  0.00    +0.000 A 
ATOM      5  C   UNL     1      48.243   5.812  15.694  0.00  0.00    +0.000 A 
ATOM      6  C   UNL     1      47.424   4.773  15.243  0.00  0.00    +0.000 A 
ATOM      7  C   UNL     1      47.087   3.786  16.174  0.00  0.00    +0.000 A 
ATOM      8  N   UNL     1      47.527   3.748  17.455  0.00  0.00    +0.000 NA
BRANCH   3  10
ATOM      9  N   UNL     1      48.430   3.675  20.003  0.00  0.00    +0.000 N 
ATOM     10  C   UNL     1      48.856   4.733  19.247  0.00  0.00    +0.000 C 
ATOM     11  O   UNL     1      49.616   5.580  19.696  0.00  0.00    +0.000 OA
ATOM     12  H   UNL     1      48.767   3.575  20.950  0.00  0.00    +0.000 HD
ATOM     13  H   UNL     1      47.823   2.974  19.592  0.00  0.00    +0.000 HD
ENDBRANCH   3  10
ENDBRANCH   1   6
BRANCH   2  14
ATOM     14  C   UNL     1      44.998   4.652  12.242  0.00  0.00    +0.000 A 
ATOM     15  C   UNL     1      43.739   5.197  12.006  0.00  0.00    +0.000 A 
ATOM     16  N   UNL     1      43.106   5.167  10.813  0.00  0.00    +0.000 NA
ATOM     17  C   UNL     1      43.752   4.543   9.799  0.00  0.00    +0.000 A 
ATOM     18  C   UNL     1      45.003   3.929   9.902  0.00  0.00    +0.000 A 
ATOM     19  C   UNL     1      45.618   4.003  11.166  0.00  0.00    +0.000 A 
BRANCH  18  20
ATOM     20  C   UNL     1      45.625   3.210   8.772  0.00  0.00    +0.000 A 
ATOM     21  C   UNL     1      46.121   3.876   7.641  0.00  0.00    +0.000 A 
ATOM     22  C   UNL     1      46.748   3.167   6.615  0.00  0.00    +0.000 A 
ATOM     23  C   UNL     1      46.855   1.794   6.734  0.00  0.00    +0.000 A 
ATOM     24  N   UNL     1      46.381   1.102   7.787  0.00  0.00    +0.000 NA
ATOM     25  C   UNL     1      45.786   1.821   8.772  0.00  0.00    +0.000 A 
ENDBRANCH  18  20
ENDBRANCH   2  14
TORSDOF 4
ENDMDL
MODEL 2
REMARK VINA RESULT:    -6.646      2.799      3.274
REMARK INTER + INTRA:          -8.696
REMARK INTER:                  -8.179
REMARK INTRA:                  -0.517
REMARK UNBOUND:                -0.496
REMARK  Name = 
REMARK  4 active torsions:
REMARK  status: ('A' for Active; 'I' for Inactive)
REMARK    1  A    between atoms: C_2  and  C_4
REMARK    2  A    between atoms: C_7  and  C_8
REMARK    3  A    between atoms: C_9  and  C_10
REMARK    4  A    between atoms: C_14  and  C_15
REMARK                            x       y       z     vdW  Elec       q    Type
REMARK                         _______ _______ _______ _____ _____    ______ ____
ROOT
ATOM      1  C   UNL     1      46.878   5.905  12.443  0.00  0.00    +0.000 C 
ATOM      2  C   UNL     1      45.588   5.541  12.357  0.00  0.00    +0.000 C 
ENDROOT
BRANCH   1   6
ATOM      3  C   UNL     1      48.345   8.789  15.162  0.00  0.00    +0.000 A 
ATOM      4  C   UNL     1      47.486   9.226  14.164  0.00  0.00    +0.000 A 
ATOM      5  C   UNL     1      46.993   8.288  13.258  0.00  0.00    +0.000 A 
ATOM      6  C   UNL     1      47.372   6.947  13.359  0.00  0.00    +0.000 A 
ATOM      7  C   UNL     1      48.220   6.610  14.417  0.00  0.00    +0.000 A 
ATOM      8  N   UNL     1      48.725   7.489  15.316  0.00  0.00    +0.000 NA
BRANCH   3  10
ATOM      9  N   UNL     1      47.990  10.535  16.807  0.00  0.00    +0.000 N 
ATOM     10  C   UNL     1      48.910   9.780  16.132  0.00  0.00    +0.000 C 
ATOM     11  O   UNL     1      50.112   9.905  16.325  0.00  0.00    +0.000 OA
ATOM     12  H   UNL     1      48.306  11.199  17.499  0.00  0.00    +0.000 HD
ATOM     13  H   UNL     1      47.000  10.387  16.645  0.00  0.00    +0.000 HD
ENDBRANCH   3  10
ENDBRANCH   1   6
BRANCH   2  14
ATOM     14  C   UNL     1      45.064   4.513  11.445  0.00  0.00    +0.000 A 
ATOM     15  C   UNL     1      43.926   3.795  11.797  0.00  0.00    +0.000 A 
ATOM     16  N   UNL     1      43.392   2.800  11.056  0.00  0.00    +0.000 NA
ATOM     17  C   UNL     1      44.036   2.487   9.907  0.00  0.00    +0.000 A 
ATOM     18  C   UNL     1      45.202   3.105   9.447  0.00  0.00    +0.000 A 
ATOM     19  C   UNL     1      45.704   4.142  10.256  0.00  0.00    +0.000 A 
BRANCH  18  20
ATOM     20  C   UNL     1      45.891   2.674   8.214  0.00  0.00    +0.000 A 
ATOM     21  C   UNL     1      46.097   3.538   7.128  0.00  0.00    +0.000 A 
ATOM     22  C   UNL     1      46.797   3.109   5.999  0.00  0.00    +0.000 A 
ATOM     23  C   UNL     1      47.268   1.810   5.971  0.00  0.00    +0.000 A 
ATOM     24  N   UNL     1      47.083   0.933   6.975  0.00  0.00    +0.000 NA
ATOM     25  C   UNL     1      46.408   1.384   8.063  0.00  0.00    +0.000 A 
ENDBRANCH  18  20
ENDBRANCH   2  14
TORSDOF 4
ENDMDL
MODEL 3
REMARK VINA RESULT:    -5.926      3.765      9.360
REMARK INTER + INTRA:          -7.808
REMARK INTER:                  -7.312
REMARK INTRA:                  -0.496
REMARK UNBOUND:                -0.496
REMARK  Name = 
REMARK  4 active torsions:
REMARK  status: ('A' for Active; 'I' for Inactive)
REMARK    1  A    between atoms: C_2  and  C_4
REMARK    2  A    between atoms: C_7  and  C_8
REMARK    3  A    between atoms: C_9  and  C_10
REMARK    4  A    between atoms: C_14  and  C_15
REMARK                            x       y       z     vdW  Elec       q    Type
REMARK                         _______ _______ _______ _____ _____    ______ ____
ROOT
ATOM      1  C   UNL     1      47.664   5.090  14.993  0.00  0.00    +0.000 C 
ATOM      2  C   UNL     1      47.680   4.425  16.160  0.00  0.00    +0.000 C 
ENDROOT
BRANCH   1   6
ATOM      3  C   UNL     1      44.817   4.316  11.966  0.00  0.00    +0.000 A 
ATOM      4  C   UNL     1      45.062   5.642  12.292  0.00  0.00    +0.000 A 
ATOM      5  C   UNL     1      45.998   5.915  13.289  0.00  0.00    +0.000 A 
ATOM      6  C   UNL     1      46.656   4.870  13.942  0.00  0.00    +0.000 A 
ATOM      7  C   UNL     1      46.354   3.573  13.517  0.00  0.00    +0.000 A 
ATOM      8  N   UNL     1      45.450   3.263  12.557  0.00  0.00    +0.000 NA
BRANCH   3  10
ATOM      9  N   UNL     1      43.850   4.761   9.787  0.00  0.00    +0.000 N 
ATOM     10  C   UNL     1      43.797   3.992  10.918  0.00  0.00    +0.000 C 
ATOM     11  O   UNL     1      42.976   3.096  11.049  0.00  0.00    +0.000 OA
ATOM     12  H   UNL     1      43.210   4.572   9.029  0.00  0.00    +0.000 HD
ATOM     13  H   UNL     1      44.562   5.478   9.698  0.00  0.00    +0.000 HD
ENDBRANCH   3  10
ENDBRANCH   1   6
BRANCH   2  14
ATOM     14  C   UNL     1      48.679   4.615  17.221  0.00  0.00    +0.000 A 
ATOM     15  C   UNL     1      48.560   5.691  18.094  0.00  0.00    +0.000 A 
ATOM     16  N   UNL     1      49.447   5.983  19.071  0.00  0.00    +0.000 NA
ATOM     17  C   UNL     1      50.524   5.169  19.175  0.00  0.00    +0.000 A 
ATOM     18  C   UNL     1      50.783   4.071  18.350  0.00  0.00    +0.000 A 
ATOM     19  C   UNL     1      49.818   3.811  17.358  0.00  0.00    +0.000 A 
BRANCH  18  20
ATOM     20  C   UNL     1      52.010   3.260  18.477  0.00  0.00    +0.000 A 
ATOM     21  C   UNL     1      52.197   2.066  17.765  0.00  0.00    +0.000 A 
ATOM     22  C   UNL     1      53.391   1.351  17.872  0.00  0.00    +0.000 A 
ATOM     23  C   UNL     1      54.377   1.841  18.708  0.00  0.00    +0.000 A 
ATOM     24  N   UNL     1      54.245   2.969  19.429  0.00  0.00    +0.000 NA
ATOM     25  C   UNL     1      53.076   3.646  19.294  0.00  0.00    +0.000 A 
ENDBRANCH  18  20
ENDBRANCH   2  14
TORSDOF 4
ENDMDL
MODEL 4
REMARK VINA RESULT:    -5.651      3.479      9.721
REMARK INTER + INTRA:          -7.468
REMARK INTER:                  -6.966
REMARK INTRA:                  -0.502
REMARK UNBOUND:                -0.496
REMARK  Name = 
REMARK  4 active torsions:
REMARK  status: ('A' for Active; 'I' for Inactive)
REMARK    1  A    between atoms: C_2  and  C_4
REMARK    2  A    between atoms: C_7  and  C_8
REMARK    3  A    between atoms: C_9  and  C_10
REMARK    4  A    between atoms: C_14  and  C_15
REMARK                            x       y       z     vdW  Elec       q    Type
REMARK                         _______ _______ _______ _____ _____    ______ ____
ROOT
ATOM      1  C   UNL     1      46.822   4.874  14.463  0.00  0.00    +0.000 C 
ATOM      2  C   UNL     1      47.052   3.927  15.388  0.00  0.00    +0.000 C 
ENDROOT
BRANCH   1   6
ATOM      3  C   UNL     1      45.102   3.943  10.716  0.00  0.00    +0.000 A 
ATOM      4  C   UNL     1      45.533   5.246  10.919  0.00  0.00    +0.000 A 
ATOM      5  C   UNL     1      46.102   5.571  12.150  0.00  0.00    +0.000 A 
ATOM      6  C   UNL     1      46.219   4.600  13.148  0.00  0.00    +0.000 A 
ATOM      7  C   UNL     1      45.779   3.312  12.829  0.00  0.00    +0.000 A 
ATOM      8  N   UNL     1      45.217   2.955  11.649  0.00  0.00    +0.000 NA
BRANCH   3  10
ATOM      9  N   UNL     1      43.848   4.598   8.747  0.00  0.00    +0.000 N 
ATOM     10  C   UNL     1      44.463   3.573   9.414  0.00  0.00    +0.000 C 
ATOM     11  O   UNL     1      44.492   2.437   8.960  0.00  0.00    +0.000 OA
ATOM     12  H   UNL     1      43.426   4.421   7.847  0.00  0.00    +0.000 HD
ATOM     13  H   UNL     1      43.867   5.535   9.135  0.00  0.00    +0.000 HD
ENDBRANCH   3  10
ENDBRANCH   1   6
BRANCH   2  14
ATOM     14  C   UNL     1      47.662   4.168  16.703  0.00  0.00    +0.000 A 
ATOM     15  C   UNL     1      48.064   3.089  17.485  0.00  0.00    +0.000 A 
ATOM     16  N   UNL     1      48.590   3.199  18.724  0.00  0.00    +0.000 NA
ATOM     17  C   UNL     1      48.706   4.452  19.225  0.00  0.00    +0.000 A 
ATOM     18  C   UNL     1      48.317   5.619  18.564  0.00  0.00    +0.000 A 
ATOM     19  C   UNL     1      47.787   5.442  17.271  0.00  0.00    +0.000 A 
BRANCH  18  20
ATOM     20  C   UNL     1      48.413   6.952  19.192  0.00  0.00    +0.000 A 
ATOM     21  C   UNL     1      48.276   7.142  20.574  0.00  0.00    +0.000 A 
ATOM     22  C   UNL     1      48.423   8.410  21.138  0.00  0.00    +0.000 A 
ATOM     23  C   UNL     1      48.693   9.476  20.299  0.00  0.00    +0.000 A 
ATOM     24  N   UNL     1      48.816   9.355  18.964  0.00  0.00    +0.000 NA
ATOM     25  C   UNL     1      48.678   8.107  18.449  0.00  0.00    +0.000 A 
ENDBRANCH  18  20
ENDBRANCH   2  14
TORSDOF 4
ENDMDL
MODEL 5
REMARK VINA RESULT:    -5.515      5.379      6.072
REMARK INTER + INTRA:          -7.300
REMARK INTER:                  -6.790
REMARK INTRA:                  -0.510
REMARK UNBOUND:                -0.496
REMARK  Name = 
REMARK  4 active torsions:
REMARK  status: ('A' for Active; 'I' for Inactive)
REMARK    1  A    between atoms: C_2  and  C_4
REMARK    2  A    between atoms: C_7  and  C_8
REMARK    3  A    between atoms: C_9  and  C_10
REMARK    4  A    between atoms: C_14  and  C_15
REMARK                            x       y       z     vdW  Elec       q    Type
REMARK                         _______ _______ _______ _____ _____    ______ ____
ROOT
ATOM      1  C   UNL     1      49.540   7.792  11.450  0.00  0.00    +0.000 C 
ATOM      2  C   UNL     1      48.537   7.905  12.337  0.00  0.00    +0.000 C 
ENDROOT
BRANCH   1   6
ATOM      3  C   UNL     1      53.441   9.168  12.316  0.00  0.00    +0.000 A 
ATOM      4  C   UNL     1      53.262   8.439  11.149  0.00  0.00    +0.000 A 
ATOM      5  C   UNL     1      51.981   7.977  10.848  0.00  0.00    +0.000 A 
ATOM      6  C   UNL     1      50.917   8.240  11.715  0.00  0.00    +0.000 A 
ATOM      7  C   UNL     1      51.203   9.005  12.849  0.00  0.00    +0.000 A 
ATOM      8  N   UNL     1      52.432   9.470  13.181  0.00  0.00    +0.000 NA
BRANCH   3  10
ATOM      9  N   UNL     1      55.622   9.968  11.621  0.00  0.00    +0.000 N 
ATOM     10  C   UNL     1      54.811   9.652  12.677  0.00  0.00    +0.000 C 
ATOM     11  O   UNL     1      55.186   9.774  13.835  0.00  0.00    +0.000 OA
ATOM     12  H   UNL     1      56.547  10.332  11.798  0.00  0.00    +0.000 HD
ATOM     13  H   UNL     1      55.271   9.883  10.673  0.00  0.00    +0.000 HD
ENDBRANCH   3  10
ENDBRANCH   1   6
BRANCH   2  14
ATOM     14  C   UNL     1      47.151   7.479  12.097  0.00  0.00    +0.000 A 
ATOM     15  C   UNL     1      46.109   8.111  12.768  0.00  0.00    +0.000 A 
ATOM     16  N   UNL     1      44.808   7.766  12.655  0.00  0.00    +0.000 NA
ATOM     17  C   UNL     1      44.526   6.719  11.845  0.00  0.00    +0.000 A 
ATOM     18  C   UNL     1      45.474   5.976  11.135  0.00  0.00    +0.000 A 
ATOM     19  C   UNL     1      46.811   6.391  11.283  0.00  0.00    +0.000 A 
BRANCH  18  20
ATOM     20  C   UNL     1      45.106   4.804  10.315  0.00  0.00    +0.000 A 
ATOM     21  C   UNL     1      45.510   4.667   8.979  0.00  0.00    +0.000 A 
ATOM     22  C   UNL     1      45.186   3.521   8.250  0.00  0.00    +0.000 A 
ATOM     23  C   UNL     1      44.445   2.534   8.873  0.00  0.00    +0.000 A 
ATOM     24  N   UNL     1      44.015   2.621  10.145  0.00  0.00    +0.000 NA
ATOM     25  C   UNL     1      44.356   3.743  10.829  0.00  0.00    +0.000 A 
ENDBRANCH  18  20
ENDBRANCH   2  14
TORSDOF 4
ENDMDL
MODEL 6
REMARK VINA RESULT:    -5.474      2.643      3.371
REMARK INTER + INTRA:          -7.250
REMARK INTER:                  -6.789
REMARK INTRA:                  -0.461
REMARK UNBOUND:                -0.496
REMARK  Name = 
REMARK  4 active torsions:
REMARK  status: ('A' for Active; 'I' for Inactive)
REMARK    1  A    between atoms: C_2  and  C_4
REMARK    2  A    between atoms: C_7  and  C_8
REMARK    3  A    between atoms: C_9  and  C_10
REMARK    4  A    between atoms: C_14  and  C_15
REMARK                            x       y       z     vdW  Elec       q    Type
REMARK                         _______ _______ _______ _____ _____    ______ ____
ROOT
ATOM      1  C   UNL     1      48.097   6.086  15.255  0.00  0.00    +0.000 C 
ATOM      2  C   UNL     1      48.151   6.857  14.156  0.00  0.00    +0.000 C 
ENDROOT
BRANCH   1   6
ATOM      3  C   UNL     1      51.342   5.841  17.952  0.00  0.00    +0.000 A 
ATOM      4  C   UNL     1      50.318   4.916  18.094  0.00  0.00    +0.000 A 
ATOM      5  C   UNL     1      49.239   4.983  17.213  0.00  0.00    +0.000 A 
ATOM      6  C   UNL     1      49.199   5.969  16.225  0.00  0.00    +0.000 A 
ATOM      7  C   UNL     1      50.295   6.834  16.152  0.00  0.00    +0.000 A 
ATOM      8  N   UNL     1      51.360   6.807  16.990  0.00  0.00    +0.000 NA
BRANCH   3  10
ATOM      9  N   UNL     1      53.423   4.826  18.673  0.00  0.00    +0.000 N 
ATOM     10  C   UNL     1      52.499   5.810  18.902  0.00  0.00    +0.000 C 
ATOM     11  O   UNL     1      52.627   6.611  19.817  0.00  0.00    +0.000 OA
ATOM     12  H   UNL     1      54.244   4.772  19.258  0.00  0.00    +0.000 HD
ATOM     13  H   UNL     1      53.303   4.195  17.888  0.00  0.00    +0.000 HD
ENDBRANCH   3  10
ENDBRANCH   1   6
BRANCH   2  14
ATOM     14  C   UNL     1      47.072   6.985  13.166  0.00  0.00    +0.000 A 
ATOM     15  C   UNL     1      46.305   8.145  13.128  0.00  0.00    +0.000 A 
ATOM     16  N   UNL     1      45.263   8.344  12.291  0.00  0.00    +0.000 NA
ATOM     17  C   UNL     1      44.953   7.324  11.457  0.00  0.00    +0.000 A 
ATOM     18  C   UNL     1      45.618   6.096  11.408  0.00  0.00    +0.000 A 
ATOM     19  C   UNL     1      46.702   5.952  12.295  0.00  0.00    +0.000 A 
BRANCH  18  20
ATOM     20  C   UNL     1      45.189   5.000  10.516  0.00  0.00    +0.000 A 
ATOM     21  C   UNL     1      45.569   4.938   9.167  0.00  0.00    +0.000 A 
ATOM     22  C   UNL     1      45.186   3.861   8.367  0.00  0.00    +0.000 A 
ATOM     23  C   UNL     1      44.412   2.865   8.932  0.00  0.00    +0.000 A 
ATOM     24  N   UNL     1      44.002   2.882  10.215  0.00  0.00    +0.000 NA
ATOM     25  C   UNL     1      44.401   3.938  10.968  0.00  0.00    +0.000 A 
ENDBRANCH  18  20
ENDBRANCH   2  14
TORSDOF 4
ENDMDL
MODEL 7
REMARK VINA RESULT:    -5.397      3.978      9.867
REMARK INTER + INTRA:          -7.155
REMARK INTER:                  -6.581
REMARK INTRA:                  -0.574
REMARK UNBOUND:                -0.496
REMARK  Name = 
REMARK  4 active torsions:
REMARK  status: ('A' for Active; 'I' for Inactive)
REMARK    1  A    between atoms: C_2  and  C_4
REMARK    2  A    between atoms: C_7  and  C_8
REMARK    3  A    between atoms: C_9  and  C_10
REMARK    4  A    between atoms: C_14  and  C_15
REMARK                            x       y       z     vdW  Elec       q    Type
REMARK                         _______ _______ _______ _____ _____    ______ ____
ROOT
ATOM      1  C   UNL     1      47.438   6.226  13.986  0.00  0.00    +0.000 C 
ATOM      2  C   UNL     1      48.533   6.971  13.762  0.00  0.00    +0.000 C 
ENDROOT
BRANCH   1   6
ATOM      3  C   UNL     1      45.103   4.382  10.984  0.00  0.00    +0.000 A 
ATOM      4  C   UNL     1      45.666   5.616  10.692  0.00  0.00    +0.000 A 
ATOM      5  C   UNL     1      46.438   6.239  11.672  0.00  0.00    +0.000 A 
ATOM      6  C   UNL     1      46.624   5.628  12.914  0.00  0.00    +0.000 A 
ATOM      7  C   UNL     1      46.036   4.373  13.094  0.00  0.00    +0.000 A 
ATOM      8  N   UNL     1      45.275   3.735  12.171  0.00  0.00    +0.000 NA
BRANCH   3  10
ATOM      9  N   UNL     1      44.077   4.387   8.787  0.00  0.00    +0.000 N 
ATOM     10  C   UNL     1      44.247   3.703   9.960  0.00  0.00    +0.000 C 
ATOM     11  O   UNL     1      43.739   2.606  10.144  0.00  0.00    +0.000 OA
ATOM     12  H   UNL     1      43.537   3.969   8.044  0.00  0.00    +0.000 HD
ATOM     13  H   UNL     1      44.535   5.282   8.654  0.00  0.00    +0.000 HD
ENDBRANCH   3  10
ENDBRANCH   1   6
BRANCH   2  14
ATOM     14  C   UNL     1      49.357   7.589  14.810  0.00  0.00    +0.000 A 
ATOM     15  C   UNL     1      50.697   7.869  14.558  0.00  0.00    +0.000 A 
ATOM     16  N   UNL     1      51.551   8.391  15.465  0.00  0.00    +0.000 NA
ATOM     17  C   UNL     1      51.052   8.631  16.701  0.00  0.00    +0.000 A 
ATOM     18  C   UNL     1      49.738   8.372  17.099  0.00  0.00    +0.000 A 
ATOM     19  C   UNL     1      48.892   7.840  16.107  0.00  0.00    +0.000 A 
BRANCH  18  20
ATOM     20  C   UNL     1      49.272   8.599  18.482  0.00  0.00    +0.000 A 
ATOM     21  C   UNL     1      47.985   8.242  18.909  0.00  0.00    +0.000 A 
ATOM     22  C   UNL     1      47.597   8.426  20.237  0.00  0.00    +0.000 A 
ATOM     23  C   UNL     1      48.507   8.983  21.116  0.00  0.00    +0.000 A 
ATOM     24  N   UNL     1      49.748   9.362  20.757  0.00  0.00    +0.000 NA
ATOM     25  C   UNL     1      50.097   9.160  19.462  0.00  0.00    +0.000 A 
ENDBRANCH  18  20
ENDBRANCH   2  14
TORSDOF 4
ENDMDL
MODEL 8
REMARK VINA RESULT:    -5.346      3.617      9.642
REMARK INTER + INTRA:          -7.091
REMARK INTER:                  -6.517
REMARK INTRA:                  -0.575
REMARK UNBOUND:                -0.496
REMARK  Name = 
REMARK  4 active torsions:
REMARK  status: ('A' for Active; 'I' for Inactive)
REMARK    1  A    between atoms: C_2  and  C_4
REMARK    2  A    between atoms: C_7  and  C_8
REMARK    3  A    between atoms: C_9  and  C_10
REMARK    4  A    between atoms: C_14  and  C_15
REMARK                            x       y       z     vdW  Elec       q    Type
REMARK                         _______ _______ _______ _____ _____    ______ ____
ROOT
ATOM      1  C   UNL     1      47.602   5.804  14.266  0.00  0.00    +0.000 C 
ATOM      2  C   UNL     1      48.557   6.731  14.086  0.00  0.00    +0.000 C 
ENDROOT
BRANCH   1   6
ATOM      3  C   UNL     1      45.070   4.298  11.235  0.00  0.00    +0.000 A 
ATOM      4  C   UNL     1      45.558   5.588  11.081  0.00  0.00    +0.000 A 
ATOM      5  C   UNL     1      46.394   6.101  12.073  0.00  0.00    +0.000 A 
ATOM      6  C   UNL     1      46.715   5.328  13.191  0.00  0.00    +0.000 A 
ATOM      7  C   UNL     1      46.192   4.032  13.233  0.00  0.00    +0.000 A 
ATOM      8  N   UNL     1      45.373   3.496  12.295  0.00  0.00    +0.000 NA
BRANCH   3  10
ATOM      9  N   UNL     1      43.960   4.510   9.090  0.00  0.00    +0.000 N 
ATOM     10  C   UNL     1      44.149   3.732  10.199  0.00  0.00    +0.000 C 
ATOM     11  O   UNL     1      43.606   2.643  10.321  0.00  0.00    +0.000 OA
ATOM     12  H   UNL     1      43.375   4.170   8.340  0.00  0.00    +0.000 HD
ATOM     13  H   UNL     1      44.447   5.396   9.006  0.00  0.00    +0.000 HD
ENDBRANCH   3  10
ENDBRANCH   1   6
BRANCH   2  14
ATOM     14  C   UNL     1      49.449   7.234  15.141  0.00  0.00    +0.000 A 
ATOM     15  C   UNL     1      50.300   8.302  14.874  0.00  0.00    +0.000 A 
ATOM     16  N   UNL     1      51.189   8.808  15.756  0.00  0.00    +0.000 NA
ATOM     17  C   UNL     1      51.251   8.207  16.967  0.00  0.00    +0.000 A 
ATOM     18  C   UNL     1      50.478   7.111  17.360  0.00  0.00    +0.000 A 
ATOM     19  C   UNL     1      49.561   6.636  16.403  0.00  0.00    +0.000 A 
BRANCH  18  20
ATOM     20  C   UNL     1      50.638   6.463  18.677  0.00  0.00    +0.000 A 
ATOM     21  C   UNL     1      49.627   5.683  19.257  0.00  0.00    +0.000 A 
ATOM     22  C   UNL     1      49.833   5.044  20.481  0.00  0.00    +0.000 A 
ATOM     23  C   UNL     1      51.052   5.211  21.113  0.00  0.00    +0.000 A 
ATOM     24  N   UNL     1      52.050   5.962  20.612  0.00  0.00    +0.000 NA
ATOM     25  C   UNL     1      51.821   6.561  19.415  0.00  0.00    +0.000 A 
ENDBRANCH  18  20
ENDBRANCH   2  14
TORSDOF 4
ENDMDL
MODEL 9
REMARK VINA RESULT:    -5.300      4.853      9.529
REMARK INTER + INTRA:          -7.035
REMARK INTER:                  -6.482
REMARK INTRA:                  -0.553
REMARK UNBOUND:                -0.496
REMARK  Name = 
REMARK  4 active torsions:
REMARK  status: ('A' for Active; 'I' for Inactive)
REMARK    1  A    between atoms: C_2  and  C_4
REMARK    2  A    between atoms: C_7  and  C_8
REMARK    3  A    between atoms: C_9  and  C_10
REMARK    4  A    between atoms: C_14  and  C_15
REMARK                            x       y       z     vdW  Elec       q    Type
REMARK                         _______ _______ _______ _____ _____    ______ ____
ROOT
ATOM      1  C   UNL     1      47.013   6.930  13.360  0.00  0.00    +0.000 C 
ATOM      2  C   UNL     1      47.583   7.960  12.713  0.00  0.00    +0.000 C 
ENDROOT
BRANCH   1   6
ATOM      3  C   UNL     1      44.783   3.827  11.554  0.00  0.00    +0.000 A 
ATOM      4  C   UNL     1      45.130   4.913  10.762  0.00  0.00    +0.000 A 
ATOM      5  C   UNL     1      45.865   5.946  11.342  0.00  0.00    +0.000 A 
ATOM      6  C   UNL     1      46.227   5.880  12.690  0.00  0.00    +0.000 A 
ATOM      7  C   UNL     1      45.850   4.730  13.389  0.00  0.00    +0.000 A 
ATOM      8  N   UNL     1      45.132   3.706  12.866  0.00  0.00    +0.000 NA
BRANCH   3  10
ATOM      9  N   UNL     1      44.456   2.184   9.800  0.00  0.00    +0.000 N 
ATOM     10  C   UNL     1      43.970   2.716  10.964  0.00  0.00    +0.000 C 
ATOM     11  O   UNL     1      42.946   2.297  11.485  0.00  0.00    +0.000 OA
ATOM     12  H   UNL     1      43.971   1.410   9.369  0.00  0.00    +0.000 HD
ATOM     13  H   UNL     1      45.323   2.535   9.409  0.00  0.00    +0.000 HD
ENDBRANCH   3  10
ENDBRANCH   1   6
BRANCH   2  14
ATOM     14  C   UNL     1      48.363   9.028  13.355  0.00  0.00    +0.000 A 
ATOM     15  C   UNL     1      49.235   9.799  12.592  0.00  0.00    +0.000 A 
ATOM     16  N   UNL     1      50.030  10.770  13.091  0.00  0.00    +0.000 NA
ATOM     17  C   UNL     1      49.971  10.975  14.428  0.00  0.00    +0.000 A 
ATOM     18  C   UNL     1      49.164  10.257  15.315  0.00  0.00    +0.000 A 
ATOM     19  C   UNL     1      48.349   9.266  14.735  0.00  0.00    +0.000 A 
BRANCH  18  20
ATOM     20  C   UNL     1      49.193  10.489  16.773  0.00  0.00    +0.000 A 
ATOM     21  C   UNL     1      48.026  10.523  17.550  0.00  0.00    +0.000 A 
ATOM     22  C   UNL     1      48.095  10.694  18.934  0.00  0.00    +0.000 A 
ATOM     23  C   UNL     1      49.340  10.844  19.516  0.00  0.00    +0.000 A 
ATOM     24  N   UNL     1      50.490  10.839  18.817  0.00  0.00    +0.000 NA
ATOM     25  C   UNL     1      50.389  10.660  17.476  0.00  0.00    +0.000 A 
ENDBRANCH  18  20
ENDBRANCH   2  14
TORSDOF 4
ENDMDL
