MODEL 1
REMARK VINA RESULT:    -8.547      0.000      0.000
REMARK INTER + INTRA:         -10.809
REMARK INTER:                 -10.796
REMARK INTRA:                  -0.014
REMARK UNBOUND:                -0.014
REMARK  Name = 
REMARK  6 active torsions:
REMARK  status: ('A' for Active; 'I' for Inactive)
REMARK    1  A    between atoms: C_1  and  C_2
REMARK    2  A    between atoms: C_4  and  C_5
REMARK    3  A    between atoms: C_10  and  N_11
REMARK    4  A    between atoms: N_11  and  C_12
REMARK    5  A    between atoms: C_12  and  C_13
REMARK    6  A    between atoms: C_16  and  O_17
REMARK                            x       y       z     vdW  Elec       q    Type
REMARK                         _______ _______ _______ _____ _____    ______ ____
ROOT
ATOM      1  N   UNL     1      43.954   4.984  10.112  0.00  0.00    +0.000 N 
ATOM      2  H   UNL     1      43.734   5.892   9.719  0.00  0.00    +0.000 HD
ENDROOT
BRANCH   1   9
ATOM      3  C   UNL     1      43.922   2.097  10.315  0.00  0.00    +0.000 C 
ATOM      4  C   UNL     1      44.812   2.842   9.364  0.00  0.00    +0.000 A 
ATOM      5  C   UNL     1      45.734   2.105   8.600  0.00  0.00    +0.000 A 
ATOM      6  C   UNL     1      46.568   2.736   7.684  0.00  0.00    +0.000 A 
ATOM      7  C   UNL     1      46.417   4.108   7.560  0.00  0.00    +0.000 A 
ATOM      8  N   UNL     1      45.552   4.863   8.304  0.00  0.00    +0.000 NA
ATOM      9  C   UNL     1      44.761   4.240   9.210  0.00  0.00    +0.000 A 
BRANCH   6  10
ATOM     10  C   UNL     1      47.539   1.900   6.929  0.00  0.00    +0.000 C 
ATOM     11  N   UNL     1      48.623   2.486   6.344  0.00  0.00    +0.000 N 
ATOM     12  O   UNL     1      47.386   0.687   6.836  0.00  0.00    +0.000 OA
ATOM     13  H   UNL     1      48.877   3.459   6.400  0.00  0.00    +0.000 HD
ATOM     14  H   UNL     1      49.270   1.863   5.873  0.00  0.00    +0.000 HD
ENDBRANCH   6  10
ENDBRANCH   1   9
BRANCH   1  15
ATOM     15  C   UNL     1      44.160   4.978  11.579  0.00  0.00    +0.000 C 
ATOM     16  C   UNL     1      43.314   4.091  12.473  0.00  0.00    +0.000 C 
ATOM     17  C   UNL     1      43.032   5.554  12.438  0.00  0.00    +0.000 C 
BRANCH  15  18
ATOM     18  C   UNL     1      45.567   5.390  12.024  0.00  0.00    +0.000 A 
ATOM     19  C   UNL     1      46.225   4.738  13.082  0.00  0.00    +0.000 A 
ATOM     20  C   UNL     1      47.489   5.145  13.535  0.00  0.00    +0.000 A 
ATOM     21  C   UNL     1      48.125   6.213  12.914  0.00  0.00    +0.000 A 
ATOM     22  C   UNL     1      47.504   6.872  11.859  0.00  0.00    +0.000 A 
ATOM     23  F   UNL     1      48.101   7.910  11.259  0.00  0.00    +0.000 F 
ATOM     24  C   UNL     1      46.243   6.468  11.419  0.00  0.00    +0.000 A 
BRANCH  21  25
ATOM     25  O   UNL     1      49.359   6.630  13.330  0.00  0.00    +0.000 OA
ATOM     26  H   UNL     1      49.407   7.597  13.261  0.00  0.00    +0.000 HD
ENDBRANCH  21  25
ENDBRANCH  15  18
ENDBRANCH   1  15
TORSDOF 5
ENDMDL
MODEL 2
REMARK VINA RESULT:    -8.393      1.763      2.106
REMARK INTER + INTRA:         -10.614
REMARK INTER:                 -10.069
REMARK INTRA:                  -0.545
REMARK UNBOUND:                -0.014
REMARK  Name = 
REMARK  6 active torsions:
REMARK  status: ('A' for Active; 'I' for Inactive)
REMARK    1  A    between atoms: C_1  and  C_2
REMARK    2  A    between atoms: C_4  and  C_5
REMARK    3  A    between atoms: C_10  and  N_11
REMARK    4  A    between atoms: N_11  and  C_12
REMARK    5  A    between atoms: C_12  and  C_13
REMARK    6  A    between atoms: C_16  and  O_17
REMARK                            x       y       z     vdW  Elec       q    Type
REMARK                         _______ _______ _______ _____ _____    ______ ____
ROOT
ATOM      1  N   UNL     1      44.499   4.998  10.237  0.00  0.00    +0.000 N 
ATOM      2  H   UNL     1      43.952   5.771   9.875  0.00  0.00    +0.000 HD
ENDROOT
BRANCH   1   9
ATOM      3  C   UNL     1      44.150   2.145   9.905  0.00  0.00    +0.000 C 
ATOM      4  C   UNL     1      45.098   2.957   9.072  0.00  0.00    +0.000 A 
ATOM      5  C   UNL     1      45.916   2.283   8.148  0.00  0.00    +0.000 A 
ATOM      6  C   UNL     1      46.796   2.984   7.330  0.00  0.00    +0.000 A 
ATOM      7  C   UNL     1      46.796   4.363   7.468  0.00  0.00    +0.000 A 
ATOM      8  N   UNL     1      46.036   5.051   8.373  0.00  0.00    +0.000 NA
ATOM      9  C   UNL     1      45.200   4.356   9.181  0.00  0.00    +0.000 A 
BRANCH   6  10
ATOM     10  C   UNL     1      47.653   2.207   6.395  0.00  0.00    +0.000 C 
ATOM     11  N   UNL     1      48.081   2.783   5.236  0.00  0.00    +0.000 N 
ATOM     12  O   UNL     1      47.991   1.058   6.658  0.00  0.00    +0.000 OA
ATOM     13  H   UNL     1      47.911   3.732   4.943  0.00  0.00    +0.000 HD
ATOM     14  H   UNL     1      48.691   2.219   4.653  0.00  0.00    +0.000 HD
ENDBRANCH   6  10
ENDBRANCH   1   9
BRANCH   1  15
ATOM     15  C   UNL     1      45.087   5.230  11.578  0.00  0.00    +0.000 C 
ATOM     16  C   UNL     1      45.635   4.071  12.389  0.00  0.00    +0.000 C 
ATOM     17  C   UNL     1      44.322   4.661  12.774  0.00  0.00    +0.000 C 
BRANCH  15  18
ATOM     18  C   UNL     1      45.639   6.642  11.794  0.00  0.00    +0.000 A 
ATOM     19  C   UNL     1      47.018   6.880  11.929  0.00  0.00    +0.000 A 
ATOM     20  C   UNL     1      47.529   8.162  12.184  0.00  0.00    +0.000 A 
ATOM     21  C   UNL     1      46.656   9.237  12.291  0.00  0.00    +0.000 A 
ATOM     22  C   UNL     1      45.287   9.034  12.154  0.00  0.00    +0.000 A 
ATOM     23  F   UNL     1      44.432  10.060  12.266  0.00  0.00    +0.000 F 
ATOM     24  C   UNL     1      44.784   7.756  11.909  0.00  0.00    +0.000 A 
BRANCH  21  25
ATOM     25  O   UNL     1      47.124  10.498  12.537  0.00  0.00    +0.000 OA
ATOM     26  H   UNL     1      48.093  10.474  12.583  0.00  0.00    +0.000 HD
ENDBRANCH  21  25
ENDBRANCH  15  18
ENDBRANCH   1  15
TORSDOF 5
ENDMDL
MODEL 3
REMARK VINA RESULT:    -8.103      1.686      2.331
REMARK INTER + INTRA:         -10.249
REMARK INTER:                  -9.444
REMARK INTRA:                  -0.805
REMARK UNBOUND:                -0.014
REMARK  Name = 
REMARK  6 active torsions:
REMARK  status: ('A' for Active; 'I' for Inactive)
REMARK    1  A    between atoms: C_1  and  C_2
REMARK    2  A    between atoms: C_4  and  C_5
REMARK    3  A    between atoms: C_10  and  N_11
REMARK    4  A    between atoms: N_11  and  C_12
REMARK    5  A    between atoms: C_12  and  C_13
REMARK    6  A    between atoms: C_16  and  O_17
REMARK                            x       y       z     vdW  Elec       q    Type
REMARK                         _______ _______ _______ _____ _____    ______ ____
ROOT
ATOM      1  N   UNL     1      43.941   4.843   9.834  0.00  0.00    +0.000 N 
ATOM      2  H   UNL     1      44.057   5.664   9.251  0.00  0.00    +0.000 HD
ENDROOT
BRANCH   1   9
ATOM      3  C   UNL     1      46.380   5.485   8.414  0.00  0.00    +0.000 C 
ATOM      4  C   UNL     1      45.866   4.083   8.570  0.00  0.00    +0.000 A 
ATOM      5  C   UNL     1      46.558   3.046   7.921  0.00  0.00    +0.000 A 
ATOM      6  C   UNL     1      46.146   1.723   8.049  0.00  0.00    +0.000 A 
ATOM      7  C   UNL     1      45.045   1.500   8.860  0.00  0.00    +0.000 A 
ATOM      8  N   UNL     1      44.330   2.484   9.485  0.00  0.00    +0.000 NA
ATOM      9  C   UNL     1      44.727   3.770   9.334  0.00  0.00    +0.000 A 
BRANCH   6  10
ATOM     10  C   UNL     1      46.907   0.678   7.313  0.00  0.00    +0.000 C 
ATOM     11  N   UNL     1      46.675  -0.639   7.581  0.00  0.00    +0.000 N 
ATOM     12  O   UNL     1      47.731   0.984   6.458  0.00  0.00    +0.000 OA
ATOM     13  H   UNL     1      45.988  -1.006   8.220  0.00  0.00    +0.000 HD
ATOM     14  H   UNL     1      47.196  -1.308   7.024  0.00  0.00    +0.000 HD
ENDBRANCH   6  10
ENDBRANCH   1   9
BRANCH   1  15
ATOM     15  C   UNL     1      43.784   5.128  11.280  0.00  0.00    +0.000 C 
ATOM     16  C   UNL     1      42.609   4.561  12.054  0.00  0.00    +0.000 C 
ATOM     17  C   UNL     1      42.597   6.004  11.686  0.00  0.00    +0.000 C 
BRANCH  15  18
ATOM     18  C   UNL     1      45.091   5.456  12.009  0.00  0.00    +0.000 A 
ATOM     19  C   UNL     1      45.931   6.499  11.578  0.00  0.00    +0.000 A 
ATOM     20  C   UNL     1      47.158   6.769  12.203  0.00  0.00    +0.000 A 
ATOM     21  C   UNL     1      47.555   6.002  13.291  0.00  0.00    +0.000 A 
ATOM     22  C   UNL     1      46.741   4.970  13.745  0.00  0.00    +0.000 A 
ATOM     23  F   UNL     1      47.116   4.215  14.786  0.00  0.00    +0.000 F 
ATOM     24  C   UNL     1      45.527   4.699  13.114  0.00  0.00    +0.000 A 
BRANCH  21  25
ATOM     25  O   UNL     1      48.742   6.245  13.923  0.00  0.00    +0.000 OA
ATOM     26  H   UNL     1      49.028   7.151  13.726  0.00  0.00    +0.000 HD
ENDBRANCH  21  25
ENDBRANCH  15  18
ENDBRANCH   1  15
TORSDOF 5
ENDMDL
MODEL 4
REMARK VINA RESULT:    -7.303      2.816      6.466
REMARK INTER + INTRA:          -9.238
REMARK INTER:                  -9.243
REMARK INTRA:                   0.004
REMARK UNBOUND:                -0.014
REMARK  Name = 
REMARK  6 active torsions:
REMARK  status: ('A' for Active; 'I' for Inactive)
REMARK    1  A    between atoms: C_1  and  C_2
REMARK    2  A    between atoms: C_4  and  C_5
REMARK    3  A    between atoms: C_10  and  N_11
REMARK    4  A    between atoms: N_11  and  C_12
REMARK    5  A    between atoms: C_12  and  C_13
REMARK    6  A    between atoms: C_16  and  O_17
REMARK                            x       y       z     vdW  Elec       q    Type
REMARK                         _______ _______ _______ _____ _____    ______ ____
ROOT
ATOM      1  N   UNL     1      44.632   5.005   9.716  0.00  0.00    +0.000 N 
ATOM      2  H   UNL     1      43.687   5.297   9.496  0.00  0.00    +0.000 HD
ENDROOT
BRANCH   1   9
ATOM      3  C   UNL     1      42.871   6.420  11.524  0.00  0.00    +0.000 C 
ATOM      4  C   UNL     1      44.354   6.645  11.481  0.00  0.00    +0.000 A 
ATOM      5  C   UNL     1      44.898   7.652  12.297  0.00  0.00    +0.000 A 
ATOM      6  C   UNL     1      46.268   7.890  12.319  0.00  0.00    +0.000 A 
ATOM      7  C   UNL     1      47.047   7.070  11.518  0.00  0.00    +0.000 A 
ATOM      8  N   UNL     1      46.553   6.099  10.691  0.00  0.00    +0.000 NA
ATOM      9  C   UNL     1      45.215   5.892  10.660  0.00  0.00    +0.000 A 
BRANCH   6  10
ATOM     10  C   UNL     1      46.774   8.989  13.185  0.00  0.00    +0.000 C 
ATOM     11  N   UNL     1      46.673  10.281  12.762  0.00  0.00    +0.000 N 
ATOM     12  O   UNL     1      47.270   8.750  14.281  0.00  0.00    +0.000 OA
ATOM     13  H   UNL     1      46.238  10.597  11.910  0.00  0.00    +0.000 HD
ATOM     14  H   UNL     1      47.001  10.992  13.407  0.00  0.00    +0.000 HD
ENDBRANCH   6  10
ENDBRANCH   1   9
BRANCH   1  15
ATOM     15  C   UNL     1      44.834   3.537   9.750  0.00  0.00    +0.000 C 
ATOM     16  C   UNL     1      43.776   2.627  10.343  0.00  0.00    +0.000 C 
ATOM     17  C   UNL     1      45.013   2.896  11.127  0.00  0.00    +0.000 C 
BRANCH  15  18
ATOM     18  C   UNL     1      45.786   3.002   8.674  0.00  0.00    +0.000 A 
ATOM     19  C   UNL     1      46.461   3.866   7.794  0.00  0.00    +0.000 A 
ATOM     20  C   UNL     1      47.288   3.383   6.769  0.00  0.00    +0.000 A 
ATOM     21  C   UNL     1      47.467   2.013   6.623  0.00  0.00    +0.000 A 
ATOM     22  C   UNL     1      46.820   1.134   7.484  0.00  0.00    +0.000 A 
ATOM     23  F   UNL     1      46.974  -0.190   7.348  0.00  0.00    +0.000 F 
ATOM     24  C   UNL     1      45.990   1.620   8.495  0.00  0.00    +0.000 A 
BRANCH  21  25
ATOM     25  O   UNL     1      48.270   1.513   5.636  0.00  0.00    +0.000 OA
ATOM     26  H   UNL     1      48.424   2.203   4.971  0.00  0.00    +0.000 HD
ENDBRANCH  21  25
ENDBRANCH  15  18
ENDBRANCH   1  15
TORSDOF 5
ENDMDL
MODEL 5
REMARK VINA RESULT:    -7.282      1.615      2.014
REMARK INTER + INTRA:          -9.211
REMARK INTER:                  -9.618
REMARK INTRA:                   0.407
REMARK UNBOUND:                -0.014
REMARK  Name = 
REMARK  6 active torsions:
REMARK  status: ('A' for Active; 'I' for Inactive)
REMARK    1  A    between atoms: C_1  and  C_2
REMARK    2  A    between atoms: C_4  and  C_5
REMARK    3  A    between atoms: C_10  and  N_11
REMARK    4  A    between atoms: N_11  and  C_12
REMARK    5  A    between atoms: C_12  and  C_13
REMARK    6  A    between atoms: C_16  and  O_17
REMARK                            x       y       z     vdW  Elec       q    Type
REMARK                         _______ _______ _______ _____ _____    ______ ____
ROOT
ATOM      1  N   UNL     1      44.326   5.119  10.257  0.00  0.00    +0.000 N 
ATOM      2  H   UNL     1      43.469   5.488   9.860  0.00  0.00    +0.000 HD
ENDROOT
BRANCH   1   9
ATOM      3  C   UNL     1      43.969   2.247  10.265  0.00  0.00    +0.000 C 
ATOM      4  C   UNL     1      44.922   2.952   9.345  0.00  0.00    +0.000 A 
ATOM      5  C   UNL     1      45.740   2.171   8.511  0.00  0.00    +0.000 A 
ATOM      6  C   UNL     1      46.625   2.767   7.618  0.00  0.00    +0.000 A 
ATOM      7  C   UNL     1      46.629   4.152   7.592  0.00  0.00    +0.000 A 
ATOM      8  N   UNL     1      45.869   4.945   8.406  0.00  0.00    +0.000 NA
ATOM      9  C   UNL     1      45.028   4.354   9.287  0.00  0.00    +0.000 A 
BRANCH   6  10
ATOM     10  C   UNL     1      47.482   1.882   6.784  0.00  0.00    +0.000 C 
ATOM     11  N   UNL     1      48.599   2.389   6.190  0.00  0.00    +0.000 N 
ATOM     12  O   UNL     1      47.204   0.697   6.635  0.00  0.00    +0.000 OA
ATOM     13  H   UNL     1      48.951   3.328   6.287  0.00  0.00    +0.000 HD
ATOM     14  H   UNL     1      49.164   1.732   5.663  0.00  0.00    +0.000 HD
ENDBRANCH   6  10
ENDBRANCH   1   9
BRANCH   1  15
ATOM     15  C   UNL     1      44.999   6.019  11.223  0.00  0.00    +0.000 C 
ATOM     16  C   UNL     1      44.459   7.413  11.482  0.00  0.00    +0.000 C 
ATOM     17  C   UNL     1      45.683   7.261  10.648  0.00  0.00    +0.000 C 
BRANCH  15  18
ATOM     18  C   UNL     1      45.806   5.298  12.308  0.00  0.00    +0.000 A 
ATOM     19  C   UNL     1      45.708   3.908  12.495  0.00  0.00    +0.000 A 
ATOM     20  C   UNL     1      46.398   3.247  13.523  0.00  0.00    +0.000 A 
ATOM     21  C   UNL     1      47.218   3.977  14.374  0.00  0.00    +0.000 A 
ATOM     22  C   UNL     1      47.341   5.351  14.209  0.00  0.00    +0.000 A 
ATOM     23  F   UNL     1      48.120   6.069  15.030  0.00  0.00    +0.000 F 
ATOM     24  C   UNL     1      46.646   6.005  13.191  0.00  0.00    +0.000 A 
BRANCH  21  25
ATOM     25  O   UNL     1      47.905   3.360  15.383  0.00  0.00    +0.000 OA
ATOM     26  H   UNL     1      48.800   3.147  15.074  0.00  0.00    +0.000 HD
ENDBRANCH  21  25
ENDBRANCH  15  18
ENDBRANCH   1  15
TORSDOF 5
ENDMDL
MODEL 6
REMARK VINA RESULT:    -7.031      2.873      6.197
REMARK INTER + INTRA:          -8.894
REMARK INTER:                  -8.632
REMARK INTRA:                  -0.262
REMARK UNBOUND:                -0.014
REMARK  Name = 
REMARK  6 active torsions:
REMARK  status: ('A' for Active; 'I' for Inactive)
REMARK    1  A    between atoms: C_1  and  C_2
REMARK    2  A    between atoms: C_4  and  C_5
REMARK    3  A    between atoms: C_10  and  N_11
REMARK    4  A    between atoms: N_11  and  C_12
REMARK    5  A    between atoms: C_12  and  C_13
REMARK    6  A    between atoms: C_16  and  O_17
REMARK                            x       y       z     vdW  Elec       q    Type
REMARK                         _______ _______ _______ _____ _____    ______ ____
ROOT
ATOM      1  N   UNL     1      45.191   4.908  12.570  0.00  0.00    +0.000 N 
ATOM      2  H   UNL     1      45.330   3.993  12.982  0.00  0.00    +0.000 HD
ENDROOT
BRANCH   1   9
ATOM      3  C   UNL     1      46.942   4.396  14.817  0.00  0.00    +0.000 C 
ATOM      4  C   UNL     1      47.182   5.496  13.825  0.00  0.00    +0.000 A 
ATOM      5  C   UNL     1      48.259   6.371  14.050  0.00  0.00    +0.000 A 
ATOM      6  C   UNL     1      48.547   7.394  13.153  0.00  0.00    +0.000 A 
ATOM      7  C   UNL     1      47.733   7.477  12.036  0.00  0.00    +0.000 A 
ATOM      8  N   UNL     1      46.660   6.664  11.796  0.00  0.00    +0.000 NA
ATOM      9  C   UNL     1      46.375   5.685  12.688  0.00  0.00    +0.000 A 
BRANCH   6  10
ATOM     10  C   UNL     1      49.684   8.301  13.467  0.00  0.00    +0.000 C 
ATOM     11  N   UNL     1      50.963   7.840  13.361  0.00  0.00    +0.000 N 
ATOM     12  O   UNL     1      49.488   9.463  13.806  0.00  0.00    +0.000 OA
ATOM     13  H   UNL     1      51.243   6.926  13.041  0.00  0.00    +0.000 HD
ATOM     14  H   UNL     1      51.699   8.511  13.552  0.00  0.00    +0.000 HD
ENDBRANCH   6  10
ENDBRANCH   1   9
BRANCH   1  15
ATOM     15  C   UNL     1      44.330   4.920  11.364  0.00  0.00    +0.000 C 
ATOM     16  C   UNL     1      43.292   6.009  11.168  0.00  0.00    +0.000 C 
ATOM     17  C   UNL     1      42.839   4.650  11.578  0.00  0.00    +0.000 C 
BRANCH  15  18
ATOM     18  C   UNL     1      44.933   4.211  10.147  0.00  0.00    +0.000 A 
ATOM     19  C   UNL     1      45.567   4.929   9.117  0.00  0.00    +0.000 A 
ATOM     20  C   UNL     1      46.070   4.295   7.971  0.00  0.00    +0.000 A 
ATOM     21  C   UNL     1      45.960   2.916   7.849  0.00  0.00    +0.000 A 
ATOM     22  C   UNL     1      45.345   2.178   8.854  0.00  0.00    +0.000 A 
ATOM     23  F   UNL     1      45.221   0.849   8.744  0.00  0.00    +0.000 F 
ATOM     24  C   UNL     1      44.838   2.815   9.988  0.00  0.00    +0.000 A 
BRANCH  21  25
ATOM     25  O   UNL     1      46.444   2.270   6.746  0.00  0.00    +0.000 OA
ATOM     26  H   UNL     1      46.638   2.923   6.054  0.00  0.00    +0.000 HD
ENDBRANCH  21  25
ENDBRANCH  15  18
ENDBRANCH   1  15
TORSDOF 5
ENDMDL
MODEL 7
REMARK VINA RESULT:    -6.884      4.898      7.709
REMARK INTER + INTRA:          -8.709
REMARK INTER:                  -8.157
REMARK INTRA:                  -0.552
REMARK UNBOUND:                -0.014
REMARK  Name = 
REMARK  6 active torsions:
REMARK  status: ('A' for Active; 'I' for Inactive)
REMARK    1  A    between atoms: C_1  and  C_2
REMARK    2  A    between atoms: C_4  and  C_5
REMARK    3  A    between atoms: C_10  and  N_11
REMARK    4  A    between atoms: N_11  and  C_12
REMARK    5  A    between atoms: C_12  and  C_13
REMARK    6  A    between atoms: C_16  and  O_17
REMARK                            x       y       z     vdW  Elec       q    Type
REMARK                         _______ _______ _______ _____ _____    ______ ____
ROOT
ATOM      1  N   UNL     1      47.088   5.167  15.618  0.00  0.00    +0.000 N 
ATOM      2  H   UNL     1      46.184   5.031  16.056  0.00  0.00    +0.000 HD
ENDROOT
BRANCH   1   9
ATOM      3  C   UNL     1      49.040   6.401  17.363  0.00  0.00    +0.000 C 
ATOM      4  C   UNL     1      49.062   4.942  17.010  0.00  0.00    +0.000 A 
ATOM      5  C   UNL     1      50.131   4.160  17.480  0.00  0.00    +0.000 A 
ATOM      6  C   UNL     1      50.193   2.798  17.207  0.00  0.00    +0.000 A 
ATOM      7  C   UNL     1      49.142   2.271  16.475  0.00  0.00    +0.000 A 
ATOM      8  N   UNL     1      48.099   3.003  15.978  0.00  0.00    +0.000 NA
ATOM      9  C   UNL     1      48.061   4.333  16.230  0.00  0.00    +0.000 A 
BRANCH   6  10
ATOM     10  C   UNL     1      51.367   2.035  17.711  0.00  0.00    +0.000 C 
ATOM     11  N   UNL     1      51.310   0.675  17.775  0.00  0.00    +0.000 N 
ATOM     12  O   UNL     1      52.392   2.613  18.057  0.00  0.00    +0.000 OA
ATOM     13  H   UNL     1      50.546   0.095  17.468  0.00  0.00    +0.000 HD
ATOM     14  H   UNL     1      52.151   0.205  18.092  0.00  0.00    +0.000 HD
ENDBRANCH   6  10
ENDBRANCH   1   9
BRANCH   1  15
ATOM     15  C   UNL     1      47.038   5.420  14.159  0.00  0.00    +0.000 C 
ATOM     16  C   UNL     1      48.299   5.775  13.394  0.00  0.00    +0.000 C 
ATOM     17  C   UNL     1      47.315   6.851  13.696  0.00  0.00    +0.000 C 
BRANCH  15  18
ATOM     18  C   UNL     1      45.874   4.735  13.436  0.00  0.00    +0.000 A 
ATOM     19  C   UNL     1      46.016   3.464  12.853  0.00  0.00    +0.000 A 
ATOM     20  C   UNL     1      44.973   2.854  12.138  0.00  0.00    +0.000 A 
ATOM     21  C   UNL     1      43.755   3.510  12.014  0.00  0.00    +0.000 A 
ATOM     22  C   UNL     1      43.582   4.764  12.587  0.00  0.00    +0.000 A 
ATOM     23  F   UNL     1      42.416   5.414  12.464  0.00  0.00    +0.000 F 
ATOM     24  C   UNL     1      44.625   5.370  13.288  0.00  0.00    +0.000 A 
BRANCH  21  25
ATOM     25  O   UNL     1      42.720   2.939  11.327  0.00  0.00    +0.000 OA
ATOM     26  H   UNL     1      43.012   2.735  10.424  0.00  0.00    +0.000 HD
ENDBRANCH  21  25
ENDBRANCH  15  18
ENDBRANCH   1  15
TORSDOF 5
ENDMDL
MODEL 8
REMARK VINA RESULT:    -6.678      2.687      6.223
REMARK INTER + INTRA:          -8.448
REMARK INTER:                  -8.683
REMARK INTRA:                   0.235
REMARK UNBOUND:                -0.014
REMARK  Name = 
REMARK  6 active torsions:
REMARK  status: ('A' for Active; 'I' for Inactive)
REMARK    1  A    between atoms: C_1  and  C_2
REMARK    2  A    between atoms: C_4  and  C_5
REMARK    3  A    between atoms: C_10  and  N_11
REMARK    4  A    between atoms: N_11  and  C_12
REMARK    5  A    between atoms: C_12  and  C_13
REMARK    6  A    between atoms: C_16  and  O_17
REMARK                            x       y       z     vdW  Elec       q    Type
REMARK                         _______ _______ _______ _____ _____    ______ ____
ROOT
ATOM      1  N   UNL     1      44.765   6.708  11.206  0.00  0.00    +0.000 N 
ATOM      2  H   UNL     1      44.209   7.554  11.148  0.00  0.00    +0.000 HD
ENDROOT
BRANCH   1   9
ATOM      3  C   UNL     1      45.023   9.271  12.525  0.00  0.00    +0.000 C 
ATOM      4  C   UNL     1      46.014   8.157  12.696  0.00  0.00    +0.000 A 
ATOM      5  C   UNL     1      47.165   8.404  13.465  0.00  0.00    +0.000 A 
ATOM      6  C   UNL     1      48.107   7.403  13.680  0.00  0.00    +0.000 A 
ATOM      7  C   UNL     1      47.830   6.168  13.118  0.00  0.00    +0.000 A 
ATOM      8  N   UNL     1      46.736   5.897  12.342  0.00  0.00    +0.000 NA
ATOM      9  C   UNL     1      45.837   6.885  12.120  0.00  0.00    +0.000 A 
BRANCH   6  10
ATOM     10  C   UNL     1      49.316   7.740  14.480  0.00  0.00    +0.000 C 
ATOM     11  N   UNL     1      50.555   7.529  13.951  0.00  0.00    +0.000 N 
ATOM     12  O   UNL     1      49.214   8.218  15.604  0.00  0.00    +0.000 OA
ATOM     13  H   UNL     1      50.758   7.194  13.023  0.00  0.00    +0.000 HD
ATOM     14  H   UNL     1      51.342   7.810  14.526  0.00  0.00    +0.000 HD
ENDBRANCH   6  10
ENDBRANCH   1   9
BRANCH   1  15
ATOM     15  C   UNL     1      43.989   5.450  11.099  0.00  0.00    +0.000 C 
ATOM     16  C   UNL     1      42.512   5.424  11.442  0.00  0.00    +0.000 C 
ATOM     17  C   UNL     1      43.483   4.837  12.406  0.00  0.00    +0.000 C 
BRANCH  15  18
ATOM     18  C   UNL     1      44.560   4.435  10.103  0.00  0.00    +0.000 A 
ATOM     19  C   UNL     1      44.242   3.067  10.183  0.00  0.00    +0.000 A 
ATOM     20  C   UNL     1      44.805   2.122   9.312  0.00  0.00    +0.000 A 
ATOM     21  C   UNL     1      45.690   2.542   8.328  0.00  0.00    +0.000 A 
ATOM     22  C   UNL     1      46.018   3.889   8.218  0.00  0.00    +0.000 A 
ATOM     23  F   UNL     1      46.879   4.307   7.281  0.00  0.00    +0.000 F 
ATOM     24  C   UNL     1      45.462   4.824   9.093  0.00  0.00    +0.000 A 
BRANCH  21  25
ATOM     25  O   UNL     1      46.252   1.645   7.463  0.00  0.00    +0.000 OA
ATOM     26  H   UNL     1      46.254   2.024   6.568  0.00  0.00    +0.000 HD
ENDBRANCH  21  25
ENDBRANCH  15  18
ENDBRANCH   1  15
TORSDOF 5
ENDMDL
MODEL 9
REMARK VINA RESULT:    -6.429      4.136      7.480
REMARK INTER + INTRA:          -8.135
REMARK INTER:                  -7.974
REMARK INTRA:                  -0.160
REMARK UNBOUND:                -0.014
REMARK  Name = 
REMARK  6 active torsions:
REMARK  status: ('A' for Active; 'I' for Inactive)
REMARK    1  A    between atoms: C_1  and  C_2
REMARK    2  A    between atoms: C_4  and  C_5
REMARK    3  A    between atoms: C_10  and  N_11
REMARK    4  A    between atoms: N_11  and  C_12
REMARK    5  A    between atoms: C_12  and  C_13
REMARK    6  A    between atoms: C_16  and  O_17
REMARK                            x       y       z     vdW  Elec       q    Type
REMARK                         _______ _______ _______ _____ _____    ______ ____
ROOT
ATOM      1  N   UNL     1      47.795   6.026  13.131  0.00  0.00    +0.000 N 
ATOM      2  H   UNL     1      48.646   6.484  12.827  0.00  0.00    +0.000 HD
ENDROOT
BRANCH   1   9
ATOM      3  C   UNL     1      49.138   7.855  14.927  0.00  0.00    +0.000 C 
ATOM      4  C   UNL     1      48.618   6.515  15.359  0.00  0.00    +0.000 A 
ATOM      5  C   UNL     1      48.874   6.096  16.676  0.00  0.00    +0.000 A 
ATOM      6  C   UNL     1      48.397   4.876  17.143  0.00  0.00    +0.000 A 
ATOM      7  C   UNL     1      47.648   4.128  16.249  0.00  0.00    +0.000 A 
ATOM      8  N   UNL     1      47.401   4.488  14.953  0.00  0.00    +0.000 NA
ATOM      9  C   UNL     1      47.891   5.668  14.502  0.00  0.00    +0.000 A 
BRANCH   6  10
ATOM     10  C   UNL     1      48.728   4.482  18.539  0.00  0.00    +0.000 C 
ATOM     11  N   UNL     1      48.303   3.279  19.019  0.00  0.00    +0.000 N 
ATOM     12  O   UNL     1      49.391   5.219  19.260  0.00  0.00    +0.000 OA
ATOM     13  H   UNL     1      47.802   2.574  18.501  0.00  0.00    +0.000 HD
ATOM     14  H   UNL     1      48.588   3.047  19.964  0.00  0.00    +0.000 HD
ENDBRANCH   6  10
ENDBRANCH   1   9
BRANCH   1  15
ATOM     15  C   UNL     1      46.554   6.553  12.515  0.00  0.00    +0.000 C 
ATOM     16  C   UNL     1      46.579   7.839  11.712  0.00  0.00    +0.000 C 
ATOM     17  C   UNL     1      46.002   7.861  13.085  0.00  0.00    +0.000 C 
BRANCH  15  18
ATOM     18  C   UNL     1      45.489   5.491  12.223  0.00  0.00    +0.000 A 
ATOM     19  C   UNL     1      44.573   5.077  13.207  0.00  0.00    +0.000 A 
ATOM     20  C   UNL     1      43.633   4.064  12.966  0.00  0.00    +0.000 A 
ATOM     21  C   UNL     1      43.585   3.458  11.717  0.00  0.00    +0.000 A 
ATOM     22  C   UNL     1      44.472   3.851  10.722  0.00  0.00    +0.000 A 
ATOM     23  F   UNL     1      44.446   3.268   9.516  0.00  0.00    +0.000 F 
ATOM     24  C   UNL     1      45.412   4.853  10.969  0.00  0.00    +0.000 A 
BRANCH  21  25
ATOM     25  O   UNL     1      42.678   2.471  11.452  0.00  0.00    +0.000 OA
ATOM     26  H   UNL     1      41.918   2.568  12.049  0.00  0.00    +0.000 HD
ENDBRANCH  21  25
ENDBRANCH  15  18
ENDBRANCH   1  15
TORSDOF 5
ENDMDL
