MODEL 1
REMARK VINA RESULT:    -8.628      0.000      0.000
REMARK INTER + INTRA:         -12.405
REMARK INTER:                 -11.654
REMARK INTRA:                  -0.751
REMARK UNBOUND:                -0.751
REMARK  Name = 
REMARK  7 active torsions:
REMARK  status: ('A' for Active; 'I' for Inactive)
REMARK    1  A    between atoms: C_1  and  N_2
REMARK    2  A    between atoms: N_2  and  C_3
REMARK    3  A    between atoms: C_3  and  C_4
REMARK    4  A    between atoms: C_7  and  C_8
REMARK    5  A    between atoms: C_8  and  N_9
REMARK    6  A    between atoms: C_10  and  C_12
REMARK    7  A    between atoms: C_19  and  C_21
REMARK                            x       y       z     vdW  Elec       q    Type
REMARK                         _______ _______ _______ _____ _____    ______ ____
ROOT
ATOM      1  C   UNL     1      47.586   5.587  13.793  0.00  0.00    +0.000 A 
ATOM      2  C   UNL     1      48.136   6.225  14.898  0.00  0.00    +0.000 A 
ATOM      3  C   UNL     1      48.176   5.541  16.112  0.00  0.00    +0.000 A 
ATOM      4  C   UNL     1      47.678   4.238  16.193  0.00  0.00    +0.000 A 
ATOM      5  C   UNL     1      47.120   3.695  15.043  0.00  0.00    +0.000 A 
ATOM      6  N   UNL     1      47.062   4.337  13.857  0.00  0.00    +0.000 NA
ENDROOT
BRANCH   1   7
ATOM      7  C   UNL     1      47.557   6.271  12.447  0.00  0.00    +0.000 C 
BRANCH   7   9
ATOM      8  C   UNL     1      46.973   8.723  12.303  0.00  0.00    +0.000 C 
ATOM      9  N   UNL     1      46.558   7.330  12.243  0.00  0.00    +0.000 N 
ATOM     10  C   UNL     1      45.270   7.080  11.744  0.00  0.00    +0.000 C 
ATOM     11  O   UNL     1      44.552   7.995  11.347  0.00  0.00    +0.000 OA
BRANCH  10  12
ATOM     12  C   UNL     1      44.770   5.698  11.728  0.00  0.00    +0.000 A 
ATOM     13  C   UNL     1      44.022   5.128  12.746  0.00  0.00    +0.000 A 
ATOM     14  S   UNL     1      43.537   3.525  12.425  0.00  0.00    +0.000 S 
ATOM     15  C   UNL     1      44.197   3.586  10.859  0.00  0.00    +0.000 A 
ATOM     16  N   UNL     1      44.047   2.543   9.999  0.00  0.00    +0.000 NA
ATOM     17  C   UNL     1      44.552   2.749   8.829  0.00  0.00    +0.000 A 
ATOM     18  N   UNL     1      45.223   3.887   8.454  0.00  0.00    +0.000 N 
ATOM     19  C   UNL     1      45.506   4.913   9.327  0.00  0.00    +0.000 A 
ATOM     20  O   UNL     1      46.297   5.799   9.024  0.00  0.00    +0.000 OA
ATOM     21  C   UNL     1      44.857   4.777  10.620  0.00  0.00    +0.000 A 
ATOM     22  H   UNL     1      45.652   3.953   7.542  0.00  0.00    +0.000 HD
ENDBRANCH  10  12
ENDBRANCH   7   9
ENDBRANCH   1   7
BRANCH   4  23
ATOM     23  C   UNL     1      47.732   3.440  17.461  0.00  0.00    +0.000 C 
BRANCH  23  24
ATOM     24  N   UNL     1      49.082   3.088  17.822  0.00  0.00    +0.000 N 
ATOM     25  C   UNL     1      49.783   2.150  17.102  0.00  0.00    +0.000 C 
ATOM     26  O   UNL     1      49.298   1.563  16.144  0.00  0.00    +0.000 OA
ATOM     27  H   UNL     1      49.535   3.602  18.559  0.00  0.00    +0.000 HD
BRANCH  25  28
ATOM     28  C   UNL     1      51.127   1.915  17.549  0.00  0.00    +0.000 A 
ATOM     29  C   UNL     1      52.216   2.743  17.754  0.00  0.00    +0.000 A 
ATOM     30  C   UNL     1      53.250   1.892  18.186  0.00  0.00    +0.000 A 
ATOM     31  N   UNL     1      52.861   0.620  18.262  0.00  0.00    +0.000 NA
ATOM     32  N   UNL     1      51.572   0.659  17.881  0.00  0.00    +0.000 N 
ATOM     33  H   UNL     1      51.037  -0.204  17.864  0.00  0.00    +0.000 HD
ENDBRANCH  25  28
ENDBRANCH  23  24
ENDBRANCH   4  23
TORSDOF 6
ENDMDL
MODEL 2
REMARK VINA RESULT:    -8.600      1.347      2.073
REMARK INTER + INTRA:         -12.368
REMARK INTER:                 -11.450
REMARK INTRA:                  -0.918
REMARK UNBOUND:                -0.751
REMARK  Name = 
REMARK  7 active torsions:
REMARK  status: ('A' for Active; 'I' for Inactive)
REMARK    1  A    between atoms: C_1  and  N_2
REMARK    2  A    between atoms: N_2  and  C_3
REMARK    3  A    between atoms: C_3  and  C_4
REMARK    4  A    between atoms: C_7  and  C_8
REMARK    5  A    between atoms: C_8  and  N_9
REMARK    6  A    between atoms: C_10  and  C_12
REMARK    7  A    between atoms: C_19  and  C_21
REMARK                            x       y       z     vdW  Elec       q    Type
REMARK                         _______ _______ _______ _____ _____    ______ ____
ROOT
ATOM      1  C   UNL     1      47.547   5.602  13.813  0.00  0.00    +0.000 A 
ATOM      2  C   UNL     1      46.883   4.381  13.831  0.00  0.00    +0.000 A 
ATOM      3  C   UNL     1      46.921   3.618  14.996  0.00  0.00    +0.000 A 
ATOM      4  C   UNL     1      47.609   4.092  16.116  0.00  0.00    +0.000 A 
ATOM      5  C   UNL     1      48.268   5.308  15.993  0.00  0.00    +0.000 A 
ATOM      6  N   UNL     1      48.253   6.064  14.875  0.00  0.00    +0.000 NA
ENDROOT
BRANCH   1   7
ATOM      7  C   UNL     1      47.501   6.483  12.588  0.00  0.00    +0.000 C 
BRANCH   7   9
ATOM      8  C   UNL     1      46.529   8.722  13.237  0.00  0.00    +0.000 C 
ATOM      9  N   UNL     1      46.417   7.472  12.500  0.00  0.00    +0.000 N 
ATOM     10  C   UNL     1      45.388   7.396  11.547  0.00  0.00    +0.000 C 
ATOM     11  O   UNL     1      44.650   8.353  11.330  0.00  0.00    +0.000 OA
BRANCH  10  12
ATOM     12  C   UNL     1      45.181   6.133  10.824  0.00  0.00    +0.000 A 
ATOM     13  C   UNL     1      45.798   5.812   9.625  0.00  0.00    +0.000 A 
ATOM     14  S   UNL     1      45.406   4.255   9.049  0.00  0.00    +0.000 S 
ATOM     15  C   UNL     1      44.505   3.909  10.449  0.00  0.00    +0.000 A 
ATOM     16  N   UNL     1      43.958   2.679  10.639  0.00  0.00    +0.000 NA
ATOM     17  C   UNL     1      43.348   2.543  11.769  0.00  0.00    +0.000 A 
ATOM     18  N   UNL     1      43.206   3.534  12.707  0.00  0.00    +0.000 N 
ATOM     19  C   UNL     1      43.635   4.827  12.504  0.00  0.00    +0.000 A 
ATOM     20  O   UNL     1      43.292   5.731  13.257  0.00  0.00    +0.000 OA
ATOM     21  C   UNL     1      44.429   4.997  11.299  0.00  0.00    +0.000 A 
ATOM     22  H   UNL     1      42.658   3.378  13.541  0.00  0.00    +0.000 HD
ENDBRANCH  10  12
ENDBRANCH   7   9
ENDBRANCH   1   7
BRANCH   4  23
ATOM     23  C   UNL     1      47.650   3.334  17.408  0.00  0.00    +0.000 C 
BRANCH  23  24
ATOM     24  N   UNL     1      48.997   3.002  17.800  0.00  0.00    +0.000 N 
ATOM     25  C   UNL     1      49.750   2.122  17.060  0.00  0.00    +0.000 C 
ATOM     26  O   UNL     1      49.316   1.571  16.057  0.00  0.00    +0.000 OA
ATOM     27  H   UNL     1      49.408   3.491  18.577  0.00  0.00    +0.000 HD
BRANCH  25  28
ATOM     28  C   UNL     1      51.085   1.903  17.541  0.00  0.00    +0.000 A 
ATOM     29  C   UNL     1      52.152   2.747  17.793  0.00  0.00    +0.000 A 
ATOM     30  C   UNL     1      53.189   1.908  18.241  0.00  0.00    +0.000 A 
ATOM     31  N   UNL     1      52.821   0.628  18.283  0.00  0.00    +0.000 NA
ATOM     32  N   UNL     1      51.543   0.651  17.865  0.00  0.00    +0.000 N 
ATOM     33  H   UNL     1      51.026  -0.221  17.817  0.00  0.00    +0.000 HD
ENDBRANCH  25  28
ENDBRANCH  23  24
ENDBRANCH   4  23
TORSDOF 6
ENDMDL
MODEL 3
REMARK VINA RESULT:    -7.800      3.457      8.177
REMARK INTER + INTRA:         -11.286
REMARK INTER:                 -10.208
REMARK INTRA:                  -1.078
REMARK UNBOUND:                -0.751
REMARK  Name = 
REMARK  7 active torsions:
REMARK  status: ('A' for Active; 'I' for Inactive)
REMARK    1  A    between atoms: C_1  and  N_2
REMARK    2  A    between atoms: N_2  and  C_3
REMARK    3  A    between atoms: C_3  and  C_4
REMARK    4  A    between atoms: C_7  and  C_8
REMARK    5  A    between atoms: C_8  and  N_9
REMARK    6  A    between atoms: C_10  and  C_12
REMARK    7  A    between atoms: C_19  and  C_21
REMARK                            x       y       z     vdW  Elec       q    Type
REMARK                         _______ _______ _______ _____ _____    ______ ____
ROOT
ATOM      1  C   UNL     1      46.493   6.354  13.213  0.00  0.00    +0.000 A 
ATOM      2  C   UNL     1      46.616   5.052  13.684  0.00  0.00    +0.000 A 
ATOM      3  C   UNL     1      45.896   4.042  13.050  0.00  0.00    +0.000 A 
ATOM      4  C   UNL     1      45.080   4.350  11.958  0.00  0.00    +0.000 A 
ATOM      5  C   UNL     1      44.998   5.683  11.578  0.00  0.00    +0.000 A 
ATOM      6  N   UNL     1      45.679   6.682  12.179  0.00  0.00    +0.000 NA
ENDROOT
BRANCH   1   7
ATOM      7  C   UNL     1      47.284   7.476  13.841  0.00  0.00    +0.000 C 
BRANCH   7   9
ATOM      8  C   UNL     1      49.382   7.065  12.497  0.00  0.00    +0.000 C 
ATOM      9  N   UNL     1      48.750   7.404  13.764  0.00  0.00    +0.000 N 
ATOM     10  C   UNL     1      49.594   7.887  14.776  0.00  0.00    +0.000 C 
ATOM     11  O   UNL     1      50.796   8.046  14.581  0.00  0.00    +0.000 OA
BRANCH  10  12
ATOM     12  C   UNL     1      49.023   8.177  16.099  0.00  0.00    +0.000 A 
ATOM     13  C   UNL     1      48.680   9.446  16.539  0.00  0.00    +0.000 A 
ATOM     14  S   UNL     1      47.990   9.467  18.098  0.00  0.00    +0.000 S 
ATOM     15  C   UNL     1      48.004   7.769  18.183  0.00  0.00    +0.000 A 
ATOM     16  N   UNL     1      47.459   7.120  19.246  0.00  0.00    +0.000 NA
ATOM     17  C   UNL     1      47.493   5.833  19.150  0.00  0.00    +0.000 A 
ATOM     18  N   UNL     1      48.054   5.139  18.107  0.00  0.00    +0.000 N 
ATOM     19  C   UNL     1      48.725   5.751  17.073  0.00  0.00    +0.000 A 
ATOM     20  O   UNL     1      49.405   5.100  16.288  0.00  0.00    +0.000 OA
ATOM     21  C   UNL     1      48.611   7.200  17.078  0.00  0.00    +0.000 A 
ATOM     22  H   UNL     1      48.105   4.130  18.130  0.00  0.00    +0.000 HD
ENDBRANCH  10  12
ENDBRANCH   7   9
ENDBRANCH   1   7
BRANCH   4  23
ATOM     23  C   UNL     1      44.315   3.299  11.212  0.00  0.00    +0.000 C 
BRANCH  23  24
ATOM     24  N   UNL     1      45.122   2.650  10.209  0.00  0.00    +0.000 N 
ATOM     25  C   UNL     1      45.134   3.104   8.912  0.00  0.00    +0.000 C 
ATOM     26  O   UNL     1      44.458   4.056   8.544  0.00  0.00    +0.000 OA
ATOM     27  H   UNL     1      45.743   1.911  10.493  0.00  0.00    +0.000 HD
BRANCH  25  28
ATOM     28  C   UNL     1      46.004   2.388   8.021  0.00  0.00    +0.000 A 
ATOM     29  C   UNL     1      46.809   2.778   6.966  0.00  0.00    +0.000 A 
ATOM     30  C   UNL     1      47.399   1.591   6.494  0.00  0.00    +0.000 A 
ATOM     31  N   UNL     1      47.014   0.522   7.190  0.00  0.00    +0.000 NA
ATOM     32  N   UNL     1      46.178   1.030   8.114  0.00  0.00    +0.000 N 
ATOM     33  H   UNL     1      45.750   0.403   8.787  0.00  0.00    +0.000 HD
ENDBRANCH  25  28
ENDBRANCH  23  24
ENDBRANCH   4  23
TORSDOF 6
ENDMDL
MODEL 4
REMARK VINA RESULT:    -7.662      3.603      8.392
REMARK INTER + INTRA:         -11.100
REMARK INTER:                  -9.989
REMARK INTRA:                  -1.111
REMARK UNBOUND:                -0.751
REMARK  Name = 
REMARK  7 active torsions:
REMARK  status: ('A' for Active; 'I' for Inactive)
REMARK    1  A    between atoms: C_1  and  N_2
REMARK    2  A    between atoms: N_2  and  C_3
REMARK    3  A    between atoms: C_3  and  C_4
REMARK    4  A    between atoms: C_7  and  C_8
REMARK    5  A    between atoms: C_8  and  N_9
REMARK    6  A    between atoms: C_10  and  C_12
REMARK    7  A    between atoms: C_19  and  C_21
REMARK                            x       y       z     vdW  Elec       q    Type
REMARK                         _______ _______ _______ _____ _____    ______ ____
ROOT
ATOM      1  C   UNL     1      46.346   6.058  13.249  0.00  0.00    +0.000 A 
ATOM      2  C   UNL     1      46.502   4.702  13.515  0.00  0.00    +0.000 A 
ATOM      3  C   UNL     1      45.780   3.786  12.753  0.00  0.00    +0.000 A 
ATOM      4  C   UNL     1      44.930   4.240  11.740  0.00  0.00    +0.000 A 
ATOM      5  C   UNL     1      44.816   5.613  11.569  0.00  0.00    +0.000 A 
ATOM      6  N   UNL     1      45.498   6.523  12.298  0.00  0.00    +0.000 NA
ENDROOT
BRANCH   1   7
ATOM      7  C   UNL     1      47.137   7.087  14.021  0.00  0.00    +0.000 C 
BRANCH   7   9
ATOM      8  C   UNL     1      49.325   7.364  12.791  0.00  0.00    +0.000 C 
ATOM      9  N   UNL     1      48.603   6.981  13.994  0.00  0.00    +0.000 N 
ATOM     10  C   UNL     1      49.374   6.768  15.148  0.00  0.00    +0.000 C 
ATOM     11  O   UNL     1      50.591   6.935  15.140  0.00  0.00    +0.000 OA
BRANCH  10  12
ATOM     12  C   UNL     1      48.707   6.309  16.375  0.00  0.00    +0.000 A 
ATOM     13  C   UNL     1      48.408   4.984  16.649  0.00  0.00    +0.000 A 
ATOM     14  S   UNL     1      47.681   4.748  18.174  0.00  0.00    +0.000 S 
ATOM     15  C   UNL     1      47.863   6.391  18.571  0.00  0.00    +0.000 A 
ATOM     16  N   UNL     1      47.515   6.853  19.802  0.00  0.00    +0.000 NA
ATOM     17  C   UNL     1      47.758   8.108  19.981  0.00  0.00    +0.000 A 
ATOM     18  N   UNL     1      48.283   8.948  19.031  0.00  0.00    +0.000 N 
ATOM     19  C   UNL     1      48.533   8.553  17.735  0.00  0.00    +0.000 A 
ATOM     20  O   UNL     1      48.781   9.376  16.862  0.00  0.00    +0.000 OA
ATOM     21  C   UNL     1      48.386   7.123  17.521  0.00  0.00    +0.000 A 
ATOM     22  H   UNL     1      48.384   9.936  19.217  0.00  0.00    +0.000 HD
ENDBRANCH  10  12
ENDBRANCH   7   9
ENDBRANCH   1   7
BRANCH   4  23
ATOM     23  C   UNL     1      44.160   3.300  10.863  0.00  0.00    +0.000 C 
BRANCH  23  24
ATOM     24  N   UNL     1      45.000   2.669   9.876  0.00  0.00    +0.000 N 
ATOM     25  C   UNL     1      45.264   3.287   8.676  0.00  0.00    +0.000 C 
ATOM     26  O   UNL     1      44.792   4.377   8.383  0.00  0.00    +0.000 OA
ATOM     27  H   UNL     1      45.461   1.807  10.113  0.00  0.00    +0.000 HD
BRANCH  25  28
ATOM     28  C   UNL     1      46.140   2.565   7.796  0.00  0.00    +0.000 A 
ATOM     29  C   UNL     1      46.846   2.921   6.661  0.00  0.00    +0.000 A 
ATOM     30  C   UNL     1      47.509   1.748   6.256  0.00  0.00    +0.000 A 
ATOM     31  N   UNL     1      47.258   0.719   7.065  0.00  0.00    +0.000 NA
ATOM     32  N   UNL     1      46.436   1.240   7.994  0.00  0.00    +0.000 N 
ATOM     33  H   UNL     1      46.103   0.644   8.745  0.00  0.00    +0.000 HD
ENDBRANCH  25  28
ENDBRANCH  23  24
ENDBRANCH   4  23
TORSDOF 6
ENDMDL
MODEL 5
REMARK VINA RESULT:    -7.336      2.646      8.183
REMARK INTER + INTRA:         -10.660
REMARK INTER:                  -9.692
REMARK INTRA:                  -0.968
REMARK UNBOUND:                -0.751
REMARK  Name = 
REMARK  7 active torsions:
REMARK  status: ('A' for Active; 'I' for Inactive)
REMARK    1  A    between atoms: C_1  and  N_2
REMARK    2  A    between atoms: N_2  and  C_3
REMARK    3  A    between atoms: C_3  and  C_4
REMARK    4  A    between atoms: C_7  and  C_8
REMARK    5  A    between atoms: C_8  and  N_9
REMARK    6  A    between atoms: C_10  and  C_12
REMARK    7  A    between atoms: C_19  and  C_21
REMARK                            x       y       z     vdW  Elec       q    Type
REMARK                         _______ _______ _______ _____ _____    ______ ____
ROOT
ATOM      1  C   UNL     1      48.538   7.034  14.597  0.00  0.00    +0.000 A 
ATOM      2  C   UNL     1      47.943   8.235  14.229  0.00  0.00    +0.000 A 
ATOM      3  C   UNL     1      46.899   8.206  13.307  0.00  0.00    +0.000 A 
ATOM      4  C   UNL     1      46.468   6.985  12.781  0.00  0.00    +0.000 A 
ATOM      5  C   UNL     1      47.144   5.842  13.185  0.00  0.00    +0.000 A 
ATOM      6  N   UNL     1      48.163   5.842  14.071  0.00  0.00    +0.000 NA
ENDROOT
BRANCH   1   7
ATOM      7  C   UNL     1      49.646   7.009  15.623  0.00  0.00    +0.000 C 
BRANCH   7   9
ATOM      8  C   UNL     1      49.421   8.854  17.333  0.00  0.00    +0.000 C 
ATOM      9  N   UNL     1      49.320   7.444  16.989  0.00  0.00    +0.000 N 
ATOM     10  C   UNL     1      48.672   6.616  17.920  0.00  0.00    +0.000 C 
ATOM     11  O   UNL     1      48.188   7.075  18.952  0.00  0.00    +0.000 OA
BRANCH  10  12
ATOM     12  C   UNL     1      48.604   5.171  17.660  0.00  0.00    +0.000 A 
ATOM     13  C   UNL     1      47.466   4.511  17.223  0.00  0.00    +0.000 A 
ATOM     14  S   UNL     1      47.701   2.843  16.956  0.00  0.00    +0.000 S 
ATOM     15  C   UNL     1      49.364   2.974  17.287  0.00  0.00    +0.000 A 
ATOM     16  N   UNL     1      50.188   1.901  17.149  0.00  0.00    +0.000 NA
ATOM     17  C   UNL     1      51.431   2.159  17.382  0.00  0.00    +0.000 A 
ATOM     18  N   UNL     1      51.918   3.381  17.774  0.00  0.00    +0.000 N 
ATOM     19  C   UNL     1      51.107   4.460  18.045  0.00  0.00    +0.000 A 
ATOM     20  O   UNL     1      51.548   5.456  18.608  0.00  0.00    +0.000 OA
ATOM     21  C   UNL     1      49.715   4.251  17.685  0.00  0.00    +0.000 A 
ATOM     22  H   UNL     1      52.895   3.496  18.005  0.00  0.00    +0.000 HD
ENDBRANCH  10  12
ENDBRANCH   7   9
ENDBRANCH   1   7
BRANCH   4  23
ATOM     23  C   UNL     1      45.324   6.890  11.817  0.00  0.00    +0.000 C 
BRANCH  23  24
ATOM     24  N   UNL     1      45.532   5.861  10.830  0.00  0.00    +0.000 N 
ATOM     25  C   UNL     1      44.671   4.793  10.733  0.00  0.00    +0.000 C 
ATOM     26  O   UNL     1      43.710   4.656  11.479  0.00  0.00    +0.000 OA
ATOM     27  H   UNL     1      46.269   5.979  10.156  0.00  0.00    +0.000 HD
BRANCH  25  28
ATOM     28  C   UNL     1      44.973   3.856   9.688  0.00  0.00    +0.000 A 
ATOM     29  C   UNL     1      45.238   3.996   8.337  0.00  0.00    +0.000 A 
ATOM     30  C   UNL     1      45.444   2.686   7.864  0.00  0.00    +0.000 A 
ATOM     31  N   UNL     1      45.329   1.775   8.830  0.00  0.00    +0.000 NA
ATOM     32  N   UNL     1      45.054   2.507   9.925  0.00  0.00    +0.000 N 
ATOM     33  H   UNL     1      44.928   2.033  10.814  0.00  0.00    +0.000 HD
ENDBRANCH  25  28
ENDBRANCH  23  24
ENDBRANCH   4  23
TORSDOF 6
ENDMDL
MODEL 6
REMARK VINA RESULT:    -7.230      3.143      8.227
REMARK INTER + INTRA:         -10.516
REMARK INTER:                  -9.606
REMARK INTRA:                  -0.910
REMARK UNBOUND:                -0.751
REMARK  Name = 
REMARK  7 active torsions:
REMARK  status: ('A' for Active; 'I' for Inactive)
REMARK    1  A    between atoms: C_1  and  N_2
REMARK    2  A    between atoms: N_2  and  C_3
REMARK    3  A    between atoms: C_3  and  C_4
REMARK    4  A    between atoms: C_7  and  C_8
REMARK    5  A    between atoms: C_8  and  N_9
REMARK    6  A    between atoms: C_10  and  C_12
REMARK    7  A    between atoms: C_19  and  C_21
REMARK                            x       y       z     vdW  Elec       q    Type
REMARK                         _______ _______ _______ _____ _____    ______ ____
ROOT
ATOM      1  C   UNL     1      48.198   7.382  14.324  0.00  0.00    +0.000 A 
ATOM      2  C   UNL     1      47.418   8.306  13.640  0.00  0.00    +0.000 A 
ATOM      3  C   UNL     1      46.379   7.839  12.838  0.00  0.00    +0.000 A 
ATOM      4  C   UNL     1      46.137   6.466  12.743  0.00  0.00    +0.000 A 
ATOM      5  C   UNL     1      46.988   5.618  13.439  0.00  0.00    +0.000 A 
ATOM      6  N   UNL     1      48.006   6.043  14.217  0.00  0.00    +0.000 NA
ENDROOT
BRANCH   1   7
ATOM      7  C   UNL     1      49.309   7.841  15.238  0.00  0.00    +0.000 C 
BRANCH   7   9
ATOM      8  C   UNL     1      48.048   9.307  16.862  0.00  0.00    +0.000 C 
ATOM      9  N   UNL     1      48.953   8.194  16.620  0.00  0.00    +0.000 N 
ATOM     10  C   UNL     1      49.235   7.364  17.717  0.00  0.00    +0.000 C 
ATOM     11  O   UNL     1      48.711   7.556  18.811  0.00  0.00    +0.000 OA
BRANCH  10  12
ATOM     12  C   UNL     1      50.199   6.267  17.550  0.00  0.00    +0.000 A 
ATOM     13  C   UNL     1      51.573   6.416  17.651  0.00  0.00    +0.000 A 
ATOM     14  S   UNL     1      52.435   4.956  17.462  0.00  0.00    +0.000 S 
ATOM     15  C   UNL     1      50.994   4.058  17.372  0.00  0.00    +0.000 A 
ATOM     16  N   UNL     1      51.023   2.701  17.295  0.00  0.00    +0.000 NA
ATOM     17  C   UNL     1      49.856   2.149  17.287  0.00  0.00    +0.000 A 
ATOM     18  N   UNL     1      48.666   2.833  17.314  0.00  0.00    +0.000 N 
ATOM     19  C   UNL     1      48.588   4.207  17.267  0.00  0.00    +0.000 A 
ATOM     20  O   UNL     1      47.520   4.772  17.062  0.00  0.00    +0.000 OA
ATOM     21  C   UNL     1      49.875   4.870  17.393  0.00  0.00    +0.000 A 
ATOM     22  H   UNL     1      47.788   2.339  17.237  0.00  0.00    +0.000 HD
ENDBRANCH  10  12
ENDBRANCH   7   9
ENDBRANCH   1   7
BRANCH   4  23
ATOM     23  C   UNL     1      45.009   5.908  11.928  0.00  0.00    +0.000 C 
BRANCH  23  24
ATOM     24  N   UNL     1      45.458   4.901  11.000  0.00  0.00    +0.000 N 
ATOM     25  C   UNL     1      44.610   4.396  10.043  0.00  0.00    +0.000 C 
ATOM     26  O   UNL     1      43.445   4.758   9.943  0.00  0.00    +0.000 OA
ATOM     27  H   UNL     1      46.428   4.634  11.008  0.00  0.00    +0.000 HD
BRANCH  25  28
ATOM     28  C   UNL     1      45.191   3.422   9.163  0.00  0.00    +0.000 A 
ATOM     29  C   UNL     1      45.814   3.509   7.931  0.00  0.00    +0.000 A 
ATOM     30  C   UNL     1      46.148   2.185   7.591  0.00  0.00    +0.000 A 
ATOM     31  N   UNL     1      45.779   1.313   8.529  0.00  0.00    +0.000 NA
ATOM     32  N   UNL     1      45.211   2.085   9.473  0.00  0.00    +0.000 N 
ATOM     33  H   UNL     1      44.850   1.646  10.314  0.00  0.00    +0.000 HD
ENDBRANCH  25  28
ENDBRANCH  23  24
ENDBRANCH   4  23
TORSDOF 6
ENDMDL
MODEL 7
REMARK VINA RESULT:    -6.882      2.811      8.843
REMARK INTER + INTRA:         -10.047
REMARK INTER:                  -9.222
REMARK INTRA:                  -0.825
REMARK UNBOUND:                -0.751
REMARK  Name = 
REMARK  7 active torsions:
REMARK  status: ('A' for Active; 'I' for Inactive)
REMARK    1  A    between atoms: C_1  and  N_2
REMARK    2  A    between atoms: N_2  and  C_3
REMARK    3  A    between atoms: C_3  and  C_4
REMARK    4  A    between atoms: C_7  and  C_8
REMARK    5  A    between atoms: C_8  and  N_9
REMARK    6  A    between atoms: C_10  and  C_12
REMARK    7  A    between atoms: C_19  and  C_21
REMARK                            x       y       z     vdW  Elec       q    Type
REMARK                         _______ _______ _______ _____ _____    ______ ____
ROOT
ATOM      1  C   UNL     1      48.394   5.963  15.356  0.00  0.00    +0.000 A 
ATOM      2  C   UNL     1      48.363   7.187  14.699  0.00  0.00    +0.000 A 
ATOM      3  C   UNL     1      47.457   7.361  13.655  0.00  0.00    +0.000 A 
ATOM      4  C   UNL     1      46.598   6.318  13.298  0.00  0.00    +0.000 A 
ATOM      5  C   UNL     1      46.724   5.122  13.992  0.00  0.00    +0.000 A 
ATOM      6  N   UNL     1      47.598   4.924  15.002  0.00  0.00    +0.000 NA
ENDROOT
BRANCH   1   7
ATOM      7  C   UNL     1      49.331   5.740  16.519  0.00  0.00    +0.000 C 
BRANCH   7   9
ATOM      8  C   UNL     1      47.360   5.953  18.083  0.00  0.00    +0.000 C 
ATOM      9  N   UNL     1      48.732   5.533  17.846  0.00  0.00    +0.000 N 
ATOM     10  C   UNL     1      49.320   4.724  18.832  0.00  0.00    +0.000 C 
ATOM     11  O   UNL     1      48.688   4.367  19.822  0.00  0.00    +0.000 OA
BRANCH  10  12
ATOM     12  C   UNL     1      50.728   4.329  18.681  0.00  0.00    +0.000 A 
ATOM     13  C   UNL     1      51.794   5.014  19.242  0.00  0.00    +0.000 A 
ATOM     14  S   UNL     1      53.308   4.290  18.940  0.00  0.00    +0.000 S 
ATOM     15  C   UNL     1      52.577   2.967  18.163  0.00  0.00    +0.000 A 
ATOM     16  N   UNL     1      53.322   1.915  17.730  0.00  0.00    +0.000 NA
ATOM     17  C   UNL     1      52.629   0.959  17.207  0.00  0.00    +0.000 A 
ATOM     18  N   UNL     1      51.266   0.976  17.047  0.00  0.00    +0.000 N 
ATOM     19  C   UNL     1      50.488   2.069  17.356  0.00  0.00    +0.000 A 
ATOM     20  O   UNL     1      49.320   2.136  16.991  0.00  0.00    +0.000 OA
ATOM     21  C   UNL     1      51.207   3.121  18.054  0.00  0.00    +0.000 A 
ATOM     22  H   UNL     1      50.796   0.222  16.567  0.00  0.00    +0.000 HD
ENDBRANCH  10  12
ENDBRANCH   7   9
ENDBRANCH   1   7
BRANCH   4  23
ATOM     23  C   UNL     1      45.576   6.462  12.212  0.00  0.00    +0.000 C 
BRANCH  23  24
ATOM     24  N   UNL     1      45.761   5.493  11.161  0.00  0.00    +0.000 N 
ATOM     25  C   UNL     1      44.737   4.657  10.783  0.00  0.00    +0.000 C 
ATOM     26  O   UNL     1      43.639   4.682  11.322  0.00  0.00    +0.000 OA
ATOM     27  H   UNL     1      46.628   5.495  10.649  0.00  0.00    +0.000 HD
BRANCH  25  28
ATOM     28  C   UNL     1      45.045   3.762   9.704  0.00  0.00    +0.000 A 
ATOM     29  C   UNL     1      45.373   3.957   8.374  0.00  0.00    +0.000 A 
ATOM     30  C   UNL     1      45.544   2.665   7.843  0.00  0.00    +0.000 A 
ATOM     31  N   UNL     1      45.350   1.712   8.755  0.00  0.00    +0.000 NA
ATOM     32  N   UNL     1      45.059   2.400   9.874  0.00  0.00    +0.000 N 
ATOM     33  H   UNL     1      44.876   1.888  10.731  0.00  0.00    +0.000 HD
ENDBRANCH  25  28
ENDBRANCH  23  24
ENDBRANCH   4  23
TORSDOF 6
ENDMDL
MODEL 8
REMARK VINA RESULT:    -6.675      3.721      4.240
REMARK INTER + INTRA:          -9.766
REMARK INTER:                  -8.853
REMARK INTRA:                  -0.914
REMARK UNBOUND:                -0.751
REMARK  Name = 
REMARK  7 active torsions:
REMARK  status: ('A' for Active; 'I' for Inactive)
REMARK    1  A    between atoms: C_1  and  N_2
REMARK    2  A    between atoms: N_2  and  C_3
REMARK    3  A    between atoms: C_3  and  C_4
REMARK    4  A    between atoms: C_7  and  C_8
REMARK    5  A    between atoms: C_8  and  N_9
REMARK    6  A    between atoms: C_10  and  C_12
REMARK    7  A    between atoms: C_19  and  C_21
REMARK                            x       y       z     vdW  Elec       q    Type
REMARK                         _______ _______ _______ _____ _____    ______ ____
ROOT
ATOM      1  C   UNL     1      47.897   6.934  12.756  0.00  0.00    +0.000 A 
ATOM      2  C   UNL     1      48.554   7.397  11.622  0.00  0.00    +0.000 A 
ATOM      3  C   UNL     1      49.782   8.037  11.777  0.00  0.00    +0.000 A 
ATOM      4  C   UNL     1      50.330   8.191  13.053  0.00  0.00    +0.000 A 
ATOM      5  C   UNL     1      49.587   7.723  14.128  0.00  0.00    +0.000 A 
ATOM      6  N   UNL     1      48.391   7.107  14.007  0.00  0.00    +0.000 NA
ENDROOT
BRANCH   1   7
ATOM      7  C   UNL     1      46.583   6.200  12.637  0.00  0.00    +0.000 C 
BRANCH   7   9
ATOM      8  C   UNL     1      45.402   8.431  12.582  0.00  0.00    +0.000 C 
ATOM      9  N   UNL     1      45.382   6.995  12.346  0.00  0.00    +0.000 N 
ATOM     10  C   UNL     1      44.292   6.495  11.615  0.00  0.00    +0.000 C 
ATOM     11  O   UNL     1      43.425   7.244  11.172  0.00  0.00    +0.000 OA
BRANCH  10  12
ATOM     12  C   UNL     1      44.181   5.044  11.408  0.00  0.00    +0.000 A 
ATOM     13  C   UNL     1      43.425   4.199  12.205  0.00  0.00    +0.000 A 
ATOM     14  S   UNL     1      43.446   2.573  11.690  0.00  0.00    +0.000 S 
ATOM     15  C   UNL     1      44.357   2.969  10.310  0.00  0.00    +0.000 A 
ATOM     16  N   UNL     1      44.652   2.025   9.376  0.00  0.00    +0.000 NA
ATOM     17  C   UNL     1      45.303   2.479   8.358  0.00  0.00    +0.000 A 
ATOM     18  N   UNL     1      45.714   3.779   8.206  0.00  0.00    +0.000 N 
ATOM     19  C   UNL     1      45.547   4.738   9.180  0.00  0.00    +0.000 A 
ATOM     20  O   UNL     1      46.123   5.817   9.109  0.00  0.00    +0.000 OA
ATOM     21  C   UNL     1      44.718   4.303  10.292  0.00  0.00    +0.000 A 
ATOM     22  H   UNL     1      46.279   4.051   7.414  0.00  0.00    +0.000 HD
ENDBRANCH  10  12
ENDBRANCH   7   9
ENDBRANCH   1   7
BRANCH   4  23
ATOM     23  C   UNL     1      51.666   8.833  13.275  0.00  0.00    +0.000 C 
BRANCH  23  24
ATOM     24  N   UNL     1      52.692   7.864  13.566  0.00  0.00    +0.000 N 
ATOM     25  C   UNL     1      53.266   7.796  14.813  0.00  0.00    +0.000 C 
ATOM     26  O   UNL     1      52.952   8.555  15.721  0.00  0.00    +0.000 OA
ATOM     27  H   UNL     1      52.922   7.179  12.865  0.00  0.00    +0.000 HD
BRANCH  25  28
ATOM     28  C   UNL     1      54.252   6.766  14.978  0.00  0.00    +0.000 A 
ATOM     29  C   UNL     1      54.802   6.150  16.088  0.00  0.00    +0.000 A 
ATOM     30  C   UNL     1      55.731   5.226  15.575  0.00  0.00    +0.000 A 
ATOM     31  N   UNL     1      55.774   5.237  14.243  0.00  0.00    +0.000 NA
ATOM     32  N   UNL     1      54.864   6.169  13.905  0.00  0.00    +0.000 N 
ATOM     33  H   UNL     1      54.699   6.361  12.922  0.00  0.00    +0.000 HD
ENDBRANCH  25  28
ENDBRANCH  23  24
ENDBRANCH   4  23
TORSDOF 6
ENDMDL
MODEL 9
REMARK VINA RESULT:    -6.661      3.230      8.718
REMARK INTER + INTRA:          -9.748
REMARK INTER:                  -8.838
REMARK INTRA:                  -0.910
REMARK UNBOUND:                -0.751
REMARK  Name = 
REMARK  7 active torsions:
REMARK  status: ('A' for Active; 'I' for Inactive)
REMARK    1  A    between atoms: C_1  and  N_2
REMARK    2  A    between atoms: N_2  and  C_3
REMARK    3  A    between atoms: C_3  and  C_4
REMARK    4  A    between atoms: C_7  and  C_8
REMARK    5  A    between atoms: C_8  and  N_9
REMARK    6  A    between atoms: C_10  and  C_12
REMARK    7  A    between atoms: C_19  and  C_21
REMARK                            x       y       z     vdW  Elec       q    Type
REMARK                         _______ _______ _______ _____ _____    ______ ____
ROOT
ATOM      1  C   UNL     1      50.006   7.016  15.515  0.00  0.00    +0.000 A 
ATOM      2  C   UNL     1      50.335   7.800  14.416  0.00  0.00    +0.000 A 
ATOM      3  C   UNL     1      49.518   7.742  13.288  0.00  0.00    +0.000 A 
ATOM      4  C   UNL     1      48.391   6.916  13.286  0.00  0.00    +0.000 A 
ATOM      5  C   UNL     1      48.161   6.147  14.420  0.00  0.00    +0.000 A 
ATOM      6  N   UNL     1      48.940   6.178  15.522  0.00  0.00    +0.000 NA
ENDROOT
BRANCH   1   7
ATOM      7  C   UNL     1      50.837   7.074  16.775  0.00  0.00    +0.000 C 
BRANCH   7   9
ATOM      8  C   UNL     1      49.017   7.860  18.339  0.00  0.00    +0.000 C 
ATOM      9  N   UNL     1      50.133   6.968  18.061  0.00  0.00    +0.000 N 
ATOM     10  C   UNL     1      50.309   5.890  18.942  0.00  0.00    +0.000 C 
ATOM     11  O   UNL     1      49.535   5.697  19.876  0.00  0.00    +0.000 OA
BRANCH  10  12
ATOM     12  C   UNL     1      51.462   4.998  18.753  0.00  0.00    +0.000 A 
ATOM     13  C   UNL     1      52.744   5.275  19.203  0.00  0.00    +0.000 A 
ATOM     14  S   UNL     1      53.865   4.031  18.885  0.00  0.00    +0.000 S 
ATOM     15  C   UNL     1      52.648   3.025  18.255  0.00  0.00    +0.000 A 
ATOM     16  N   UNL     1      52.926   1.751  17.871  0.00  0.00    +0.000 NA
ATOM     17  C   UNL     1      51.896   1.088  17.463  0.00  0.00    +0.000 A 
ATOM     18  N   UNL     1      50.623   1.594  17.371  0.00  0.00    +0.000 N 
ATOM     19  C   UNL     1      50.320   2.912  17.630  0.00  0.00    +0.000 A 
ATOM     20  O   UNL     1      49.231   3.381  17.319  0.00  0.00    +0.000 OA
ATOM     21  C   UNL     1      51.422   3.665  18.203  0.00  0.00    +0.000 A 
ATOM     22  H   UNL     1      49.876   1.039  16.979  0.00  0.00    +0.000 HD
ENDBRANCH  10  12
ENDBRANCH   7   9
ENDBRANCH   1   7
BRANCH   4  23
ATOM     23  C   UNL     1      47.455   6.845  12.118  0.00  0.00    +0.000 C 
BRANCH  23  24
ATOM     24  N   UNL     1      46.460   5.816  12.283  0.00  0.00    +0.000 N 
ATOM     25  C   UNL     1      45.753   5.338  11.205  0.00  0.00    +0.000 C 
ATOM     26  O   UNL     1      45.918   5.769  10.071  0.00  0.00    +0.000 OA
ATOM     27  H   UNL     1      46.351   5.389  13.189  0.00  0.00    +0.000 HD
BRANCH  25  28
ATOM     28  C   UNL     1      44.815   4.293  11.502  0.00  0.00    +0.000 A 
ATOM     29  C   UNL     1      43.976   3.521  10.718  0.00  0.00    +0.000 A 
ATOM     30  C   UNL     1      43.300   2.679  11.619  0.00  0.00    +0.000 A 
ATOM     31  N   UNL     1      43.674   2.883  12.882  0.00  0.00    +0.000 NA
ATOM     32  N   UNL     1      44.598   3.856  12.785  0.00  0.00    +0.000 N 
ATOM     33  H   UNL     1      45.052   4.189  13.630  0.00  0.00    +0.000 HD
ENDBRANCH  25  28
ENDBRANCH  23  24
ENDBRANCH   4  23
TORSDOF 6
ENDMDL
