MODEL 1
REMARK VINA RESULT:    -7.162      0.000      0.000
REMARK INTER + INTRA:         -11.801
REMARK INTER:                 -10.512
REMARK INTRA:                  -1.289
REMARK UNBOUND:                -1.289
REMARK  Name = 
REMARK  9 active torsions:
REMARK  status: ('A' for Active; 'I' for Inactive)
REMARK    1  A    between atoms: C_1  and  O_2
REMARK    2  A    between atoms: O_2  and  C_3
REMARK    3  A    between atoms: C_10  and  C_11
REMARK    4  A    between atoms: N_13  and  C_14
REMARK    5  A    between atoms: C_14  and  C_15
REMARK    6  A    between atoms: C_18  and  N_19
REMARK    7  A    between atoms: N_19  and  C_20
REMARK    8  A    between atoms: C_20  and  C_21
REMARK    9  A    between atoms: C_21  and  C_22
REMARK                            x       y       z     vdW  Elec       q    Type
REMARK                         _______ _______ _______ _____ _____    ______ ____
ROOT
ATOM      1  C   UNL     1      46.630   7.662  12.841  0.00  0.00    +0.000 A 
ATOM      2  C   UNL     1      47.163   6.675  12.005  0.00  0.00    +0.000 A 
ATOM      3  C   UNL     1      46.337   5.962  11.126  0.00  0.00    +0.000 A 
ATOM      4  C   UNL     1      44.959   6.195  11.081  0.00  0.00    +0.000 A 
ATOM      5  C   UNL     1      44.453   7.255  11.840  0.00  0.00    +0.000 A 
ATOM      6  C   UNL     1      45.272   7.974  12.721  0.00  0.00    +0.000 A 
ENDROOT
BRANCH   4   7
ATOM      7  N   UNL     1      44.083   5.531  10.206  0.00  0.00    +0.000 N 
ATOM      8  H   UNL     1      44.440   5.631   9.256  0.00  0.00    +0.000 HD
BRANCH   7   9
ATOM      9  C   UNL     1      43.753   4.133  10.500  0.00  0.00    +0.000 C 
BRANCH   9  10
ATOM     10  C   UNL     1      44.853   3.183   9.994  0.00  0.00    +0.000 C 
BRANCH  10  11
ATOM     11  C   UNL     1      44.566   2.563   8.602  0.00  0.00    +0.000 C 
ATOM     12  C   UNL     1      45.441   1.332   8.312  0.00  0.00    +0.000 C 
ATOM     13  C   UNL     1      46.900   1.693   8.015  0.00  0.00    +0.000 C 
ATOM     14  C   UNL     1      47.072   2.915   7.103  0.00  0.00    +0.000 C 
ATOM     15  N   UNL     1      46.153   4.021   7.373  0.00  0.00    +0.000 NA
ATOM     16  C   UNL     1      44.769   3.546   7.439  0.00  0.00    +0.000 C 
ATOM     17  H   UNL     1      46.410   4.464   8.252  0.00  0.00    +0.000 HD
ENDBRANCH  10  11
ENDBRANCH   9  10
ENDBRANCH   7   9
ENDBRANCH   4   7
BRANCH   1  18
ATOM     18  C   UNL     1      47.512   8.402  13.812  0.00  0.00    +0.000 C 
BRANCH  18  21
ATOM     19  C   UNL     1      49.028   6.934  15.072  0.00  0.00    +0.000 C 
ATOM     20  O   UNL     1      49.893   7.020  14.202  0.00  0.00    +0.000 OA
ATOM     21  N   UNL     1      47.832   7.584  14.951  0.00  0.00    +0.000 N 
ATOM     22  H   UNL     1      47.115   7.459  15.651  0.00  0.00    +0.000 HD
BRANCH  19  30
ATOM     23  C   UNL     1      47.367   4.273  16.489  0.00  0.00    +0.000 A 
ATOM     24  N   UNL     1      46.908   3.261  17.250  0.00  0.00    +0.000 NA
ATOM     25  C   UNL     1      47.567   2.978  18.377  0.00  0.00    +0.000 A 
ATOM     26  N   UNL     1      48.648   3.592  18.851  0.00  0.00    +0.000 NA
ATOM     27  C   UNL     1      49.073   4.592  18.056  0.00  0.00    +0.000 A 
ATOM     28  S   UNL     1      50.443   5.490  18.501  0.00  0.00    +0.000 S 
ATOM     29  C   UNL     1      50.313   6.471  17.119  0.00  0.00    +0.000 A 
ATOM     30  C   UNL     1      49.245   6.140  16.293  0.00  0.00    +0.000 A 
ATOM     31  C   UNL     1      48.503   5.013  16.857  0.00  0.00    +0.000 A 
BRANCH  23  33
ATOM     32  C   UNL     1      47.128   3.690  14.228  0.00  0.00    +0.000 C 
ATOM     33  O   UNL     1      46.718   4.536  15.298  0.00  0.00    +0.000 OA
ENDBRANCH  23  33
ENDBRANCH  19  30
ENDBRANCH  18  21
ENDBRANCH   1  18
TORSDOF 8
ENDMDL
MODEL 2
REMARK VINA RESULT:    -6.892      1.446      1.785
REMARK INTER + INTRA:         -11.404
REMARK INTER:                 -10.118
REMARK INTRA:                  -1.286
REMARK UNBOUND:                -1.289
REMARK  Name = 
REMARK  9 active torsions:
REMARK  status: ('A' for Active; 'I' for Inactive)
REMARK    1  A    between atoms: C_1  and  O_2
REMARK    2  A    between atoms: O_2  and  C_3
REMARK    3  A    between atoms: C_10  and  C_11
REMARK    4  A    between atoms: N_13  and  C_14
REMARK    5  A    between atoms: C_14  and  C_15
REMARK    6  A    between atoms: C_18  and  N_19
REMARK    7  A    between atoms: N_19  and  C_20
REMARK    8  A    between atoms: C_20  and  C_21
REMARK    9  A    between atoms: C_21  and  C_22
REMARK                            x       y       z     vdW  Elec       q    Type
REMARK                         _______ _______ _______ _____ _____    ______ ____
ROOT
ATOM      1  C   UNL     1      47.368   6.306  12.987  0.00  0.00    +0.000 A 
ATOM      2  C   UNL     1      46.829   6.722  11.765  0.00  0.00    +0.000 A 
ATOM      3  C   UNL     1      45.636   6.166  11.285  0.00  0.00    +0.000 A 
ATOM      4  C   UNL     1      44.969   5.163  11.997  0.00  0.00    +0.000 A 
ATOM      5  C   UNL     1      45.455   4.833  13.266  0.00  0.00    +0.000 A 
ATOM      6  C   UNL     1      46.646   5.385  13.754  0.00  0.00    +0.000 A 
ENDROOT
BRANCH   4   7
ATOM      7  N   UNL     1      43.758   4.585  11.580  0.00  0.00    +0.000 N 
ATOM      8  H   UNL     1      43.366   5.160  10.834  0.00  0.00    +0.000 HD
BRANCH   7   9
ATOM      9  C   UNL     1      43.772   3.169  11.203  0.00  0.00    +0.000 C 
BRANCH   9  10
ATOM     10  C   UNL     1      44.959   2.851  10.277  0.00  0.00    +0.000 C 
BRANCH  10  11
ATOM     11  C   UNL     1      44.550   2.461   8.832  0.00  0.00    +0.000 C 
ATOM     12  C   UNL     1      45.377   1.287   8.281  0.00  0.00    +0.000 C 
ATOM     13  C   UNL     1      46.814   1.684   7.927  0.00  0.00    +0.000 C 
ATOM     14  C   UNL     1      46.935   3.034   7.209  0.00  0.00    +0.000 C 
ATOM     15  N   UNL     1      46.061   4.088   7.724  0.00  0.00    +0.000 NA
ATOM     16  C   UNL     1      44.678   3.616   7.827  0.00  0.00    +0.000 C 
ATOM     17  H   UNL     1      46.395   4.384   8.638  0.00  0.00    +0.000 HD
ENDBRANCH  10  11
ENDBRANCH   9  10
ENDBRANCH   7   9
ENDBRANCH   4   7
BRANCH   1  18
ATOM     18  C   UNL     1      48.670   6.878  13.485  0.00  0.00    +0.000 C 
BRANCH  18  21
ATOM     19  C   UNL     1      49.873   7.162  15.609  0.00  0.00    +0.000 C 
ATOM     20  O   UNL     1      50.900   7.503  15.024  0.00  0.00    +0.000 OA
ATOM     21  N   UNL     1      48.738   6.839  14.921  0.00  0.00    +0.000 N 
ATOM     22  H   UNL     1      47.921   6.512  15.418  0.00  0.00    +0.000 HD
BRANCH  19  30
ATOM     23  C   UNL     1      48.990   4.694  17.840  0.00  0.00    +0.000 A 
ATOM     24  N   UNL     1      48.690   3.929  18.907  0.00  0.00    +0.000 NA
ATOM     25  C   UNL     1      48.817   4.472  20.121  0.00  0.00    +0.000 A 
ATOM     26  N   UNL     1      49.211   5.709  20.410  0.00  0.00    +0.000 NA
ATOM     27  C   UNL     1      49.504   6.435  19.314  0.00  0.00    +0.000 A 
ATOM     28  S   UNL     1      50.026   8.041  19.489  0.00  0.00    +0.000 S 
ATOM     29  C   UNL     1      50.153   8.237  17.805  0.00  0.00    +0.000 A 
ATOM     30  C   UNL     1      49.813   7.101  17.080  0.00  0.00    +0.000 A 
ATOM     31  C   UNL     1      49.425   6.022  17.987  0.00  0.00    +0.000 A 
BRANCH  23  33
ATOM     32  C   UNL     1      47.853   3.171  16.463  0.00  0.00    +0.000 C 
ATOM     33  O   UNL     1      48.908   4.120  16.586  0.00  0.00    +0.000 OA
ENDBRANCH  23  33
ENDBRANCH  19  30
ENDBRANCH  18  21
ENDBRANCH   1  18
TORSDOF 8
ENDMDL
MODEL 3
REMARK VINA RESULT:    -6.697      2.088      2.963
REMARK INTER + INTRA:         -11.118
REMARK INTER:                  -9.908
REMARK INTRA:                  -1.211
REMARK UNBOUND:                -1.289
REMARK  Name = 
REMARK  9 active torsions:
REMARK  status: ('A' for Active; 'I' for Inactive)
REMARK    1  A    between atoms: C_1  and  O_2
REMARK    2  A    between atoms: O_2  and  C_3
REMARK    3  A    between atoms: C_10  and  C_11
REMARK    4  A    between atoms: N_13  and  C_14
REMARK    5  A    between atoms: C_14  and  C_15
REMARK    6  A    between atoms: C_18  and  N_19
REMARK    7  A    between atoms: N_19  and  C_20
REMARK    8  A    between atoms: C_20  and  C_21
REMARK    9  A    between atoms: C_21  and  C_22
REMARK                            x       y       z     vdW  Elec       q    Type
REMARK                         _______ _______ _______ _____ _____    ______ ____
ROOT
ATOM      1  C   UNL     1      46.563   5.798  12.520  0.00  0.00    +0.000 A 
ATOM      2  C   UNL     1      46.191   6.303  11.270  0.00  0.00    +0.000 A 
ATOM      3  C   UNL     1      45.345   5.571  10.427  0.00  0.00    +0.000 A 
ATOM      4  C   UNL     1      44.873   4.308  10.798  0.00  0.00    +0.000 A 
ATOM      5  C   UNL     1      45.161   3.860  12.092  0.00  0.00    +0.000 A 
ATOM      6  C   UNL     1      46.005   4.586  12.941  0.00  0.00    +0.000 A 
ENDROOT
BRANCH   4   7
ATOM      7  N   UNL     1      44.004   3.537  10.009  0.00  0.00    +0.000 N 
ATOM      8  H   UNL     1      43.712   4.098   9.209  0.00  0.00    +0.000 HD
BRANCH   7   9
ATOM      9  C   UNL     1      44.462   2.211   9.583  0.00  0.00    +0.000 C 
BRANCH   9  10
ATOM     10  C   UNL     1      45.049   2.254   8.162  0.00  0.00    +0.000 C 
BRANCH  10  11
ATOM     11  C   UNL     1      46.565   2.580   8.111  0.00  0.00    +0.000 C 
ATOM     12  C   UNL     1      46.874   3.821   7.257  0.00  0.00    +0.000 C 
ATOM     13  C   UNL     1      46.727   3.563   5.754  0.00  0.00    +0.000 C 
ATOM     14  C   UNL     1      47.304   2.221   5.287  0.00  0.00    +0.000 C 
ATOM     15  N   UNL     1      47.050   1.093   6.184  0.00  0.00    +0.000 NA
ATOM     16  C   UNL     1      47.421   1.428   7.561  0.00  0.00    +0.000 C 
ATOM     17  H   UNL     1      46.064   0.846   6.141  0.00  0.00    +0.000 HD
ENDBRANCH  10  11
ENDBRANCH   9  10
ENDBRANCH   7   9
ENDBRANCH   4   7
BRANCH   1  18
ATOM     18  C   UNL     1      47.503   6.569  13.411  0.00  0.00    +0.000 C 
BRANCH  18  21
ATOM     19  C   UNL     1      48.637   6.064  15.532  0.00  0.00    +0.000 C 
ATOM     20  O   UNL     1      49.682   6.577  15.138  0.00  0.00    +0.000 OA
ATOM     21  N   UNL     1      47.524   6.022  14.741  0.00  0.00    +0.000 N 
ATOM     22  H   UNL     1      46.690   5.550  15.063  0.00  0.00    +0.000 HD
BRANCH  19  30
ATOM     23  C   UNL     1      48.048   7.411  18.645  0.00  0.00    +0.000 A 
ATOM     24  N   UNL     1      47.855   7.672  19.952  0.00  0.00    +0.000 NA
ATOM     25  C   UNL     1      47.891   6.645  20.806  0.00  0.00    +0.000 A 
ATOM     26  N   UNL     1      48.102   5.364  20.514  0.00  0.00    +0.000 NA
ATOM     27  C   UNL     1      48.286   5.151  19.197  0.00  0.00    +0.000 A 
ATOM     28  S   UNL     1      48.570   3.574  18.637  0.00  0.00    +0.000 S 
ATOM     29  C   UNL     1      48.702   4.113  17.031  0.00  0.00    +0.000 A 
ATOM     30  C   UNL     1      48.528   5.485  16.882  0.00  0.00    +0.000 A 
ATOM     31  C   UNL     1      48.279   6.104  18.183  0.00  0.00    +0.000 A 
BRANCH  23  33
ATOM     32  C   UNL     1      49.188   9.166  17.584  0.00  0.00    +0.000 C 
ATOM     33  O   UNL     1      47.961   8.462  17.753  0.00  0.00    +0.000 OA
ENDBRANCH  23  33
ENDBRANCH  19  30
ENDBRANCH  18  21
ENDBRANCH   1  18
TORSDOF 8
ENDMDL
MODEL 4
REMARK VINA RESULT:    -6.676      1.561      2.062
REMARK INTER + INTRA:         -11.087
REMARK INTER:                  -9.759
REMARK INTRA:                  -1.327
REMARK UNBOUND:                -1.289
REMARK  Name = 
REMARK  9 active torsions:
REMARK  status: ('A' for Active; 'I' for Inactive)
REMARK    1  A    between atoms: C_1  and  O_2
REMARK    2  A    between atoms: O_2  and  C_3
REMARK    3  A    between atoms: C_10  and  C_11
REMARK    4  A    between atoms: N_13  and  C_14
REMARK    5  A    between atoms: C_14  and  C_15
REMARK    6  A    between atoms: C_18  and  N_19
REMARK    7  A    between atoms: N_19  and  C_20
REMARK    8  A    between atoms: C_20  and  C_21
REMARK    9  A    between atoms: C_21  and  C_22
REMARK                            x       y       z     vdW  Elec       q    Type
REMARK                         _______ _______ _______ _____ _____    ______ ____
ROOT
ATOM      1  C   UNL     1      47.628   8.395  13.111  0.00  0.00    +0.000 A 
ATOM      2  C   UNL     1      47.639   7.346  12.186  0.00  0.00    +0.000 A 
ATOM      3  C   UNL     1      46.481   7.011  11.473  0.00  0.00    +0.000 A 
ATOM      4  C   UNL     1      45.278   7.693  11.688  0.00  0.00    +0.000 A 
ATOM      5  C   UNL     1      45.304   8.808  12.532  0.00  0.00    +0.000 A 
ATOM      6  C   UNL     1      46.458   9.150  13.248  0.00  0.00    +0.000 A 
ENDROOT
BRANCH   4   7
ATOM      7  N   UNL     1      44.091   7.420  10.988  0.00  0.00    +0.000 N 
ATOM      8  H   UNL     1      44.317   7.317   9.999  0.00  0.00    +0.000 HD
BRANCH   7   9
ATOM      9  C   UNL     1      43.261   6.307  11.459  0.00  0.00    +0.000 C 
BRANCH   9  10
ATOM     10  C   UNL     1      43.396   5.083  10.536  0.00  0.00    +0.000 C 
BRANCH  10  11
ATOM     11  C   UNL     1      44.828   4.491  10.472  0.00  0.00    +0.000 C 
ATOM     12  C   UNL     1      45.374   4.419   9.036  0.00  0.00    +0.000 C 
ATOM     13  C   UNL     1      44.719   3.313   8.203  0.00  0.00    +0.000 C 
ATOM     14  C   UNL     1      44.528   1.989   8.955  0.00  0.00    +0.000 C 
ATOM     15  N   UNL     1      44.089   2.126  10.344  0.00  0.00    +0.000 NA
ATOM     16  C   UNL     1      44.934   3.078  11.067  0.00  0.00    +0.000 C 
ATOM     17  H   UNL     1      43.121   2.439  10.361  0.00  0.00    +0.000 HD
ENDBRANCH  10  11
ENDBRANCH   9  10
ENDBRANCH   7   9
ENDBRANCH   4   7
BRANCH   1  18
ATOM     18  C   UNL     1      48.865   8.732  13.904  0.00  0.00    +0.000 C 
BRANCH  18  21
ATOM     19  C   UNL     1      48.694   8.020  16.250  0.00  0.00    +0.000 C 
ATOM     20  O   UNL     1      48.144   9.072  16.568  0.00  0.00    +0.000 OA
ATOM     21  N   UNL     1      49.078   7.780  14.961  0.00  0.00    +0.000 N 
ATOM     22  H   UNL     1      49.575   6.931  14.730  0.00  0.00    +0.000 HD
BRANCH  19  30
ATOM     23  C   UNL     1      48.222   4.610  16.245  0.00  0.00    +0.000 A 
ATOM     24  N   UNL     1      48.131   3.292  16.509  0.00  0.00    +0.000 NA
ATOM     25  C   UNL     1      48.539   2.866  17.707  0.00  0.00    +0.000 A 
ATOM     26  N   UNL     1      49.034   3.604  18.697  0.00  0.00    +0.000 NA
ATOM     27  C   UNL     1      49.110   4.913  18.386  0.00  0.00    +0.000 A 
ATOM     28  S   UNL     1      49.719   6.009  19.530  0.00  0.00    +0.000 S 
ATOM     29  C   UNL     1      49.484   7.320  18.473  0.00  0.00    +0.000 A 
ATOM     30  C   UNL     1      48.952   6.960  17.240  0.00  0.00    +0.000 A 
ATOM     31  C   UNL     1      48.729   5.516  17.191  0.00  0.00    +0.000 A 
BRANCH  23  33
ATOM     32  C   UNL     1      46.980   4.146  14.308  0.00  0.00    +0.000 C 
ATOM     33  O   UNL     1      47.848   5.048  14.989  0.00  0.00    +0.000 OA
ENDBRANCH  23  33
ENDBRANCH  19  30
ENDBRANCH  18  21
ENDBRANCH   1  18
TORSDOF 8
ENDMDL
MODEL 5
REMARK VINA RESULT:    -6.581      3.265      8.480
REMARK INTER + INTRA:         -10.948
REMARK INTER:                  -8.973
REMARK INTRA:                  -1.976
REMARK UNBOUND:                -1.289
REMARK  Name = 
REMARK  9 active torsions:
REMARK  status: ('A' for Active; 'I' for Inactive)
REMARK    1  A    between atoms: C_1  and  O_2
REMARK    2  A    between atoms: O_2  and  C_3
REMARK    3  A    between atoms: C_10  and  C_11
REMARK    4  A    between atoms: N_13  and  C_14
REMARK    5  A    between atoms: C_14  and  C_15
REMARK    6  A    between atoms: C_18  and  N_19
REMARK    7  A    between atoms: N_19  and  C_20
REMARK    8  A    between atoms: C_20  and  C_21
REMARK    9  A    between atoms: C_21  and  C_22
REMARK                            x       y       z     vdW  Elec       q    Type
REMARK                         _______ _______ _______ _____ _____    ______ ____
ROOT
ATOM      1  C   UNL     1      48.416   3.643  17.533  0.00  0.00    +0.000 A 
ATOM      2  C   UNL     1      49.589   3.024  17.089  0.00  0.00    +0.000 A 
ATOM      3  C   UNL     1      50.819   3.306  17.696  0.00  0.00    +0.000 A 
ATOM      4  C   UNL     1      50.914   4.234  18.738  0.00  0.00    +0.000 A 
ATOM      5  C   UNL     1      49.724   4.765  19.247  0.00  0.00    +0.000 A 
ATOM      6  C   UNL     1      48.490   4.486  18.647  0.00  0.00    +0.000 A 
ENDROOT
BRANCH   4   7
ATOM      7  N   UNL     1      52.113   4.542  19.402  0.00  0.00    +0.000 N 
ATOM      8  H   UNL     1      52.821   3.865  19.118  0.00  0.00    +0.000 HD
BRANCH   7   9
ATOM      9  C   UNL     1      52.621   5.913  19.294  0.00  0.00    +0.000 C 
BRANCH   9  10
ATOM     10  C   UNL     1      52.782   6.333  17.822  0.00  0.00    +0.000 C 
BRANCH  10  11
ATOM     11  C   UNL     1      52.231   7.748  17.503  0.00  0.00    +0.000 C 
ATOM     12  C   UNL     1      50.695   7.809  17.557  0.00  0.00    +0.000 C 
ATOM     13  C   UNL     1      50.028   7.117  16.365  0.00  0.00    +0.000 C 
ATOM     14  C   UNL     1      50.701   7.401  15.015  0.00  0.00    +0.000 C 
ATOM     15  N   UNL     1      52.163   7.413  15.045  0.00  0.00    +0.000 NA
ATOM     16  C   UNL     1      52.657   8.273  16.123  0.00  0.00    +0.000 C 
ATOM     17  H   UNL     1      52.504   6.463  15.176  0.00  0.00    +0.000 HD
ENDBRANCH  10  11
ENDBRANCH   9  10
ENDBRANCH   7   9
ENDBRANCH   4   7
BRANCH   1  18
ATOM     18  C   UNL     1      47.098   3.366  16.857  0.00  0.00    +0.000 C 
BRANCH  18  21
ATOM     19  C   UNL     1      46.862   4.215  14.562  0.00  0.00    +0.000 C 
ATOM     20  O   UNL     1      47.231   3.142  14.088  0.00  0.00    +0.000 OA
ATOM     21  N   UNL     1      46.772   4.401  15.913  0.00  0.00    +0.000 N 
ATOM     22  H   UNL     1      46.517   5.306  16.283  0.00  0.00    +0.000 HD
BRANCH  19  30
ATOM     23  C   UNL     1      44.064   4.930  12.690  0.00  0.00    +0.000 A 
ATOM     24  N   UNL     1      43.116   5.438  11.879  0.00  0.00    +0.000 NA
ATOM     25  C   UNL     1      43.363   6.610  11.287  0.00  0.00    +0.000 A 
ATOM     26  N   UNL     1      44.460   7.353  11.403  0.00  0.00    +0.000 NA
ATOM     27  C   UNL     1      45.377   6.808  12.226  0.00  0.00    +0.000 A 
ATOM     28  S   UNL     1      46.845   7.617  12.495  0.00  0.00    +0.000 S 
ATOM     29  C   UNL     1      47.393   6.384  13.529  0.00  0.00    +0.000 A 
ATOM     30  C   UNL     1      46.484   5.345  13.697  0.00  0.00    +0.000 A 
ATOM     31  C   UNL     1      45.276   5.603  12.915  0.00  0.00    +0.000 A 
BRANCH  23  33
ATOM     32  C   UNL     1      43.619   2.636  12.463  0.00  0.00    +0.000 C 
ATOM     33  O   UNL     1      43.791   3.743  13.343  0.00  0.00    +0.000 OA
ENDBRANCH  23  33
ENDBRANCH  19  30
ENDBRANCH  18  21
ENDBRANCH   1  18
TORSDOF 8
ENDMDL
MODEL 6
REMARK VINA RESULT:    -6.411      2.882      4.369
REMARK INTER + INTRA:         -10.698
REMARK INTER:                  -9.141
REMARK INTRA:                  -1.558
REMARK UNBOUND:                -1.289
REMARK  Name = 
REMARK  9 active torsions:
REMARK  status: ('A' for Active; 'I' for Inactive)
REMARK    1  A    between atoms: C_1  and  O_2
REMARK    2  A    between atoms: O_2  and  C_3
REMARK    3  A    between atoms: C_10  and  C_11
REMARK    4  A    between atoms: N_13  and  C_14
REMARK    5  A    between atoms: C_14  and  C_15
REMARK    6  A    between atoms: C_18  and  N_19
REMARK    7  A    between atoms: N_19  and  C_20
REMARK    8  A    between atoms: C_20  and  C_21
REMARK    9  A    between atoms: C_21  and  C_22
REMARK                            x       y       z     vdW  Elec       q    Type
REMARK                         _______ _______ _______ _____ _____    ______ ____
ROOT
ATOM      1  C   UNL     1      48.781   7.677  15.931  0.00  0.00    +0.000 A 
ATOM      2  C   UNL     1      48.297   8.851  15.343  0.00  0.00    +0.000 A 
ATOM      3  C   UNL     1      47.715   8.824  14.069  0.00  0.00    +0.000 A 
ATOM      4  C   UNL     1      47.628   7.634  13.340  0.00  0.00    +0.000 A 
ATOM      5  C   UNL     1      48.014   6.450  13.978  0.00  0.00    +0.000 A 
ATOM      6  C   UNL     1      48.596   6.468  15.252  0.00  0.00    +0.000 A 
ENDROOT
BRANCH   4   7
ATOM      7  N   UNL     1      47.034   7.538  12.071  0.00  0.00    +0.000 N 
ATOM      8  H   UNL     1      47.299   6.644  11.657  0.00  0.00    +0.000 HD
BRANCH   7   9
ATOM      9  C   UNL     1      45.587   7.754  11.976  0.00  0.00    +0.000 C 
BRANCH   9  10
ATOM     10  C   UNL     1      44.852   6.450  11.619  0.00  0.00    +0.000 C 
BRANCH  10  11
ATOM     11  C   UNL     1      44.504   5.563  12.843  0.00  0.00    +0.000 C 
ATOM     12  C   UNL     1      45.347   4.277  12.898  0.00  0.00    +0.000 C 
ATOM     13  C   UNL     1      44.932   3.246  11.844  0.00  0.00    +0.000 C 
ATOM     14  C   UNL     1      43.414   3.091  11.679  0.00  0.00    +0.000 C 
ATOM     15  N   UNL     1      42.658   4.343  11.720  0.00  0.00    +0.000 NA
ATOM     16  C   UNL     1      43.028   5.139  12.893  0.00  0.00    +0.000 C 
ATOM     17  H   UNL     1      42.839   4.873  10.870  0.00  0.00    +0.000 HD
ENDBRANCH  10  11
ENDBRANCH   9  10
ENDBRANCH   7   9
ENDBRANCH   4   7
BRANCH   1  18
ATOM     18  C   UNL     1      49.440   7.713  17.285  0.00  0.00    +0.000 C 
BRANCH  18  21
ATOM     19  C   UNL     1      50.658   6.107  18.692  0.00  0.00    +0.000 C 
ATOM     20  O   UNL     1      50.206   6.609  19.720  0.00  0.00    +0.000 OA
ATOM     21  N   UNL     1      50.328   6.595  17.459  0.00  0.00    +0.000 N 
ATOM     22  H   UNL     1      50.751   6.202  16.630  0.00  0.00    +0.000 HD
BRANCH  19  30
ATOM     23  C   UNL     1      50.485   2.916  17.416  0.00  0.00    +0.000 A 
ATOM     24  N   UNL     1      50.663   1.631  17.051  0.00  0.00    +0.000 NA
ATOM     25  C   UNL     1      51.785   1.021  17.442  0.00  0.00    +0.000 A 
ATOM     26  N   UNL     1      52.771   1.540  18.167  0.00  0.00    +0.000 NA
ATOM     27  C   UNL     1      52.551   2.826  18.505  0.00  0.00    +0.000 A 
ATOM     28  S   UNL     1      53.706   3.656  19.433  0.00  0.00    +0.000 S 
ATOM     29  C   UNL     1      52.760   5.068  19.440  0.00  0.00    +0.000 A 
ATOM     30  C   UNL     1      51.564   4.947  18.740  0.00  0.00    +0.000 A 
ATOM     31  C   UNL     1      51.442   3.602  18.181  0.00  0.00    +0.000 A 
BRANCH  23  33
ATOM     32  C   UNL     1      48.224   3.392  17.827  0.00  0.00    +0.000 C 
ATOM     33  O   UNL     1      49.349   3.565  16.971  0.00  0.00    +0.000 OA
ENDBRANCH  23  33
ENDBRANCH  19  30
ENDBRANCH  18  21
ENDBRANCH   1  18
TORSDOF 8
ENDMDL
MODEL 7
REMARK VINA RESULT:    -6.311      2.009      2.830
REMARK INTER + INTRA:         -10.552
REMARK INTER:                  -9.645
REMARK INTRA:                  -0.907
REMARK UNBOUND:                -1.289
REMARK  Name = 
REMARK  9 active torsions:
REMARK  status: ('A' for Active; 'I' for Inactive)
REMARK    1  A    between atoms: C_1  and  O_2
REMARK    2  A    between atoms: O_2  and  C_3
REMARK    3  A    between atoms: C_10  and  C_11
REMARK    4  A    between atoms: N_13  and  C_14
REMARK    5  A    between atoms: C_14  and  C_15
REMARK    6  A    between atoms: C_18  and  N_19
REMARK    7  A    between atoms: N_19  and  C_20
REMARK    8  A    between atoms: C_20  and  C_21
REMARK    9  A    between atoms: C_21  and  C_22
REMARK                            x       y       z     vdW  Elec       q    Type
REMARK                         _______ _______ _______ _____ _____    ______ ____
ROOT
ATOM      1  C   UNL     1      47.903   7.613  12.889  0.00  0.00    +0.000 A 
ATOM      2  C   UNL     1      46.815   8.418  12.533  0.00  0.00    +0.000 A 
ATOM      3  C   UNL     1      45.514   7.898  12.526  0.00  0.00    +0.000 A 
ATOM      4  C   UNL     1      45.271   6.558  12.845  0.00  0.00    +0.000 A 
ATOM      5  C   UNL     1      46.348   5.792  13.304  0.00  0.00    +0.000 A 
ATOM      6  C   UNL     1      47.651   6.305  13.315  0.00  0.00    +0.000 A 
ENDROOT
BRANCH   4   7
ATOM      7  N   UNL     1      43.989   5.985  12.881  0.00  0.00    +0.000 N 
ATOM      8  H   UNL     1      43.525   6.286  13.737  0.00  0.00    +0.000 HD
BRANCH   7   9
ATOM      9  C   UNL     1      43.122   6.179  11.715  0.00  0.00    +0.000 C 
BRANCH   9  10
ATOM     10  C   UNL     1      43.323   5.060  10.678  0.00  0.00    +0.000 C 
BRANCH  10  11
ATOM     11  C   UNL     1      44.777   4.523  10.599  0.00  0.00    +0.000 C 
ATOM     12  C   UNL     1      45.360   4.609   9.178  0.00  0.00    +0.000 C 
ATOM     13  C   UNL     1      44.765   3.567   8.225  0.00  0.00    +0.000 C 
ATOM     14  C   UNL     1      44.603   2.171   8.841  0.00  0.00    +0.000 C 
ATOM     15  N   UNL     1      44.125   2.159  10.224  0.00  0.00    +0.000 NA
ATOM     16  C   UNL     1      44.918   3.064  11.059  0.00  0.00    +0.000 C 
ATOM     17  H   UNL     1      43.147   2.437  10.244  0.00  0.00    +0.000 HD
ENDBRANCH  10  11
ENDBRANCH   9  10
ENDBRANCH   7   9
ENDBRANCH   4   7
BRANCH   1  18
ATOM     18  C   UNL     1      49.305   8.163  12.860  0.00  0.00    +0.000 C 
BRANCH  18  21
ATOM     19  C   UNL     1      50.374   7.803  15.043  0.00  0.00    +0.000 C 
ATOM     20  O   UNL     1      49.826   8.796  15.517  0.00  0.00    +0.000 OA
ATOM     21  N   UNL     1      50.169   7.429  13.745  0.00  0.00    +0.000 N 
ATOM     22  H   UNL     1      50.669   6.640  13.360  0.00  0.00    +0.000 HD
BRANCH  19  30
ATOM     23  C   UNL     1      49.823   5.324  17.366  0.00  0.00    +0.000 A 
ATOM     24  N   UNL     1      49.889   4.356  18.301  0.00  0.00    +0.000 NA
ATOM     25  C   UNL     1      51.098   3.971  18.717  0.00  0.00    +0.000 A 
ATOM     26  N   UNL     1      52.275   4.441  18.312  0.00  0.00    +0.000 NA
ATOM     27  C   UNL     1      52.159   5.403  17.377  0.00  0.00    +0.000 A 
ATOM     28  S   UNL     1      53.560   6.123  16.740  0.00  0.00    +0.000 S 
ATOM     29  C   UNL     1      52.641   7.144  15.739  0.00  0.00    +0.000 A 
ATOM     30  C   UNL     1      51.268   6.960  15.856  0.00  0.00    +0.000 A 
ATOM     31  C   UNL     1      50.982   5.916  16.838  0.00  0.00    +0.000 A 
BRANCH  23  33
ATOM     32  C   UNL     1      47.752   4.580  16.549  0.00  0.00    +0.000 C 
ATOM     33  O   UNL     1      48.576   5.689  16.897  0.00  0.00    +0.000 OA
ENDBRANCH  23  33
ENDBRANCH  19  30
ENDBRANCH  18  21
ENDBRANCH   1  18
TORSDOF 8
ENDMDL
MODEL 8
REMARK VINA RESULT:    -5.617      3.300      7.909
REMARK INTER + INTRA:          -9.533
REMARK INTER:                  -7.686
REMARK INTRA:                  -1.847
REMARK UNBOUND:                -1.289
REMARK  Name = 
REMARK  9 active torsions:
REMARK  status: ('A' for Active; 'I' for Inactive)
REMARK    1  A    between atoms: C_1  and  O_2
REMARK    2  A    between atoms: O_2  and  C_3
REMARK    3  A    between atoms: C_10  and  C_11
REMARK    4  A    between atoms: N_13  and  C_14
REMARK    5  A    between atoms: C_14  and  C_15
REMARK    6  A    between atoms: C_18  and  N_19
REMARK    7  A    between atoms: N_19  and  C_20
REMARK    8  A    between atoms: C_20  and  C_21
REMARK    9  A    between atoms: C_21  and  C_22
REMARK                            x       y       z     vdW  Elec       q    Type
REMARK                         _______ _______ _______ _____ _____    ______ ____
ROOT
ATOM      1  C   UNL     1      49.040   8.703  13.911  0.00  0.00    +0.000 A 
ATOM      2  C   UNL     1      49.745   7.518  14.142  0.00  0.00    +0.000 A 
ATOM      3  C   UNL     1      50.374   7.290  15.373  0.00  0.00    +0.000 A 
ATOM      4  C   UNL     1      50.339   8.250  16.390  0.00  0.00    +0.000 A 
ATOM      5  C   UNL     1      49.542   9.382  16.190  0.00  0.00    +0.000 A 
ATOM      6  C   UNL     1      48.909   9.616  14.962  0.00  0.00    +0.000 A 
ENDROOT
BRANCH   4   7
ATOM      7  N   UNL     1      50.928   8.070  17.653  0.00  0.00    +0.000 N 
ATOM      8  H   UNL     1      51.607   8.817  17.800  0.00  0.00    +0.000 HD
BRANCH   7   9
ATOM      9  C   UNL     1      50.037   7.932  18.809  0.00  0.00    +0.000 C 
BRANCH   9  10
ATOM     10  C   UNL     1      49.211   6.637  18.722  0.00  0.00    +0.000 C 
BRANCH  10  11
ATOM     11  C   UNL     1      49.824   5.440  19.496  0.00  0.00    +0.000 C 
ATOM     12  C   UNL     1      50.788   4.609  18.632  0.00  0.00    +0.000 C 
ATOM     13  C   UNL     1      50.065   3.755  17.585  0.00  0.00    +0.000 C 
ATOM     14  C   UNL     1      48.802   3.058  18.106  0.00  0.00    +0.000 C 
ATOM     15  N   UNL     1      47.969   3.871  18.993  0.00  0.00    +0.000 NA
ATOM     16  C   UNL     1      48.773   4.471  20.060  0.00  0.00    +0.000 C 
ATOM     17  H   UNL     1      47.514   4.601  18.449  0.00  0.00    +0.000 HD
ENDBRANCH  10  11
ENDBRANCH   9  10
ENDBRANCH   7   9
ENDBRANCH   4   7
BRANCH   1  18
ATOM     18  C   UNL     1      48.395   8.963  12.574  0.00  0.00    +0.000 C 
BRANCH  18  21
ATOM     19  C   UNL     1      46.103   8.076  12.592  0.00  0.00    +0.000 C 
ATOM     20  O   UNL     1      45.683   9.070  13.180  0.00  0.00    +0.000 OA
ATOM     21  N   UNL     1      47.423   7.950  12.261  0.00  0.00    +0.000 N 
ATOM     22  H   UNL     1      47.757   7.103  11.824  0.00  0.00    +0.000 HD
BRANCH  19  30
ATOM     23  C   UNL     1      46.169   4.671  13.088  0.00  0.00    +0.000 A 
ATOM     24  N   UNL     1      45.960   3.340  13.124  0.00  0.00    +0.000 NA
ATOM     25  C   UNL     1      44.871   2.862  12.516  0.00  0.00    +0.000 A 
ATOM     26  N   UNL     1      43.946   3.558  11.860  0.00  0.00    +0.000 NA
ATOM     27  C   UNL     1      44.194   4.882  11.853  0.00  0.00    +0.000 A 
ATOM     28  S   UNL     1      43.119   5.930  11.061  0.00  0.00    +0.000 S 
ATOM     29  C   UNL     1      44.065   7.284  11.461  0.00  0.00    +0.000 A 
ATOM     30  C   UNL     1      45.201   6.978  12.202  0.00  0.00    +0.000 A 
ATOM     31  C   UNL     1      45.276   5.537  12.436  0.00  0.00    +0.000 A 
BRANCH  23  33
ATOM     32  C   UNL     1      47.386   4.692  15.095  0.00  0.00    +0.000 C 
ATOM     33  O   UNL     1      47.266   5.173  13.759  0.00  0.00    +0.000 OA
ENDBRANCH  23  33
ENDBRANCH  19  30
ENDBRANCH  18  21
ENDBRANCH   1  18
TORSDOF 8
ENDMDL
MODEL 9
REMARK VINA RESULT:    -5.442      2.954      8.389
REMARK INTER + INTRA:          -9.275
REMARK INTER:                  -7.950
REMARK INTRA:                  -1.325
REMARK UNBOUND:                -1.289
REMARK  Name = 
REMARK  9 active torsions:
REMARK  status: ('A' for Active; 'I' for Inactive)
REMARK    1  A    between atoms: C_1  and  O_2
REMARK    2  A    between atoms: O_2  and  C_3
REMARK    3  A    between atoms: C_10  and  C_11
REMARK    4  A    between atoms: N_13  and  C_14
REMARK    5  A    between atoms: C_14  and  C_15
REMARK    6  A    between atoms: C_18  and  N_19
REMARK    7  A    between atoms: N_19  and  C_20
REMARK    8  A    between atoms: C_20  and  C_21
REMARK    9  A    between atoms: C_21  and  C_22
REMARK                            x       y       z     vdW  Elec       q    Type
REMARK                         _______ _______ _______ _____ _____    ______ ____
ROOT
ATOM      1  C   UNL     1      48.571   8.201  12.869  0.00  0.00    +0.000 A 
ATOM      2  C   UNL     1      49.864   7.767  13.179  0.00  0.00    +0.000 A 
ATOM      3  C   UNL     1      50.450   8.093  14.409  0.00  0.00    +0.000 A 
ATOM      4  C   UNL     1      49.775   8.883  15.345  0.00  0.00    +0.000 A 
ATOM      5  C   UNL     1      48.445   9.220  15.073  0.00  0.00    +0.000 A 
ATOM      6  C   UNL     1      47.850   8.897  13.846  0.00  0.00    +0.000 A 
ENDROOT
BRANCH   4   7
ATOM      7  N   UNL     1      50.299   9.222  16.603  0.00  0.00    +0.000 N 
ATOM      8  H   UNL     1      49.635   9.837  17.074  0.00  0.00    +0.000 HD
BRANCH   7   9
ATOM      9  C   UNL     1      50.722   8.130  17.484  0.00  0.00    +0.000 C 
BRANCH   9  10
ATOM     10  C   UNL     1      49.644   7.815  18.537  0.00  0.00    +0.000 C 
BRANCH  10  11
ATOM     11  C   UNL     1      48.529   6.860  18.037  0.00  0.00    +0.000 C 
ATOM     12  C   UNL     1      47.448   6.607  19.101  0.00  0.00    +0.000 C 
ATOM     13  C   UNL     1      47.928   5.694  20.234  0.00  0.00    +0.000 C 
ATOM     14  C   UNL     1      48.755   4.490  19.764  0.00  0.00    +0.000 C 
ATOM     15  N   UNL     1      49.706   4.776  18.690  0.00  0.00    +0.000 NA
ATOM     16  C   UNL     1      49.053   5.487  17.589  0.00  0.00    +0.000 C 
ATOM     17  H   UNL     1      50.471   5.337  19.060  0.00  0.00    +0.000 HD
ENDBRANCH  10  11
ENDBRANCH   9  10
ENDBRANCH   7   9
ENDBRANCH   4   7
BRANCH   1  18
ATOM     18  C   UNL     1      47.955   7.882  11.532  0.00  0.00    +0.000 C 
BRANCH  18  21
ATOM     19  C   UNL     1      45.767   6.765  11.623  0.00  0.00    +0.000 C 
ATOM     20  O   UNL     1      45.174   7.841  11.575  0.00  0.00    +0.000 OA
ATOM     21  N   UNL     1      47.132   6.704  11.608  0.00  0.00    +0.000 N 
ATOM     22  H   UNL     1      47.600   5.814  11.701  0.00  0.00    +0.000 HD
BRANCH  19  30
ATOM     23  C   UNL     1      45.271   4.209   9.373  0.00  0.00    +0.000 A 
ATOM     24  N   UNL     1      44.915   3.099   8.697  0.00  0.00    +0.000 NA
ATOM     25  C   UNL     1      44.140   2.208   9.322  0.00  0.00    +0.000 A 
ATOM     26  N   UNL     1      43.665   2.287  10.562  0.00  0.00    +0.000 NA
ATOM     27  C   UNL     1      44.050   3.409  11.200  0.00  0.00    +0.000 A 
ATOM     28  S   UNL     1      43.538   3.682  12.795  0.00  0.00    +0.000 S 
ATOM     29  C   UNL     1      44.356   5.170  12.857  0.00  0.00    +0.000 A 
ATOM     30  C   UNL     1      45.034   5.489  11.686  0.00  0.00    +0.000 A 
ATOM     31  C   UNL     1      44.850   4.431  10.695  0.00  0.00    +0.000 A 
BRANCH  23  33
ATOM     32  C   UNL     1      46.791   4.562   7.619  0.00  0.00    +0.000 C 
ATOM     33  O   UNL     1      46.113   5.108   8.747  0.00  0.00    +0.000 OA
ENDBRANCH  23  33
ENDBRANCH  19  30
ENDBRANCH  18  21
ENDBRANCH   1  18
TORSDOF 8
ENDMDL
