MODEL 1
REMARK VINA RESULT:    -6.743      0.000      0.000
REMARK INTER + INTRA:          -8.637
REMARK INTER:                  -8.319
REMARK INTRA:                  -0.318
REMARK UNBOUND:                -0.318
REMARK  Name = 
REMARK  4 active torsions:
REMARK  status: ('A' for Active; 'I' for Inactive)
REMARK    1  A    between atoms: C_2  and  C_3
REMARK    2  A    between atoms: C_8  and  N_9
REMARK    3  A    between atoms: N_9  and  C_10
REMARK    4  A    between atoms: C_10  and  C_11
REMARK                            x       y       z     vdW  Elec       q    Type
REMARK                         _______ _______ _______ _____ _____    ______ ____
ROOT
ATOM      1  N   UNL     1      43.845   5.162   9.786  0.00  0.00    +0.000 N 
ATOM      2  H   UNL     1      43.181   5.469   9.079  0.00  0.00    +0.000 HD
ENDROOT
BRANCH   1   8
ATOM      3  C   UNL     1      44.550   2.759   9.649  0.00  0.00    +0.000 A 
ATOM      4  C   UNL     1      45.387   1.854   8.969  0.00  0.00    +0.000 A 
ATOM      5  C   UNL     1      46.216   2.292   7.947  0.00  0.00    +0.000 A 
ATOM      6  C   UNL     1      46.175   3.630   7.630  0.00  0.00    +0.000 A 
ATOM      7  N   UNL     1      45.369   4.516   8.252  0.00  0.00    +0.000 NA
ATOM      8  C   UNL     1      44.556   4.096   9.259  0.00  0.00    +0.000 A 
BRANCH   3  10
ATOM      9  N   UNL     1      43.079   1.881  11.589  0.00  0.00    +0.000 NA
ATOM     10  C   UNL     1      43.760   2.228  10.710  0.00  0.00    +0.000 C 
ENDBRANCH   3  10
ENDBRANCH   1   8
BRANCH   1  11
ATOM     11  C   UNL     1      43.739   5.716  11.131  0.00  0.00    +0.000 C 
ATOM     12  C   UNL     1      42.378   5.456  11.786  0.00  0.00    +0.000 C 
ATOM     13  C   UNL     1      42.801   6.850  11.491  0.00  0.00    +0.000 C 
BRANCH  11  14
ATOM     14  C   UNL     1      44.976   5.507  12.001  0.00  0.00    +0.000 A 
ATOM     15  C   UNL     1      46.166   6.219  11.796  0.00  0.00    +0.000 A 
ATOM     16  C   UNL     1      47.272   6.032  12.622  0.00  0.00    +0.000 A 
ATOM     17  C   UNL     1      47.169   5.124  13.659  0.00  0.00    +0.000 A 
ATOM     18  N   UNL     1      46.058   4.402  13.904  0.00  0.00    +0.000 NA
ATOM     19  C   UNL     1      45.003   4.610  13.071  0.00  0.00    +0.000 A 
ENDBRANCH  11  14
ENDBRANCH   1  11
TORSDOF 4
ENDMDL
MODEL 2
REMARK VINA RESULT:    -6.333      1.610      4.790
REMARK INTER + INTRA:          -8.131
REMARK INTER:                  -7.747
REMARK INTRA:                  -0.384
REMARK UNBOUND:                -0.318
REMARK  Name = 
REMARK  4 active torsions:
REMARK  status: ('A' for Active; 'I' for Inactive)
REMARK    1  A    between atoms: C_2  and  C_3
REMARK    2  A    between atoms: C_8  and  N_9
REMARK    3  A    between atoms: N_9  and  C_10
REMARK    4  A    between atoms: C_10  and  C_11
REMARK                            x       y       z     vdW  Elec       q    Type
REMARK                         _______ _______ _______ _____ _____    ______ ____
ROOT
ATOM      1  N   UNL     1      44.868   6.136  12.371  0.00  0.00    +0.000 N 
ATOM      2  H   UNL     1      44.323   6.986  12.495  0.00  0.00    +0.000 HD
ENDROOT
BRANCH   1   8
ATOM      3  C   UNL     1      47.251   5.741  13.051  0.00  0.00    +0.000 A 
ATOM      4  C   UNL     1      48.536   6.314  13.086  0.00  0.00    +0.000 A 
ATOM      5  C   UNL     1      48.750   7.593  12.595  0.00  0.00    +0.000 A 
ATOM      6  C   UNL     1      47.665   8.261  12.075  0.00  0.00    +0.000 A 
ATOM      7  N   UNL     1      46.426   7.729  12.012  0.00  0.00    +0.000 NA
ATOM      8  C   UNL     1      46.206   6.475  12.495  0.00  0.00    +0.000 A 
BRANCH   3  10
ATOM      9  N   UNL     1      47.060   3.339  13.995  0.00  0.00    +0.000 NA
ATOM     10  C   UNL     1      47.116   4.436  13.610  0.00  0.00    +0.000 C 
ENDBRANCH   3  10
ENDBRANCH   1   8
BRANCH   1  11
ATOM     11  C   UNL     1      44.189   4.930  11.911  0.00  0.00    +0.000 C 
ATOM     12  C   UNL     1      42.665   5.003  12.052  0.00  0.00    +0.000 C 
ATOM     13  C   UNL     1      43.433   3.998  12.835  0.00  0.00    +0.000 C 
BRANCH  11  14
ATOM     14  C   UNL     1      44.736   4.356  10.606  0.00  0.00    +0.000 A 
ATOM     15  C   UNL     1      44.693   2.986  10.313  0.00  0.00    +0.000 A 
ATOM     16  C   UNL     1      45.172   2.489   9.102  0.00  0.00    +0.000 A 
ATOM     17  C   UNL     1      45.691   3.386   8.188  0.00  0.00    +0.000 A 
ATOM     18  N   UNL     1      45.769   4.712   8.411  0.00  0.00    +0.000 NA
ATOM     19  C   UNL     1      45.297   5.155   9.606  0.00  0.00    +0.000 A 
ENDBRANCH  11  14
ENDBRANCH   1  11
TORSDOF 4
ENDMDL
MODEL 3
REMARK VINA RESULT:    -6.110      2.096      5.503
REMARK INTER + INTRA:          -7.857
REMARK INTER:                  -7.476
REMARK INTRA:                  -0.381
REMARK UNBOUND:                -0.318
REMARK  Name = 
REMARK  4 active torsions:
REMARK  status: ('A' for Active; 'I' for Inactive)
REMARK    1  A    between atoms: C_2  and  C_3
REMARK    2  A    between atoms: C_8  and  N_9
REMARK    3  A    between atoms: N_9  and  C_10
REMARK    4  A    between atoms: C_10  and  C_11
REMARK                            x       y       z     vdW  Elec       q    Type
REMARK                         _______ _______ _______ _____ _____    ______ ____
ROOT
ATOM      1  N   UNL     1      44.757   6.466  11.572  0.00  0.00    +0.000 N 
ATOM      2  H   UNL     1      44.514   7.180  10.891  0.00  0.00    +0.000 HD
ENDROOT
BRANCH   1   8
ATOM      3  C   UNL     1      46.047   8.261  12.758  0.00  0.00    +0.000 A 
ATOM      4  C   UNL     1      47.205   8.521  13.517  0.00  0.00    +0.000 A 
ATOM      5  C   UNL     1      48.093   7.499  13.819  0.00  0.00    +0.000 A 
ATOM      6  C   UNL     1      47.790   6.240  13.355  0.00  0.00    +0.000 A 
ATOM      7  N   UNL     1      46.678   5.959  12.643  0.00  0.00    +0.000 NA
ATOM      8  C   UNL     1      45.803   6.956  12.338  0.00  0.00    +0.000 A 
BRANCH   3  10
ATOM      9  N   UNL     1      44.566  10.290  12.138  0.00  0.00    +0.000 NA
ATOM     10  C   UNL     1      45.210   9.376  12.465  0.00  0.00    +0.000 C 
ENDBRANCH   3  10
ENDBRANCH   1   8
BRANCH   1  11
ATOM     11  C   UNL     1      44.161   5.142  11.440  0.00  0.00    +0.000 C 
ATOM     12  C   UNL     1      42.646   5.136  11.669  0.00  0.00    +0.000 C 
ATOM     13  C   UNL     1      43.537   4.392  12.599  0.00  0.00    +0.000 C 
BRANCH  11  14
ATOM     14  C   UNL     1      44.684   4.327  10.260  0.00  0.00    +0.000 A 
ATOM     15  C   UNL     1      44.581   2.929  10.208  0.00  0.00    +0.000 A 
ATOM     16  C   UNL     1      45.040   2.210   9.107  0.00  0.00    +0.000 A 
ATOM     17  C   UNL     1      45.602   2.911   8.056  0.00  0.00    +0.000 A 
ATOM     18  N   UNL     1      45.738   4.252   8.047  0.00  0.00    +0.000 NA
ATOM     19  C   UNL     1      45.283   4.915   9.143  0.00  0.00    +0.000 A 
ENDBRANCH  11  14
ENDBRANCH   1  11
TORSDOF 4
ENDMDL
MODEL 4
REMARK VINA RESULT:    -5.911      1.827      5.258
REMARK INTER + INTRA:          -7.611
REMARK INTER:                  -7.281
REMARK INTRA:                  -0.330
REMARK UNBOUND:                -0.318
REMARK  Name = 
REMARK  4 active torsions:
REMARK  status: ('A' for Active; 'I' for Inactive)
REMARK    1  A    between atoms: C_2  and  C_3
REMARK    2  A    between atoms: C_8  and  N_9
REMARK    3  A    between atoms: N_9  and  C_10
REMARK    4  A    between atoms: C_10  and  C_11
REMARK                            x       y       z     vdW  Elec       q    Type
REMARK                         _______ _______ _______ _____ _____    ______ ____
ROOT
ATOM      1  N   UNL     1      45.402   5.060   9.565  0.00  0.00    +0.000 N 
ATOM      2  H   UNL     1      45.523   5.631   8.733  0.00  0.00    +0.000 HD
ENDROOT
BRANCH   1   8
ATOM      3  C   UNL     1      44.678   6.287  11.630  0.00  0.00    +0.000 A 
ATOM      4  C   UNL     1      45.111   7.152  12.652  0.00  0.00    +0.000 A 
ATOM      5  C   UNL     1      46.423   7.603  12.685  0.00  0.00    +0.000 A 
ATOM      6  C   UNL     1      47.266   7.167  11.690  0.00  0.00    +0.000 A 
ATOM      7  N   UNL     1      46.883   6.323  10.708  0.00  0.00    +0.000 NA
ATOM      8  C   UNL     1      45.597   5.879  10.666  0.00  0.00    +0.000 A 
BRANCH   3  10
ATOM      9  N   UNL     1      42.168   5.667  11.728  0.00  0.00    +0.000 NA
ATOM     10  C   UNL     1      43.305   5.903  11.654  0.00  0.00    +0.000 C 
ENDBRANCH   3  10
ENDBRANCH   1   8
BRANCH   1  11
ATOM     11  C   UNL     1      45.294   3.614   9.411  0.00  0.00    +0.000 C 
ATOM     12  C   UNL     1      43.887   3.079   9.699  0.00  0.00    +0.000 C 
ATOM     13  C   UNL     1      45.024   2.673  10.568  0.00  0.00    +0.000 C 
BRANCH  11  14
ATOM     14  C   UNL     1      46.009   3.053   8.185  0.00  0.00    +0.000 A 
ATOM     15  C   UNL     1      46.326   3.846   7.073  0.00  0.00    +0.000 A 
ATOM     16  C   UNL     1      47.006   3.317   5.977  0.00  0.00    +0.000 A 
ATOM     17  C   UNL     1      47.368   1.984   6.014  0.00  0.00    +0.000 A 
ATOM     18  N   UNL     1      47.087   1.167   7.048  0.00  0.00    +0.000 NA
ATOM     19  C   UNL     1      46.417   1.720   8.093  0.00  0.00    +0.000 A 
ENDBRANCH  11  14
ENDBRANCH   1  11
TORSDOF 4
ENDMDL
MODEL 5
REMARK VINA RESULT:    -5.710      3.677      6.475
REMARK INTER + INTRA:          -7.363
REMARK INTER:                  -6.985
REMARK INTRA:                  -0.379
REMARK UNBOUND:                -0.318
REMARK  Name = 
REMARK  4 active torsions:
REMARK  status: ('A' for Active; 'I' for Inactive)
REMARK    1  A    between atoms: C_2  and  C_3
REMARK    2  A    between atoms: C_8  and  N_9
REMARK    3  A    between atoms: N_9  and  C_10
REMARK    4  A    between atoms: C_10  and  C_11
REMARK                            x       y       z     vdW  Elec       q    Type
REMARK                         _______ _______ _______ _____ _____    ______ ____
ROOT
ATOM      1  N   UNL     1      47.205   4.940  15.771  0.00  0.00    +0.000 N 
ATOM      2  H   UNL     1      46.442   4.275  15.672  0.00  0.00    +0.000 HD
ENDROOT
BRANCH   1   8
ATOM      3  C   UNL     1      46.571   5.510  13.412  0.00  0.00    +0.000 A 
ATOM      4  C   UNL     1      46.969   6.225  12.266  0.00  0.00    +0.000 A 
ATOM      5  C   UNL     1      48.148   6.956  12.265  0.00  0.00    +0.000 A 
ATOM      6  C   UNL     1      48.894   6.953  13.421  0.00  0.00    +0.000 A 
ATOM      7  N   UNL     1      48.527   6.292  14.540  0.00  0.00    +0.000 NA
ATOM      8  C   UNL     1      47.374   5.569  14.548  0.00  0.00    +0.000 A 
BRANCH   3  10
ATOM      9  N   UNL     1      44.429   4.067  13.257  0.00  0.00    +0.000 NA
ATOM     10  C   UNL     1      45.365   4.757  13.311  0.00  0.00    +0.000 C 
ENDBRANCH   3  10
ENDBRANCH   1   8
BRANCH   1  11
ATOM     11  C   UNL     1      48.007   4.907  16.989  0.00  0.00    +0.000 C 
ATOM     12  C   UNL     1      47.177   5.089  18.265  0.00  0.00    +0.000 C 
ATOM     13  C   UNL     1      48.194   6.109  17.893  0.00  0.00    +0.000 C 
BRANCH  11  14
ATOM     14  C   UNL     1      49.080   3.822  17.011  0.00  0.00    +0.000 A 
ATOM     15  C   UNL     1      50.310   3.996  17.661  0.00  0.00    +0.000 A 
ATOM     16  C   UNL     1      51.262   2.979  17.692  0.00  0.00    +0.000 A 
ATOM     17  C   UNL     1      50.962   1.783  17.066  0.00  0.00    +0.000 A 
ATOM     18  N   UNL     1      49.803   1.556  16.418  0.00  0.00    +0.000 NA
ATOM     19  C   UNL     1      48.905   2.575  16.405  0.00  0.00    +0.000 A 
ENDBRANCH  11  14
ENDBRANCH   1  11
TORSDOF 4
ENDMDL
MODEL 6
REMARK VINA RESULT:    -5.677      2.647      3.956
REMARK INTER + INTRA:          -7.323
REMARK INTER:                  -6.693
REMARK INTRA:                  -0.630
REMARK UNBOUND:                -0.318
REMARK  Name = 
REMARK  4 active torsions:
REMARK  status: ('A' for Active; 'I' for Inactive)
REMARK    1  A    between atoms: C_2  and  C_3
REMARK    2  A    between atoms: C_8  and  N_9
REMARK    3  A    between atoms: N_9  and  C_10
REMARK    4  A    between atoms: C_10  and  C_11
REMARK                            x       y       z     vdW  Elec       q    Type
REMARK                         _______ _______ _______ _____ _____    ______ ____
ROOT
ATOM      1  N   UNL     1      45.138   6.557  13.207  0.00  0.00    +0.000 N 
ATOM      2  H   UNL     1      45.031   6.523  14.218  0.00  0.00    +0.000 HD
ENDROOT
BRANCH   1   8
ATOM      3  C   UNL     1      45.297   4.094  12.754  0.00  0.00    +0.000 A 
ATOM      4  C   UNL     1      44.654   3.006  12.134  0.00  0.00    +0.000 A 
ATOM      5  C   UNL     1      43.453   3.185  11.464  0.00  0.00    +0.000 A 
ATOM      6  C   UNL     1      42.926   4.456  11.441  0.00  0.00    +0.000 A 
ATOM      7  N   UNL     1      43.511   5.514  12.042  0.00  0.00    +0.000 NA
ATOM      8  C   UNL     1      44.691   5.347  12.698  0.00  0.00    +0.000 A 
BRANCH   3  10
ATOM      9  N   UNL     1      47.514   3.573  13.981  0.00  0.00    +0.000 NA
ATOM     10  C   UNL     1      46.544   3.825  13.388  0.00  0.00    +0.000 C 
ENDBRANCH   3  10
ENDBRANCH   1   8
BRANCH   1  11
ATOM     11  C   UNL     1      45.877   7.668  12.619  0.00  0.00    +0.000 C 
ATOM     12  C   UNL     1      45.256   9.035  12.923  0.00  0.00    +0.000 C 
ATOM     13  C   UNL     1      45.317   8.548  11.519  0.00  0.00    +0.000 C 
BRANCH  11  14
ATOM     14  C   UNL     1      47.394   7.555  12.742  0.00  0.00    +0.000 A 
ATOM     15  C   UNL     1      48.259   7.872  11.685  0.00  0.00    +0.000 A 
ATOM     16  C   UNL     1      49.642   7.789  11.831  0.00  0.00    +0.000 A 
ATOM     17  C   UNL     1      50.147   7.387  13.054  0.00  0.00    +0.000 A 
ATOM     18  N   UNL     1      49.371   7.061  14.106  0.00  0.00    +0.000 NA
ATOM     19  C   UNL     1      48.028   7.149  13.919  0.00  0.00    +0.000 A 
ENDBRANCH  11  14
ENDBRANCH   1  11
TORSDOF 4
ENDMDL
MODEL 7
REMARK VINA RESULT:    -5.608      1.867      3.040
REMARK INTER + INTRA:          -7.237
REMARK INTER:                  -7.154
REMARK INTRA:                  -0.083
REMARK UNBOUND:                -0.318
REMARK  Name = 
REMARK  4 active torsions:
REMARK  status: ('A' for Active; 'I' for Inactive)
REMARK    1  A    between atoms: C_2  and  C_3
REMARK    2  A    between atoms: C_8  and  N_9
REMARK    3  A    between atoms: N_9  and  C_10
REMARK    4  A    between atoms: C_10  and  C_11
REMARK                            x       y       z     vdW  Elec       q    Type
REMARK                         _______ _______ _______ _____ _____    ______ ____
ROOT
ATOM      1  N   UNL     1      45.592   6.124  11.789  0.00  0.00    +0.000 N 
ATOM      2  H   UNL     1      44.727   6.387  12.254  0.00  0.00    +0.000 HD
ENDROOT
BRANCH   1   8
ATOM      3  C   UNL     1      44.564   3.972  11.010  0.00  0.00    +0.000 A 
ATOM      4  C   UNL     1      44.402   3.124   9.899  0.00  0.00    +0.000 A 
ATOM      5  C   UNL     1      44.966   3.450   8.674  0.00  0.00    +0.000 A 
ATOM      6  C   UNL     1      45.675   4.627   8.599  0.00  0.00    +0.000 A 
ATOM      7  N   UNL     1      45.830   5.468   9.643  0.00  0.00    +0.000 NA
ATOM      8  C   UNL     1      45.284   5.154  10.849  0.00  0.00    +0.000 A 
BRANCH   3  10
ATOM      9  N   UNL     1      43.523   3.273  13.273  0.00  0.00    +0.000 NA
ATOM     10  C   UNL     1      43.981   3.540  12.237  0.00  0.00    +0.000 C 
ENDBRANCH   3  10
ENDBRANCH   1   8
BRANCH   1  11
ATOM     11  C   UNL     1      46.855   6.614  12.331  0.00  0.00    +0.000 C 
ATOM     12  C   UNL     1      47.024   8.130  12.192  0.00  0.00    +0.000 C 
ATOM     13  C   UNL     1      47.949   7.215  11.473  0.00  0.00    +0.000 C 
BRANCH  11  14
ATOM     14  C   UNL     1      47.253   5.993  13.667  0.00  0.00    +0.000 A 
ATOM     15  C   UNL     1      46.648   4.831  14.165  0.00  0.00    +0.000 A 
ATOM     16  C   UNL     1      47.050   4.266  15.374  0.00  0.00    +0.000 A 
ATOM     17  C   UNL     1      48.070   4.880  16.075  0.00  0.00    +0.000 A 
ATOM     18  N   UNL     1      48.687   6.002  15.656  0.00  0.00    +0.000 NA
ATOM     19  C   UNL     1      48.261   6.524  14.476  0.00  0.00    +0.000 A 
ENDBRANCH  11  14
ENDBRANCH   1  11
TORSDOF 4
ENDMDL
MODEL 8
REMARK VINA RESULT:    -5.371      1.865      5.864
REMARK INTER + INTRA:          -6.945
REMARK INTER:                  -6.814
REMARK INTRA:                  -0.130
REMARK UNBOUND:                -0.318
REMARK  Name = 
REMARK  4 active torsions:
REMARK  status: ('A' for Active; 'I' for Inactive)
REMARK    1  A    between atoms: C_2  and  C_3
REMARK    2  A    between atoms: C_8  and  N_9
REMARK    3  A    between atoms: N_9  and  C_10
REMARK    4  A    between atoms: C_10  and  C_11
REMARK                            x       y       z     vdW  Elec       q    Type
REMARK                         _______ _______ _______ _____ _____    ______ ____
ROOT
ATOM      1  N   UNL     1      46.465   5.444  12.398  0.00  0.00    +0.000 N 
ATOM      2  H   UNL     1      47.234   5.572  11.744  0.00  0.00    +0.000 HD
ENDROOT
BRANCH   1   8
ATOM      3  C   UNL     1      47.824   6.268  14.339  0.00  0.00    +0.000 A 
ATOM      4  C   UNL     1      48.277   5.945  15.632  0.00  0.00    +0.000 A 
ATOM      5  C   UNL     1      47.932   4.736  16.218  0.00  0.00    +0.000 A 
ATOM      6  C   UNL     1      47.134   3.885  15.488  0.00  0.00    +0.000 A 
ATOM      7  N   UNL     1      46.671   4.177  14.254  0.00  0.00    +0.000 NA
ATOM      8  C   UNL     1      47.008   5.360  13.671  0.00  0.00    +0.000 A 
BRANCH   3  10
ATOM      9  N   UNL     1      48.693   8.492  13.341  0.00  0.00    +0.000 NA
ATOM     10  C   UNL     1      48.257   7.516  13.802  0.00  0.00    +0.000 C 
ENDBRANCH   3  10
ENDBRANCH   1   8
BRANCH   1  11
ATOM     11  C   UNL     1      45.133   5.176  11.868  0.00  0.00    +0.000 C 
ATOM     12  C   UNL     1      44.162   6.347  12.054  0.00  0.00    +0.000 C 
ATOM     13  C   UNL     1      43.901   5.054  12.742  0.00  0.00    +0.000 C 
BRANCH  11  14
ATOM     14  C   UNL     1      45.121   4.477  10.512  0.00  0.00    +0.000 A 
ATOM     15  C   UNL     1      44.567   3.202  10.330  0.00  0.00    +0.000 A 
ATOM     16  C   UNL     1      44.541   2.596   9.075  0.00  0.00    +0.000 A 
ATOM     17  C   UNL     1      45.076   3.288   8.004  0.00  0.00    +0.000 A 
ATOM     18  N   UNL     1      45.630   4.511   8.114  0.00  0.00    +0.000 NA
ATOM     19  C   UNL     1      45.641   5.063   9.355  0.00  0.00    +0.000 A 
ENDBRANCH  11  14
ENDBRANCH   1  11
TORSDOF 4
ENDMDL
MODEL 9
REMARK VINA RESULT:    -5.323      2.800      4.720
REMARK INTER + INTRA:          -6.886
REMARK INTER:                  -6.549
REMARK INTRA:                  -0.337
REMARK UNBOUND:                -0.318
REMARK  Name = 
REMARK  4 active torsions:
REMARK  status: ('A' for Active; 'I' for Inactive)
REMARK    1  A    between atoms: C_2  and  C_3
REMARK    2  A    between atoms: C_8  and  N_9
REMARK    3  A    between atoms: N_9  and  C_10
REMARK    4  A    between atoms: C_10  and  C_11
REMARK                            x       y       z     vdW  Elec       q    Type
REMARK                         _______ _______ _______ _____ _____    ______ ____
ROOT
ATOM      1  N   UNL     1      46.377   6.796  13.462  0.00  0.00    +0.000 N 
ATOM      2  H   UNL     1      46.028   6.965  14.401  0.00  0.00    +0.000 HD
ENDROOT
BRANCH   1   8
ATOM      3  C   UNL     1      45.651   4.456  12.922  0.00  0.00    +0.000 A 
ATOM      4  C   UNL     1      44.704   3.691  12.216  0.00  0.00    +0.000 A 
ATOM      5  C   UNL     1      43.711   4.311  11.470  0.00  0.00    +0.000 A 
ATOM      6  C   UNL     1      43.695   5.687  11.461  0.00  0.00    +0.000 A 
ATOM      7  N   UNL     1      44.579   6.445  12.144  0.00  0.00    +0.000 NA
ATOM      8  C   UNL     1      45.558   5.845  12.875  0.00  0.00    +0.000 A 
BRANCH   3  10
ATOM      9  N   UNL     1      47.443   3.186  14.290  0.00  0.00    +0.000 NA
ATOM     10  C   UNL     1      46.656   3.735  13.631  0.00  0.00    +0.000 C 
ENDBRANCH   3  10
ENDBRANCH   1   8
BRANCH   1  11
ATOM     11  C   UNL     1      47.664   7.367  13.081  0.00  0.00    +0.000 C 
ATOM     12  C   UNL     1      47.544   8.750  12.433  0.00  0.00    +0.000 C 
ATOM     13  C   UNL     1      48.074   7.607  11.642  0.00  0.00    +0.000 C 
BRANCH  11  14
ATOM     14  C   UNL     1      48.769   7.182  14.118  0.00  0.00    +0.000 A 
ATOM     15  C   UNL     1      50.026   7.792  13.993  0.00  0.00    +0.000 A 
ATOM     16  C   UNL     1      51.008   7.632  14.968  0.00  0.00    +0.000 A 
ATOM     17  C   UNL     1      50.712   6.857  16.073  0.00  0.00    +0.000 A 
ATOM     18  N   UNL     1      49.529   6.238  16.250  0.00  0.00    +0.000 NA
ATOM     19  C   UNL     1      48.600   6.414  15.273  0.00  0.00    +0.000 A 
ENDBRANCH  11  14
ENDBRANCH   1  11
TORSDOF 4
ENDMDL
