MODEL 1
REMARK VINA RESULT:    -7.839      0.000      0.000
REMARK INTER + INTRA:         -12.122
REMARK INTER:                 -11.047
REMARK INTRA:                  -1.075
REMARK UNBOUND:                -1.075
REMARK  Name = 
REMARK  7 active torsions:
REMARK  status: ('A' for Active; 'I' for Inactive)
REMARK    1  A    between atoms: C_2  and  C_3
REMARK    2  A    between atoms: C_3  and  N_4
REMARK    3  A    between atoms: C_3  and  C_18
REMARK    4  A    between atoms: C_5  and  C_7
REMARK    5  A    between atoms: C_21  and  O_22
REMARK    6  A    between atoms: O_22  and  C_23
REMARK    7  A    between atoms: C_23  and  C_24
REMARK                            x       y       z     vdW  Elec       q    Type
REMARK                         _______ _______ _______ _____ _____    ______ ____
ROOT
ATOM      1  N   UNL     1      47.756   5.676  16.019  0.00  0.00    +0.000 N 
ATOM      2  C   UNL     1      48.212   6.182  14.834  0.00  0.00    +0.000 C 
ATOM      3  O   UNL     1      49.360   6.593  14.704  0.00  0.00    +0.000 OA
ATOM      4  H   UNL     1      46.759   5.532  16.148  0.00  0.00    +0.000 HD
ENDROOT
BRANCH   2   5
ATOM      5  C   UNL     1      47.267   6.153  13.717  0.00  0.00    +0.000 A 
ATOM      6  C   UNL     1      46.890   7.334  13.095  0.00  0.00    +0.000 A 
ATOM      7  S   UNL     1      45.778   7.104  11.822  0.00  0.00    +0.000 S 
ATOM      8  C   UNL     1      45.713   5.427  12.105  0.00  0.00    +0.000 A 
ATOM      9  N   UNL     1      44.869   4.626  11.401  0.00  0.00    +0.000 NA
ATOM     10  C   UNL     1      44.865   3.378  11.757  0.00  0.00    +0.000 A 
ATOM     11  N   UNL     1      44.022   2.498  11.166  0.00  0.00    +0.000 N 
ATOM     12  N   UNL     1      45.689   2.874  12.730  0.00  0.00    +0.000 N 
ATOM     13  C   UNL     1      46.600   3.627  13.428  0.00  0.00    +0.000 A 
ATOM     14  O   UNL     1      47.393   3.119  14.217  0.00  0.00    +0.000 OA
ATOM     15  C   UNL     1      46.574   5.042  13.113  0.00  0.00    +0.000 A 
ATOM     16  H   UNL     1      43.586   2.846  10.318  0.00  0.00    +0.000 HD
ATOM     17  H   UNL     1      44.238   1.512  11.158  0.00  0.00    +0.000 HD
ATOM     18  H   UNL     1      45.657   1.894  12.957  0.00  0.00    +0.000 HD
ENDBRANCH   2   5
BRANCH   1  19
ATOM     19  C   UNL     1      48.553   5.756  17.225  0.00  0.00    +0.000 C 
BRANCH  19  20
ATOM     20  C   UNL     1      49.433   4.515  17.298  0.00  0.00    +0.000 A 
ATOM     21  C   UNL     1      48.873   3.240  17.110  0.00  0.00    +0.000 A 
ATOM     22  C   UNL     1      49.679   2.099  17.134  0.00  0.00    +0.000 A 
ATOM     23  C   UNL     1      51.053   2.216  17.341  0.00  0.00    +0.000 A 
ATOM     24  C   UNL     1      51.601   3.464  17.633  0.00  0.00    +0.000 A 
ATOM     25  C   UNL     1      50.800   4.604  17.612  0.00  0.00    +0.000 A 
BRANCH  23  26
ATOM     26  O   UNL     1      51.779   1.061  17.233  0.00  0.00    +0.000 OA
BRANCH  26  27
ATOM     27  C   UNL     1      53.005   1.064  17.976  0.00  0.00    +0.000 C 
BRANCH  27  28
ATOM     28  C   UNL     1      53.791  -0.186  17.693  0.00  0.00    +0.000 A 
ATOM     29  C   UNL     1      54.416  -0.356  16.460  0.00  0.00    +0.000 A 
ATOM     30  N   UNL     1      55.185  -1.432  16.170  0.00  0.00    +0.000 NA
ATOM     31  C   UNL     1      55.305  -2.338  17.165  0.00  0.00    +0.000 A 
ATOM     32  C   UNL     1      54.693  -2.175  18.396  0.00  0.00    +0.000 A 
ATOM     33  N   UNL     1      53.931  -1.098  18.690  0.00  0.00    +0.000 NA
ENDBRANCH  27  28
ENDBRANCH  26  27
ENDBRANCH  23  26
ENDBRANCH  19  20
BRANCH  19  35
ATOM     34  N   UNL     1      47.069   6.086  19.396  0.00  0.00    +0.000 NA
ATOM     35  C   UNL     1      47.698   5.930  18.429  0.00  0.00    +0.000 C 
ENDBRANCH  19  35
ENDBRANCH   1  19
TORSDOF 7
ENDMDL
MODEL 2
REMARK VINA RESULT:    -7.576      3.405      8.605
REMARK INTER + INTRA:         -11.751
REMARK INTER:                 -10.514
REMARK INTRA:                  -1.237
REMARK UNBOUND:                -1.075
REMARK  Name = 
REMARK  7 active torsions:
REMARK  status: ('A' for Active; 'I' for Inactive)
REMARK    1  A    between atoms: C_2  and  C_3
REMARK    2  A    between atoms: C_3  and  N_4
REMARK    3  A    between atoms: C_3  and  C_18
REMARK    4  A    between atoms: C_5  and  C_7
REMARK    5  A    between atoms: C_21  and  O_22
REMARK    6  A    between atoms: O_22  and  C_23
REMARK    7  A    between atoms: C_23  and  C_24
REMARK                            x       y       z     vdW  Elec       q    Type
REMARK                         _______ _______ _______ _____ _____    ______ ____
ROOT
ATOM      1  N   UNL     1      48.854   6.637  14.875  0.00  0.00    +0.000 N 
ATOM      2  C   UNL     1      49.178   6.906  16.175  0.00  0.00    +0.000 C 
ATOM      3  O   UNL     1      48.583   7.758  16.827  0.00  0.00    +0.000 OA
ATOM      4  H   UNL     1      49.486   6.076  14.311  0.00  0.00    +0.000 HD
ENDROOT
BRANCH   2   5
ATOM      5  C   UNL     1      50.236   6.081  16.758  0.00  0.00    +0.000 A 
ATOM      6  C   UNL     1      51.452   6.652  17.103  0.00  0.00    +0.000 A 
ATOM      7  S   UNL     1      52.563   5.537  17.760  0.00  0.00    +0.000 S 
ATOM      8  C   UNL     1      51.479   4.243  17.543  0.00  0.00    +0.000 A 
ATOM      9  N   UNL     1      51.841   2.964  17.831  0.00  0.00    +0.000 NA
ATOM     10  C   UNL     1      50.950   2.061  17.559  0.00  0.00    +0.000 A 
ATOM     11  N   UNL     1      51.222   0.748  17.750  0.00  0.00    +0.000 N 
ATOM     12  N   UNL     1      49.704   2.362  17.072  0.00  0.00    +0.000 N 
ATOM     13  C   UNL     1      49.267   3.638  16.821  0.00  0.00    +0.000 A 
ATOM     14  O   UNL     1      48.110   3.873  16.485  0.00  0.00    +0.000 OA
ATOM     15  C   UNL     1      50.267   4.666  17.036  0.00  0.00    +0.000 A 
ATOM     16  H   UNL     1      52.055   0.573  18.303  0.00  0.00    +0.000 HD
ATOM     17  H   UNL     1      50.472   0.088  17.891  0.00  0.00    +0.000 HD
ATOM     18  H   UNL     1      49.043   1.624  16.892  0.00  0.00    +0.000 HD
ENDBRANCH   2   5
BRANCH   1  19
ATOM     19  C   UNL     1      47.908   7.459  14.151  0.00  0.00    +0.000 C 
BRANCH  19  20
ATOM     20  C   UNL     1      47.020   6.544  13.318  0.00  0.00    +0.000 A 
ATOM     21  C   UNL     1      46.877   5.190  13.667  0.00  0.00    +0.000 A 
ATOM     22  C   UNL     1      46.033   4.353  12.933  0.00  0.00    +0.000 A 
ATOM     23  C   UNL     1      45.319   4.855  11.846  0.00  0.00    +0.000 A 
ATOM     24  C   UNL     1      45.536   6.167  11.429  0.00  0.00    +0.000 A 
ATOM     25  C   UNL     1      46.378   7.005  12.157  0.00  0.00    +0.000 A 
BRANCH  23  26
ATOM     26  O   UNL     1      44.430   3.995  11.260  0.00  0.00    +0.000 OA
BRANCH  26  27
ATOM     27  C   UNL     1      44.165   4.275   9.879  0.00  0.00    +0.000 C 
BRANCH  27  28
ATOM     28  C   UNL     1      45.129   3.527   9.001  0.00  0.00    +0.000 A 
ATOM     29  C   UNL     1      45.293   2.153   9.151  0.00  0.00    +0.000 A 
ATOM     30  N   UNL     1      46.100   1.418   8.351  0.00  0.00    +0.000 NA
ATOM     31  C   UNL     1      46.744   2.114   7.388  0.00  0.00    +0.000 A 
ATOM     32  C   UNL     1      46.583   3.480   7.226  0.00  0.00    +0.000 A 
ATOM     33  N   UNL     1      45.771   4.214   8.019  0.00  0.00    +0.000 NA
ENDBRANCH  27  28
ENDBRANCH  26  27
ENDBRANCH  23  26
ENDBRANCH  19  20
BRANCH  19  35
ATOM     34  N   UNL     1      49.098   9.320  12.686  0.00  0.00    +0.000 NA
ATOM     35  C   UNL     1      48.601   8.491  13.335  0.00  0.00    +0.000 C 
ENDBRANCH  19  35
ENDBRANCH   1  19
TORSDOF 7
ENDMDL
MODEL 3
REMARK VINA RESULT:    -7.365      5.088      8.893
REMARK INTER + INTRA:         -11.454
REMARK INTER:                 -10.458
REMARK INTRA:                  -0.996
REMARK UNBOUND:                -1.075
REMARK  Name = 
REMARK  7 active torsions:
REMARK  status: ('A' for Active; 'I' for Inactive)
REMARK    1  A    between atoms: C_2  and  C_3
REMARK    2  A    between atoms: C_3  and  N_4
REMARK    3  A    between atoms: C_3  and  C_18
REMARK    4  A    between atoms: C_5  and  C_7
REMARK    5  A    between atoms: C_21  and  O_22
REMARK    6  A    between atoms: O_22  and  C_23
REMARK    7  A    between atoms: C_23  and  C_24
REMARK                            x       y       z     vdW  Elec       q    Type
REMARK                         _______ _______ _______ _____ _____    ______ ____
ROOT
ATOM      1  N   UNL     1      47.843   6.241  15.383  0.00  0.00    +0.000 N 
ATOM      2  C   UNL     1      48.978   6.645  16.027  0.00  0.00    +0.000 C 
ATOM      3  O   UNL     1      49.950   5.906  16.153  0.00  0.00    +0.000 OA
ATOM      4  H   UNL     1      46.998   6.797  15.470  0.00  0.00    +0.000 HD
ENDROOT
BRANCH   2   5
ATOM      5  C   UNL     1      48.987   8.027  16.510  0.00  0.00    +0.000 A 
ATOM      6  C   UNL     1      49.567   9.026  15.743  0.00  0.00    +0.000 A 
ATOM      7  S   UNL     1      49.490  10.568  16.469  0.00  0.00    +0.000 S 
ATOM      8  C   UNL     1      48.739   9.938  17.860  0.00  0.00    +0.000 A 
ATOM      9  N   UNL     1      48.465  10.729  18.932  0.00  0.00    +0.000 NA
ATOM     10  C   UNL     1      47.953  10.116  19.956  0.00  0.00    +0.000 A 
ATOM     11  N   UNL     1      47.694  10.792  21.101  0.00  0.00    +0.000 N 
ATOM     12  N   UNL     1      47.648   8.780  19.952  0.00  0.00    +0.000 N 
ATOM     13  C   UNL     1      47.848   7.951  18.877  0.00  0.00    +0.000 A 
ATOM     14  O   UNL     1      47.465   6.784  18.878  0.00  0.00    +0.000 OA
ATOM     15  C   UNL     1      48.495   8.584  17.745  0.00  0.00    +0.000 A 
ATOM     16  H   UNL     1      47.728  11.802  21.004  0.00  0.00    +0.000 HD
ATOM     17  H   UNL     1      46.998  10.450  21.747  0.00  0.00    +0.000 HD
ATOM     18  H   UNL     1      47.237   8.357  20.768  0.00  0.00    +0.000 HD
ENDBRANCH   2   5
BRANCH   1  19
ATOM     19  C   UNL     1      47.666   4.866  14.965  0.00  0.00    +0.000 C 
BRANCH  19  20
ATOM     20  C   UNL     1      46.766   4.854  13.736  0.00  0.00    +0.000 A 
ATOM     21  C   UNL     1      46.567   6.032  12.996  0.00  0.00    +0.000 A 
ATOM     22  C   UNL     1      45.776   6.021  11.843  0.00  0.00    +0.000 A 
ATOM     23  C   UNL     1      45.179   4.837  11.414  0.00  0.00    +0.000 A 
ATOM     24  C   UNL     1      45.284   3.690  12.199  0.00  0.00    +0.000 A 
ATOM     25  C   UNL     1      46.070   3.697  13.349  0.00  0.00    +0.000 A 
BRANCH  23  26
ATOM     26  O   UNL     1      44.520   4.894  10.216  0.00  0.00    +0.000 OA
BRANCH  26  27
ATOM     27  C   UNL     1      44.186   3.613   9.667  0.00  0.00    +0.000 C 
BRANCH  27  28
ATOM     28  C   UNL     1      45.264   3.151   8.726  0.00  0.00    +0.000 A 
ATOM     29  C   UNL     1      45.660   1.816   8.716  0.00  0.00    +0.000 A 
ATOM     30  N   UNL     1      46.582   1.330   7.852  0.00  0.00    +0.000 NA
ATOM     31  C   UNL     1      47.097   2.237   6.992  0.00  0.00    +0.000 A 
ATOM     32  C   UNL     1      46.706   3.565   6.989  0.00  0.00    +0.000 A 
ATOM     33  N   UNL     1      45.780   4.049   7.846  0.00  0.00    +0.000 NA
ENDBRANCH  27  28
ENDBRANCH  26  27
ENDBRANCH  23  26
ENDBRANCH  19  20
BRANCH  19  35
ATOM     34  N   UNL     1      46.760   3.397  16.975  0.00  0.00    +0.000 NA
ATOM     35  C   UNL     1      47.142   4.026  16.074  0.00  0.00    +0.000 C 
ENDBRANCH  19  35
ENDBRANCH   1  19
TORSDOF 7
ENDMDL
MODEL 4
REMARK VINA RESULT:    -7.064      1.529      2.038
REMARK INTER + INTRA:         -11.030
REMARK INTER:                 -10.056
REMARK INTRA:                  -0.974
REMARK UNBOUND:                -1.075
REMARK  Name = 
REMARK  7 active torsions:
REMARK  status: ('A' for Active; 'I' for Inactive)
REMARK    1  A    between atoms: C_2  and  C_3
REMARK    2  A    between atoms: C_3  and  N_4
REMARK    3  A    between atoms: C_3  and  C_18
REMARK    4  A    between atoms: C_5  and  C_7
REMARK    5  A    between atoms: C_21  and  O_22
REMARK    6  A    between atoms: O_22  and  C_23
REMARK    7  A    between atoms: C_23  and  C_24
REMARK                            x       y       z     vdW  Elec       q    Type
REMARK                         _______ _______ _______ _____ _____    ______ ____
ROOT
ATOM      1  N   UNL     1      47.897   7.117  15.070  0.00  0.00    +0.000 N 
ATOM      2  C   UNL     1      48.108   6.736  13.775  0.00  0.00    +0.000 C 
ATOM      3  O   UNL     1      49.237   6.596  13.316  0.00  0.00    +0.000 OA
ATOM      4  H   UNL     1      46.969   7.413  15.357  0.00  0.00    +0.000 HD
ENDROOT
BRANCH   2   5
ATOM      5  C   UNL     1      46.909   6.450  12.985  0.00  0.00    +0.000 A 
ATOM      6  C   UNL     1      46.235   7.481  12.349  0.00  0.00    +0.000 A 
ATOM      7  S   UNL     1      44.859   6.960  11.485  0.00  0.00    +0.000 S 
ATOM      8  C   UNL     1      45.083   5.350  11.989  0.00  0.00    +0.000 A 
ATOM      9  N   UNL     1      44.189   4.378  11.663  0.00  0.00    +0.000 NA
ATOM     10  C   UNL     1      44.436   3.207  12.163  0.00  0.00    +0.000 A 
ATOM     11  N   UNL     1      43.582   2.176  11.954  0.00  0.00    +0.000 N 
ATOM     12  N   UNL     1      45.547   2.935  12.918  0.00  0.00    +0.000 N 
ATOM     13  C   UNL     1      46.511   3.863  13.226  0.00  0.00    +0.000 A 
ATOM     14  O   UNL     1      47.543   3.555  13.816  0.00  0.00    +0.000 OA
ATOM     15  C   UNL     1      46.224   5.203  12.752  0.00  0.00    +0.000 A 
ATOM     16  H   UNL     1      42.895   2.348  11.227  0.00  0.00    +0.000 HD
ATOM     17  H   UNL     1      43.910   1.224  12.013  0.00  0.00    +0.000 HD
ATOM     18  H   UNL     1      45.700   2.004  13.270  0.00  0.00    +0.000 HD
ENDBRANCH   2   5
BRANCH   1  19
ATOM     19  C   UNL     1      48.994   7.539  15.916  0.00  0.00    +0.000 C 
BRANCH  19  20
ATOM     20  C   UNL     1      49.643   6.296  16.510  0.00  0.00    +0.000 A 
ATOM     21  C   UNL     1      51.038   6.233  16.663  0.00  0.00    +0.000 A 
ATOM     22  C   UNL     1      51.639   5.113  17.245  0.00  0.00    +0.000 A 
ATOM     23  C   UNL     1      50.856   4.046  17.684  0.00  0.00    +0.000 A 
ATOM     24  C   UNL     1      49.484   4.055  17.441  0.00  0.00    +0.000 A 
ATOM     25  C   UNL     1      48.881   5.169  16.860  0.00  0.00    +0.000 A 
BRANCH  23  26
ATOM     26  O   UNL     1      51.516   3.046  18.346  0.00  0.00    +0.000 OA
BRANCH  26  27
ATOM     27  C   UNL     1      51.800   1.895  17.540  0.00  0.00    +0.000 C 
BRANCH  27  28
ATOM     28  C   UNL     1      53.123   1.298  17.931  0.00  0.00    +0.000 A 
ATOM     29  C   UNL     1      53.716   0.325  17.130  0.00  0.00    +0.000 A 
ATOM     30  N   UNL     1      54.932  -0.206  17.399  0.00  0.00    +0.000 NA
ATOM     31  C   UNL     1      55.537   0.276  18.507  0.00  0.00    +0.000 A 
ATOM     32  C   UNL     1      54.959   1.247  19.306  0.00  0.00    +0.000 A 
ATOM     33  N   UNL     1      53.748   1.783  19.035  0.00  0.00    +0.000 NA
ENDBRANCH  27  28
ENDBRANCH  26  27
ENDBRANCH  23  26
ENDBRANCH  19  20
BRANCH  19  35
ATOM     34  N   UNL     1      48.133   9.245  17.752  0.00  0.00    +0.000 NA
ATOM     35  C   UNL     1      48.539   8.505  16.950  0.00  0.00    +0.000 C 
ENDBRANCH  19  35
ENDBRANCH   1  19
TORSDOF 7
ENDMDL
MODEL 5
REMARK VINA RESULT:    -6.981      6.758      8.877
REMARK INTER + INTRA:         -10.913
REMARK INTER:                  -9.612
REMARK INTRA:                  -1.302
REMARK UNBOUND:                -1.075
REMARK  Name = 
REMARK  7 active torsions:
REMARK  status: ('A' for Active; 'I' for Inactive)
REMARK    1  A    between atoms: C_2  and  C_3
REMARK    2  A    between atoms: C_3  and  N_4
REMARK    3  A    between atoms: C_3  and  C_18
REMARK    4  A    between atoms: C_5  and  C_7
REMARK    5  A    between atoms: C_21  and  O_22
REMARK    6  A    between atoms: O_22  and  C_23
REMARK    7  A    between atoms: C_23  and  C_24
REMARK                            x       y       z     vdW  Elec       q    Type
REMARK                         _______ _______ _______ _____ _____    ______ ____
ROOT
ATOM      1  N   UNL     1      47.479   8.940  12.410  0.00  0.00    +0.000 N 
ATOM      2  C   UNL     1      48.408   9.654  13.113  0.00  0.00    +0.000 C 
ATOM      3  O   UNL     1      48.228   9.977  14.283  0.00  0.00    +0.000 OA
ATOM      4  H   UNL     1      47.570   8.862  11.402  0.00  0.00    +0.000 HD
ENDROOT
BRANCH   2   5
ATOM      5  C   UNL     1      49.652   9.961  12.406  0.00  0.00    +0.000 A 
ATOM      6  C   UNL     1      50.092  11.273  12.312  0.00  0.00    +0.000 A 
ATOM      7  S   UNL     1      51.553  11.437  11.446  0.00  0.00    +0.000 S 
ATOM      8  C   UNL     1      51.609   9.770  11.113  0.00  0.00    +0.000 A 
ATOM      9  N   UNL     1      52.584   9.241  10.325  0.00  0.00    +0.000 NA
ATOM     10  C   UNL     1      52.478   7.968  10.092  0.00  0.00    +0.000 A 
ATOM     11  N   UNL     1      53.359   7.345   9.273  0.00  0.00    +0.000 N 
ATOM     12  N   UNL     1      51.496   7.186  10.641  0.00  0.00    +0.000 N 
ATOM     13  C   UNL     1      50.525   7.657  11.489  0.00  0.00    +0.000 A 
ATOM     14  O   UNL     1      49.726   6.906  12.042  0.00  0.00    +0.000 OA
ATOM     15  C   UNL     1      50.564   9.090  11.706  0.00  0.00    +0.000 A 
ATOM     16  H   UNL     1      54.185   7.893   9.058  0.00  0.00    +0.000 HD
ATOM     17  H   UNL     1      53.518   6.352   9.358  0.00  0.00    +0.000 HD
ATOM     18  H   UNL     1      51.468   6.200  10.440  0.00  0.00    +0.000 HD
ENDBRANCH   2   5
BRANCH   1  19
ATOM     19  C   UNL     1      46.164   8.676  12.957  0.00  0.00    +0.000 C 
BRANCH  19  20
ATOM     20  C   UNL     1      45.800   7.231  12.644  0.00  0.00    +0.000 A 
ATOM     21  C   UNL     1      44.683   6.942  11.842  0.00  0.00    +0.000 A 
ATOM     22  C   UNL     1      44.364   5.621  11.514  0.00  0.00    +0.000 A 
ATOM     23  C   UNL     1      45.157   4.574  11.980  0.00  0.00    +0.000 A 
ATOM     24  C   UNL     1      46.203   4.842  12.861  0.00  0.00    +0.000 A 
ATOM     25  C   UNL     1      46.523   6.158  13.191  0.00  0.00    +0.000 A 
BRANCH  23  26
ATOM     26  O   UNL     1      44.840   3.326  11.516  0.00  0.00    +0.000 OA
BRANCH  26  27
ATOM     27  C   UNL     1      44.118   3.324  10.278  0.00  0.00    +0.000 C 
BRANCH  27  28
ATOM     28  C   UNL     1      45.045   3.023   9.133  0.00  0.00    +0.000 A 
ATOM     29  C   UNL     1      45.472   4.045   8.290  0.00  0.00    +0.000 A 
ATOM     30  N   UNL     1      46.351   3.845   7.281  0.00  0.00    +0.000 NA
ATOM     31  C   UNL     1      46.791   2.575   7.145  0.00  0.00    +0.000 A 
ATOM     32  C   UNL     1      46.377   1.552   7.981  0.00  0.00    +0.000 A 
ATOM     33  N   UNL     1      45.505   1.752   8.994  0.00  0.00    +0.000 NA
ENDBRANCH  27  28
ENDBRANCH  26  27
ENDBRANCH  23  26
ENDBRANCH  19  20
BRANCH  19  35
ATOM     34  N   UNL     1      44.409  10.449  12.065  0.00  0.00    +0.000 NA
ATOM     35  C   UNL     1      45.162   9.649  12.450  0.00  0.00    +0.000 C 
ENDBRANCH  19  35
ENDBRANCH   1  19
TORSDOF 7
ENDMDL
MODEL 6
REMARK VINA RESULT:    -6.948      4.385      8.757
REMARK INTER + INTRA:         -10.867
REMARK INTER:                 -11.178
REMARK INTRA:                   0.311
REMARK UNBOUND:                -1.075
REMARK  Name = 
REMARK  7 active torsions:
REMARK  status: ('A' for Active; 'I' for Inactive)
REMARK    1  A    between atoms: C_2  and  C_3
REMARK    2  A    between atoms: C_3  and  N_4
REMARK    3  A    between atoms: C_3  and  C_18
REMARK    4  A    between atoms: C_5  and  C_7
REMARK    5  A    between atoms: C_21  and  O_22
REMARK    6  A    between atoms: O_22  and  C_23
REMARK    7  A    between atoms: C_23  and  C_24
REMARK                            x       y       z     vdW  Elec       q    Type
REMARK                         _______ _______ _______ _____ _____    ______ ____
ROOT
ATOM      1  N   UNL     1      45.532   7.015  13.300  0.00  0.00    +0.000 N 
ATOM      2  C   UNL     1      46.868   7.058  13.015  0.00  0.00    +0.000 C 
ATOM      3  O   UNL     1      47.284   7.377  11.905  0.00  0.00    +0.000 OA
ATOM      4  H   UNL     1      45.221   6.562  14.154  0.00  0.00    +0.000 HD
ENDROOT
BRANCH   2   5
ATOM      5  C   UNL     1      47.773   6.756  14.125  0.00  0.00    +0.000 A 
ATOM      6  C   UNL     1      48.794   7.637  14.449  0.00  0.00    +0.000 A 
ATOM      7  S   UNL     1      49.749   7.113  15.761  0.00  0.00    +0.000 S 
ATOM      8  C   UNL     1      48.871   5.662  15.896  0.00  0.00    +0.000 A 
ATOM      9  N   UNL     1      49.229   4.702  16.790  0.00  0.00    +0.000 NA
ATOM     10  C   UNL     1      48.521   3.614  16.748  0.00  0.00    +0.000 A 
ATOM     11  N   UNL     1      48.823   2.568  17.553  0.00  0.00    +0.000 N 
ATOM     12  N   UNL     1      47.449   3.451  15.911  0.00  0.00    +0.000 N 
ATOM     13  C   UNL     1      47.009   4.410  15.033  0.00  0.00    +0.000 A 
ATOM     14  O   UNL     1      45.982   4.265  14.375  0.00  0.00    +0.000 OA
ATOM     15  C   UNL     1      47.827   5.607  14.994  0.00  0.00    +0.000 A 
ATOM     16  H   UNL     1      49.474   2.792  18.299  0.00  0.00    +0.000 HD
ATOM     17  H   UNL     1      48.115   1.891  17.796  0.00  0.00    +0.000 HD
ATOM     18  H   UNL     1      46.923   2.593  15.929  0.00  0.00    +0.000 HD
ENDBRANCH   2   5
BRANCH   1  19
ATOM     19  C   UNL     1      44.537   7.179  12.262  0.00  0.00    +0.000 C 
BRANCH  19  20
ATOM     20  C   UNL     1      44.595   5.961  11.350  0.00  0.00    +0.000 A 
ATOM     21  C   UNL     1      43.834   4.819  11.648  0.00  0.00    +0.000 A 
ATOM     22  C   UNL     1      43.849   3.711  10.795  0.00  0.00    +0.000 A 
ATOM     23  C   UNL     1      44.621   3.732   9.634  0.00  0.00    +0.000 A 
ATOM     24  C   UNL     1      45.460   4.816   9.385  0.00  0.00    +0.000 A 
ATOM     25  C   UNL     1      45.448   5.921  10.234  0.00  0.00    +0.000 A 
BRANCH  23  26
ATOM     26  O   UNL     1      44.485   2.654   8.801  0.00  0.00    +0.000 OA
BRANCH  26  27
ATOM     27  C   UNL     1      45.634   1.799   8.754  0.00  0.00    +0.000 C 
BRANCH  27  28
ATOM     28  C   UNL     1      46.443   2.079   7.517  0.00  0.00    +0.000 A 
ATOM     29  C   UNL     1      47.566   1.310   7.226  0.00  0.00    +0.000 A 
ATOM     30  N   UNL     1      48.298   1.477   6.099  0.00  0.00    +0.000 NA
ATOM     31  C   UNL     1      47.861   2.449   5.269  0.00  0.00    +0.000 A 
ATOM     32  C   UNL     1      46.742   3.216   5.546  0.00  0.00    +0.000 A 
ATOM     33  N   UNL     1      46.006   3.045   6.667  0.00  0.00    +0.000 NA
ENDBRANCH  27  28
ENDBRANCH  26  27
ENDBRANCH  23  26
ENDBRANCH  19  20
BRANCH  19  35
ATOM     34  N   UNL     1      44.872   9.486  11.002  0.00  0.00    +0.000 NA
ATOM     35  C   UNL     1      44.725   8.459  11.530  0.00  0.00    +0.000 C 
ENDBRANCH  19  35
ENDBRANCH   1  19
TORSDOF 7
ENDMDL
MODEL 7
REMARK VINA RESULT:    -6.916      4.613      9.005
REMARK INTER + INTRA:         -10.821
REMARK INTER:                 -10.664
REMARK INTRA:                  -0.156
REMARK UNBOUND:                -1.075
REMARK  Name = 
REMARK  7 active torsions:
REMARK  status: ('A' for Active; 'I' for Inactive)
REMARK    1  A    between atoms: C_2  and  C_3
REMARK    2  A    between atoms: C_3  and  N_4
REMARK    3  A    between atoms: C_3  and  C_18
REMARK    4  A    between atoms: C_5  and  C_7
REMARK    5  A    between atoms: C_21  and  O_22
REMARK    6  A    between atoms: O_22  and  C_23
REMARK    7  A    between atoms: C_23  and  C_24
REMARK                            x       y       z     vdW  Elec       q    Type
REMARK                         _______ _______ _______ _____ _____    ______ ____
ROOT
ATOM      1  N   UNL     1      46.088   6.158  14.004  0.00  0.00    +0.000 N 
ATOM      2  C   UNL     1      47.361   5.662  14.003  0.00  0.00    +0.000 C 
ATOM      3  O   UNL     1      48.132   5.855  13.068  0.00  0.00    +0.000 OA
ATOM      4  H   UNL     1      45.421   5.817  14.690  0.00  0.00    +0.000 HD
ENDROOT
BRANCH   2   5
ATOM      5  C   UNL     1      47.768   4.935  15.207  0.00  0.00    +0.000 A 
ATOM      6  C   UNL     1      47.417   3.603  15.366  0.00  0.00    +0.000 A 
ATOM      7  S   UNL     1      47.971   2.927  16.831  0.00  0.00    +0.000 S 
ATOM      8  C   UNL     1      48.640   4.411  17.329  0.00  0.00    +0.000 A 
ATOM      9  N   UNL     1      49.209   4.551  18.556  0.00  0.00    +0.000 NA
ATOM     10  C   UNL     1      49.622   5.748  18.842  0.00  0.00    +0.000 A 
ATOM     11  N   UNL     1      50.152   6.019  20.058  0.00  0.00    +0.000 N 
ATOM     12  N   UNL     1      49.552   6.794  17.959  0.00  0.00    +0.000 N 
ATOM     13  C   UNL     1      49.043   6.693  16.689  0.00  0.00    +0.000 A 
ATOM     14  O   UNL     1      49.094   7.627  15.893  0.00  0.00    +0.000 OA
ATOM     15  C   UNL     1      48.497   5.389  16.365  0.00  0.00    +0.000 A 
ATOM     16  H   UNL     1      50.385   5.195  20.603  0.00  0.00    +0.000 HD
ATOM     17  H   UNL     1      50.782   6.798  20.177  0.00  0.00    +0.000 HD
ATOM     18  H   UNL     1      49.901   7.700  18.226  0.00  0.00    +0.000 HD
ENDBRANCH   2   5
BRANCH   1  19
ATOM     19  C   UNL     1      45.529   6.792  12.828  0.00  0.00    +0.000 C 
BRANCH  19  20
ATOM     20  C   UNL     1      45.327   5.723  11.762  0.00  0.00    +0.000 A 
ATOM     21  C   UNL     1      44.753   4.486  12.101  0.00  0.00    +0.000 A 
ATOM     22  C   UNL     1      44.526   3.515  11.122  0.00  0.00    +0.000 A 
ATOM     23  C   UNL     1      44.864   3.767   9.794  0.00  0.00    +0.000 A 
ATOM     24  C   UNL     1      45.530   4.946   9.466  0.00  0.00    +0.000 A 
ATOM     25  C   UNL     1      45.760   5.916  10.439  0.00  0.00    +0.000 A 
BRANCH  23  26
ATOM     26  O   UNL     1      44.501   2.808   8.887  0.00  0.00    +0.000 OA
BRANCH  26  27
ATOM     27  C   UNL     1      45.464   1.761   8.719  0.00  0.00    +0.000 C 
BRANCH  27  28
ATOM     28  C   UNL     1      46.348   2.048   7.537  0.00  0.00    +0.000 A 
ATOM     29  C   UNL     1      47.479   1.271   7.303  0.00  0.00    +0.000 A 
ATOM     30  N   UNL     1      48.278   1.443   6.225  0.00  0.00    +0.000 NA
ATOM     31  C   UNL     1      47.901   2.430   5.382  0.00  0.00    +0.000 A 
ATOM     32  C   UNL     1      46.775   3.205   5.602  0.00  0.00    +0.000 A 
ATOM     33  N   UNL     1      45.971   3.028   6.675  0.00  0.00    +0.000 NA
ENDBRANCH  27  28
ENDBRANCH  26  27
ENDBRANCH  23  26
ENDBRANCH  19  20
BRANCH  19  35
ATOM     34  N   UNL     1      47.036   8.825  12.044  0.00  0.00    +0.000 NA
ATOM     35  C   UNL     1      46.380   7.918  12.363  0.00  0.00    +0.000 C 
ENDBRANCH  19  35
ENDBRANCH   1  19
TORSDOF 7
ENDMDL
MODEL 8
REMARK VINA RESULT:    -6.271      5.426      8.928
REMARK INTER + INTRA:          -9.913
REMARK INTER:                  -8.926
REMARK INTRA:                  -0.986
REMARK UNBOUND:                -1.075
REMARK  Name = 
REMARK  7 active torsions:
REMARK  status: ('A' for Active; 'I' for Inactive)
REMARK    1  A    between atoms: C_2  and  C_3
REMARK    2  A    between atoms: C_3  and  N_4
REMARK    3  A    between atoms: C_3  and  C_18
REMARK    4  A    between atoms: C_5  and  C_7
REMARK    5  A    between atoms: C_21  and  O_22
REMARK    6  A    between atoms: O_22  and  C_23
REMARK    7  A    between atoms: C_23  and  C_24
REMARK                            x       y       z     vdW  Elec       q    Type
REMARK                         _______ _______ _______ _____ _____    ______ ____
ROOT
ATOM      1  N   UNL     1      47.744   8.767  13.175  0.00  0.00    +0.000 N 
ATOM      2  C   UNL     1      48.416   9.154  14.300  0.00  0.00    +0.000 C 
ATOM      3  O   UNL     1      47.856   9.254  15.387  0.00  0.00    +0.000 OA
ATOM      4  H   UNL     1      48.183   8.886  12.268  0.00  0.00    +0.000 HD
ENDROOT
BRANCH   2   5
ATOM      5  C   UNL     1      49.852   9.386  14.143  0.00  0.00    +0.000 A 
ATOM      6  C   UNL     1      50.304  10.477  13.415  0.00  0.00    +0.000 A 
ATOM      7  S   UNL     1      52.005  10.580  13.334  0.00  0.00    +0.000 S 
ATOM      8  C   UNL     1      52.191   9.134  14.212  0.00  0.00    +0.000 A 
ATOM      9  N   UNL     1      53.421   8.596  14.431  0.00  0.00    +0.000 NA
ATOM     10  C   UNL     1      53.424   7.457  15.055  0.00  0.00    +0.000 A 
ATOM     11  N   UNL     1      54.588   6.800  15.277  0.00  0.00    +0.000 N 
ATOM     12  N   UNL     1      52.284   6.856  15.520  0.00  0.00    +0.000 N 
ATOM     13  C   UNL     1      51.026   7.384  15.378  0.00  0.00    +0.000 A 
ATOM     14  O   UNL     1      50.042   6.867  15.900  0.00  0.00    +0.000 OA
ATOM     15  C   UNL     1      50.976   8.615  14.614  0.00  0.00    +0.000 A 
ATOM     16  H   UNL     1      55.419   7.360  15.116  0.00  0.00    +0.000 HD
ATOM     17  H   UNL     1      54.661   6.138  16.035  0.00  0.00    +0.000 HD
ATOM     18  H   UNL     1      52.344   5.979  16.012  0.00  0.00    +0.000 HD
ENDBRANCH   2   5
BRANCH   1  19
ATOM     19  C   UNL     1      46.303   8.622  13.174  0.00  0.00    +0.000 C 
BRANCH  19  20
ATOM     20  C   UNL     1      45.972   7.162  12.890  0.00  0.00    +0.000 A 
ATOM     21  C   UNL     1      44.720   6.813  12.359  0.00  0.00    +0.000 A 
ATOM     22  C   UNL     1      44.423   5.481  12.056  0.00  0.00    +0.000 A 
ATOM     23  C   UNL     1      45.372   4.484  12.277  0.00  0.00    +0.000 A 
ATOM     24  C   UNL     1      46.575   4.806  12.901  0.00  0.00    +0.000 A 
ATOM     25  C   UNL     1      46.874   6.132  13.205  0.00  0.00    +0.000 A 
BRANCH  23  26
ATOM     26  O   UNL     1      45.039   3.228  11.844  0.00  0.00    +0.000 OA
BRANCH  26  27
ATOM     27  C   UNL     1      44.183   3.210  10.695  0.00  0.00    +0.000 C 
BRANCH  27  28
ATOM     28  C   UNL     1      45.001   3.124   9.436  0.00  0.00    +0.000 A 
ATOM     29  C   UNL     1      45.303   4.278   8.717  0.00  0.00    +0.000 A 
ATOM     30  N   UNL     1      46.083   4.270   7.612  0.00  0.00    +0.000 NA
ATOM     31  C   UNL     1      46.554   3.057   7.248  0.00  0.00    +0.000 A 
ATOM     32  C   UNL     1      46.265   1.905   7.959  0.00  0.00    +0.000 A 
ATOM     33  N   UNL     1      45.491   1.912   9.068  0.00  0.00    +0.000 NA
ENDBRANCH  27  28
ENDBRANCH  26  27
ENDBRANCH  23  26
ENDBRANCH  19  20
BRANCH  19  35
ATOM     34  N   UNL     1      45.133  10.252  11.443  0.00  0.00    +0.000 NA
ATOM     35  C   UNL     1      45.665   9.557  12.212  0.00  0.00    +0.000 C 
ENDBRANCH  19  35
ENDBRANCH   1  19
TORSDOF 7
ENDMDL
MODEL 9
REMARK VINA RESULT:    -6.096      3.058      4.303
REMARK INTER + INTRA:          -9.666
REMARK INTER:                  -9.069
REMARK INTRA:                  -0.598
REMARK UNBOUND:                -1.075
REMARK  Name = 
REMARK  7 active torsions:
REMARK  status: ('A' for Active; 'I' for Inactive)
REMARK    1  A    between atoms: C_2  and  C_3
REMARK    2  A    between atoms: C_3  and  N_4
REMARK    3  A    between atoms: C_3  and  C_18
REMARK    4  A    between atoms: C_5  and  C_7
REMARK    5  A    between atoms: C_21  and  O_22
REMARK    6  A    between atoms: O_22  and  C_23
REMARK    7  A    between atoms: C_23  and  C_24
REMARK                            x       y       z     vdW  Elec       q    Type
REMARK                         _______ _______ _______ _____ _____    ______ ____
ROOT
ATOM      1  N   UNL     1      48.089   8.318  13.957  0.00  0.00    +0.000 N 
ATOM      2  C   UNL     1      48.100   7.224  13.139  0.00  0.00    +0.000 C 
ATOM      3  O   UNL     1      49.127   6.588  12.922  0.00  0.00    +0.000 OA
ATOM      4  H   UNL     1      47.279   8.931  13.957  0.00  0.00    +0.000 HD
ENDROOT
BRANCH   2   5
ATOM      5  C   UNL     1      46.807   6.824  12.582  0.00  0.00    +0.000 A 
ATOM      6  C   UNL     1      45.999   7.763  11.958  0.00  0.00    +0.000 A 
ATOM      7  S   UNL     1      44.530   7.115  11.381  0.00  0.00    +0.000 S 
ATOM      8  C   UNL     1      44.898   5.575  12.004  0.00  0.00    +0.000 A 
ATOM      9  N   UNL     1      44.006   4.551  11.925  0.00  0.00    +0.000 NA
ATOM     10  C   UNL     1      44.378   3.447  12.497  0.00  0.00    +0.000 A 
ATOM     11  N   UNL     1      43.547   2.378  12.532  0.00  0.00    +0.000 N 
ATOM     12  N   UNL     1      45.603   3.288  13.091  0.00  0.00    +0.000 N 
ATOM     13  C   UNL     1      46.562   4.268  13.146  0.00  0.00    +0.000 A 
ATOM     14  O   UNL     1      47.685   4.053  13.593  0.00  0.00    +0.000 OA
ATOM     15  C   UNL     1      46.148   5.541  12.589  0.00  0.00    +0.000 A 
ATOM     16  H   UNL     1      42.749   2.452  11.910  0.00  0.00    +0.000 HD
ATOM     17  H   UNL     1      43.920   1.446  12.635  0.00  0.00    +0.000 HD
ATOM     18  H   UNL     1      45.848   2.404  13.507  0.00  0.00    +0.000 HD
ENDBRANCH   2   5
BRANCH   1  19
ATOM     19  C   UNL     1      49.319   8.882  14.474  0.00  0.00    +0.000 C 
BRANCH  19  20
ATOM     20  C   UNL     1      49.770   8.035  15.657  0.00  0.00    +0.000 A 
ATOM     21  C   UNL     1      50.989   7.338  15.601  0.00  0.00    +0.000 A 
ATOM     22  C   UNL     1      51.431   6.592  16.697  0.00  0.00    +0.000 A 
ATOM     23  C   UNL     1      50.666   6.536  17.861  0.00  0.00    +0.000 A 
ATOM     24  C   UNL     1      49.409   7.136  17.887  0.00  0.00    +0.000 A 
ATOM     25  C   UNL     1      48.964   7.880  16.796  0.00  0.00    +0.000 A 
BRANCH  23  26
ATOM     26  O   UNL     1      51.230   5.879  18.922  0.00  0.00    +0.000 OA
BRANCH  26  27
ATOM     27  C   UNL     1      50.397   4.865  19.496  0.00  0.00    +0.000 C 
BRANCH  27  28
ATOM     28  C   UNL     1      49.922   3.915  18.432  0.00  0.00    +0.000 A 
ATOM     29  C   UNL     1      50.840   3.149  17.717  0.00  0.00    +0.000 A 
ATOM     30  N   UNL     1      50.469   2.235  16.790  0.00  0.00    +0.000 NA
ATOM     31  C   UNL     1      49.136   2.115  16.603  0.00  0.00    +0.000 A 
ATOM     32  C   UNL     1      48.215   2.867  17.312  0.00  0.00    +0.000 A 
ATOM     33  N   UNL     1      48.584   3.774  18.244  0.00  0.00    +0.000 NA
ENDBRANCH  27  28
ENDBRANCH  26  27
ENDBRANCH  23  26
ENDBRANCH  19  20
BRANCH  19  35
ATOM     34  N   UNL     1      48.974  11.440  15.071  0.00  0.00    +0.000 NA
ATOM     35  C   UNL     1      49.152  10.318  14.820  0.00  0.00    +0.000 C 
ENDBRANCH  19  35
ENDBRANCH   1  19
TORSDOF 7
ENDMDL
