MODEL 1
REMARK VINA RESULT:    -8.899      0.000      0.000
REMARK INTER + INTRA:         -13.426
REMARK INTER:                 -12.540
REMARK INTRA:                  -0.885
REMARK UNBOUND:                -0.885
REMARK  Name = 
REMARK  7 active torsions:
REMARK  status: ('A' for Active; 'I' for Inactive)
REMARK    1  A    between atoms: C_2  and  C_4
REMARK    2  A    between atoms: C_7  and  N_8
REMARK    3  A    between atoms: N_8  and  C_9
REMARK    4  A    between atoms: C_9  and  C_10
REMARK    5  A    between atoms: C_10  and  C_13
REMARK    6  A    between atoms: C_17  and  O_18
REMARK    7  A    between atoms: O_18  and  C_19
REMARK                            x       y       z     vdW  Elec       q    Type
REMARK                         _______ _______ _______ _____ _____    ______ ____
ROOT
ATOM      1  C   UNL     1      43.367   3.573  11.558  0.00  0.00    +0.000 C 
ENDROOT
BRANCH   1   2
ATOM      2  C   UNL     1      43.461   4.767  12.545  0.00  0.00    +0.000 C 
ATOM      3  F   UNL     1      42.850   5.858  11.991  0.00  0.00    +0.000 F 
ATOM      4  F   UNL     1      42.679   4.448  13.629  0.00  0.00    +0.000 F 
BRANCH   2   5
ATOM      5  C   UNL     1      44.908   5.042  12.938  0.00  0.00    +0.000 A 
ATOM      6  C   UNL     1      45.495   6.255  12.596  0.00  0.00    +0.000 A 
ATOM      7  C   UNL     1      46.798   6.511  13.008  0.00  0.00    +0.000 A 
ATOM      8  C   UNL     1      47.491   5.549  13.732  0.00  0.00    +0.000 A 
ATOM      9  C   UNL     1      46.861   4.344  14.010  0.00  0.00    +0.000 A 
ATOM     10  N   UNL     1      45.587   4.089  13.645  0.00  0.00    +0.000 NA
BRANCH   9  11
ATOM     11  O   UNL     1      47.445   3.324  14.716  0.00  0.00    +0.000 OA
BRANCH  11  12
ATOM     12  C   UNL     1      48.071   3.634  15.980  0.00  0.00    +0.000 C 
ATOM     13  C   UNL     1      48.682   2.451  16.777  0.00  0.00    +0.000 C 
ATOM     14  C   UNL     1      48.103   3.077  18.056  0.00  0.00    +0.000 C 
ATOM     15  C   UNL     1      47.093   3.823  17.167  0.00  0.00    +0.000 C 
ENDBRANCH  11  12
ENDBRANCH   9  11
ENDBRANCH   2   5
ENDBRANCH   1   2
BRANCH   1  16
ATOM     16  N   UNL     1      43.472   3.961  10.139  0.00  0.00    +0.000 N 
ATOM     17  H   UNL     1      43.254   4.959  10.009  0.00  0.00    +0.000 HD
BRANCH  16  21
ATOM     18  C   UNL     1      46.499   2.760   7.566  0.00  0.00    +0.000 A 
ATOM     19  C   UNL     1      45.902   1.787   8.354  0.00  0.00    +0.000 A 
ATOM     20  C   UNL     1      44.914   2.179   9.258  0.00  0.00    +0.000 A 
ATOM     21  C   UNL     1      44.545   3.521   9.368  0.00  0.00    +0.000 A 
ATOM     22  C   UNL     1      45.212   4.412   8.514  0.00  0.00    +0.000 A 
ATOM     23  N   UNL     1      46.189   4.082   7.633  0.00  0.00    +0.000 NA
BRANCH  18  25
ATOM     24  N   UNL     1      47.512   3.085   5.388  0.00  0.00    +0.000 N 
ATOM     25  C   UNL     1      47.523   2.360   6.548  0.00  0.00    +0.000 C 
ATOM     26  O   UNL     1      48.315   1.445   6.730  0.00  0.00    +0.000 OA
ATOM     27  H   UNL     1      48.157   2.851   4.648  0.00  0.00    +0.000 HD
ATOM     28  H   UNL     1      46.829   3.825   5.269  0.00  0.00    +0.000 HD
ENDBRANCH  18  25
ENDBRANCH  16  21
ENDBRANCH   1  16
TORSDOF 7
ENDMDL
MODEL 2
REMARK VINA RESULT:    -7.923      1.524      1.996
REMARK INTER + INTRA:         -12.051
REMARK INTER:                 -11.050
REMARK INTRA:                  -1.001
REMARK UNBOUND:                -0.885
REMARK  Name = 
REMARK  7 active torsions:
REMARK  status: ('A' for Active; 'I' for Inactive)
REMARK    1  A    between atoms: C_2  and  C_4
REMARK    2  A    between atoms: C_7  and  N_8
REMARK    3  A    between atoms: N_8  and  C_9
REMARK    4  A    between atoms: C_9  and  C_10
REMARK    5  A    between atoms: C_10  and  C_13
REMARK    6  A    between atoms: C_17  and  O_18
REMARK    7  A    between atoms: O_18  and  C_19
REMARK                            x       y       z     vdW  Elec       q    Type
REMARK                         _______ _______ _______ _____ _____    ______ ____
ROOT
ATOM      1  C   UNL     1      43.186   4.371  11.226  0.00  0.00    +0.000 C 
ENDROOT
BRANCH   1   2
ATOM      2  C   UNL     1      43.616   4.783  12.658  0.00  0.00    +0.000 C 
ATOM      3  F   UNL     1      42.614   5.511  13.238  0.00  0.00    +0.000 F 
ATOM      4  F   UNL     1      43.676   3.628  13.402  0.00  0.00    +0.000 F 
BRANCH   2   5
ATOM      5  C   UNL     1      44.947   5.526  12.640  0.00  0.00    +0.000 A 
ATOM      6  C   UNL     1      45.135   6.577  11.749  0.00  0.00    +0.000 A 
ATOM      7  C   UNL     1      46.335   7.279  11.781  0.00  0.00    +0.000 A 
ATOM      8  C   UNL     1      47.324   6.906  12.683  0.00  0.00    +0.000 A 
ATOM      9  C   UNL     1      47.088   5.825  13.520  0.00  0.00    +0.000 A 
ATOM     10  N   UNL     1      45.918   5.152  13.525  0.00  0.00    +0.000 NA
BRANCH   9  11
ATOM     11  O   UNL     1      47.988   5.369  14.448  0.00  0.00    +0.000 OA
BRANCH  11  12
ATOM     12  C   UNL     1      48.422   6.275  15.486  0.00  0.00    +0.000 C 
ATOM     13  C   UNL     1      49.834   6.902  15.333  0.00  0.00    +0.000 C 
ATOM     14  C   UNL     1      50.044   6.676  16.839  0.00  0.00    +0.000 C 
ATOM     15  C   UNL     1      48.953   5.594  16.772  0.00  0.00    +0.000 C 
ENDBRANCH  11  12
ENDBRANCH   9  11
ENDBRANCH   2   5
ENDBRANCH   1   2
BRANCH   1  16
ATOM     16  N   UNL     1      43.725   3.070  10.789  0.00  0.00    +0.000 N 
ATOM     17  H   UNL     1      43.006   2.334  10.837  0.00  0.00    +0.000 HD
BRANCH  16  21
ATOM     18  C   UNL     1      46.353   2.651   7.605  0.00  0.00    +0.000 A 
ATOM     19  C   UNL     1      46.025   3.939   8.001  0.00  0.00    +0.000 A 
ATOM     20  C   UNL     1      45.107   4.099   9.040  0.00  0.00    +0.000 A 
ATOM     21  C   UNL     1      44.532   2.987   9.657  0.00  0.00    +0.000 A 
ATOM     22  C   UNL     1      44.947   1.736   9.177  0.00  0.00    +0.000 A 
ATOM     23  N   UNL     1      45.822   1.530   8.161  0.00  0.00    +0.000 NA
BRANCH  18  25
ATOM     24  N   UNL     1      47.221   3.228   5.416  0.00  0.00    +0.000 N 
ATOM     25  C   UNL     1      47.377   2.448   6.530  0.00  0.00    +0.000 C 
ATOM     26  O   UNL     1      48.290   1.639   6.628  0.00  0.00    +0.000 OA
ATOM     27  H   UNL     1      47.859   3.123   4.642  0.00  0.00    +0.000 HD
ATOM     28  H   UNL     1      46.443   3.875   5.366  0.00  0.00    +0.000 HD
ENDBRANCH  18  25
ENDBRANCH  16  21
ENDBRANCH   1  16
TORSDOF 7
ENDMDL
MODEL 3
REMARK VINA RESULT:    -7.905      1.975      7.458
REMARK INTER + INTRA:         -12.025
REMARK INTER:                 -10.778
REMARK INTRA:                  -1.246
REMARK UNBOUND:                -0.885
REMARK  Name = 
REMARK  7 active torsions:
REMARK  status: ('A' for Active; 'I' for Inactive)
REMARK    1  A    between atoms: C_2  and  C_4
REMARK    2  A    between atoms: C_7  and  N_8
REMARK    3  A    between atoms: N_8  and  C_9
REMARK    4  A    between atoms: C_9  and  C_10
REMARK    5  A    between atoms: C_10  and  C_13
REMARK    6  A    between atoms: C_17  and  O_18
REMARK    7  A    between atoms: O_18  and  C_19
REMARK                            x       y       z     vdW  Elec       q    Type
REMARK                         _______ _______ _______ _____ _____    ______ ____
ROOT
ATOM      1  C   UNL     1      46.080   7.142  11.896  0.00  0.00    +0.000 C 
ENDROOT
BRANCH   1   2
ATOM      2  C   UNL     1      44.656   6.529  11.833  0.00  0.00    +0.000 C 
ATOM      3  F   UNL     1      44.211   6.292  13.105  0.00  0.00    +0.000 F 
ATOM      4  F   UNL     1      43.822   7.510  11.354  0.00  0.00    +0.000 F 
BRANCH   2   5
ATOM      5  C   UNL     1      44.634   5.278  10.962  0.00  0.00    +0.000 A 
ATOM      6  C   UNL     1      43.872   4.182  11.352  0.00  0.00    +0.000 A 
ATOM      7  C   UNL     1      43.821   3.069  10.520  0.00  0.00    +0.000 A 
ATOM      8  C   UNL     1      44.543   3.065   9.332  0.00  0.00    +0.000 A 
ATOM      9  C   UNL     1      45.312   4.176   9.019  0.00  0.00    +0.000 A 
ATOM     10  N   UNL     1      45.350   5.278   9.798  0.00  0.00    +0.000 NA
BRANCH   9  11
ATOM     11  O   UNL     1      46.063   4.286   7.877  0.00  0.00    +0.000 OA
BRANCH  11  12
ATOM     12  C   UNL     1      46.201   3.122   7.032  0.00  0.00    +0.000 C 
ATOM     13  C   UNL     1      47.459   2.238   7.245  0.00  0.00    +0.000 C 
ATOM     14  C   UNL     1      47.571   2.115   5.716  0.00  0.00    +0.000 C 
ATOM     15  C   UNL     1      46.741   3.405   5.608  0.00  0.00    +0.000 C 
ENDBRANCH  11  12
ENDBRANCH   9  11
ENDBRANCH   2   5
ENDBRANCH   1   2
BRANCH   1  16
ATOM     16  N   UNL     1      47.155   6.143  12.047  0.00  0.00    +0.000 N 
ATOM     17  H   UNL     1      48.012   6.443  11.562  0.00  0.00    +0.000 HD
BRANCH  16  21
ATOM     18  C   UNL     1      47.531   4.329  15.760  0.00  0.00    +0.000 A 
ATOM     19  C   UNL     1      47.997   5.628  15.631  0.00  0.00    +0.000 A 
ATOM     20  C   UNL     1      47.920   6.238  14.378  0.00  0.00    +0.000 A 
ATOM     21  C   UNL     1      47.394   5.549  13.284  0.00  0.00    +0.000 A 
ATOM     22  C   UNL     1      46.947   4.245  13.539  0.00  0.00    +0.000 A 
ATOM     23  N   UNL     1      47.015   3.604  14.732  0.00  0.00    +0.000 NA
BRANCH  18  25
ATOM     24  N   UNL     1      48.607   4.001  17.909  0.00  0.00    +0.000 N 
ATOM     25  C   UNL     1      47.549   3.669  17.105  0.00  0.00    +0.000 C 
ATOM     26  O   UNL     1      46.686   2.880  17.469  0.00  0.00    +0.000 OA
ATOM     27  H   UNL     1      48.696   3.571  18.817  0.00  0.00    +0.000 HD
ATOM     28  H   UNL     1      49.310   4.646  17.565  0.00  0.00    +0.000 HD
ENDBRANCH  18  25
ENDBRANCH  16  21
ENDBRANCH   1  16
TORSDOF 7
ENDMDL
MODEL 4
REMARK VINA RESULT:    -7.757      2.916      4.947
REMARK INTER + INTRA:         -11.817
REMARK INTER:                 -10.857
REMARK INTRA:                  -0.960
REMARK UNBOUND:                -0.885
REMARK  Name = 
REMARK  7 active torsions:
REMARK  status: ('A' for Active; 'I' for Inactive)
REMARK    1  A    between atoms: C_2  and  C_4
REMARK    2  A    between atoms: C_7  and  N_8
REMARK    3  A    between atoms: N_8  and  C_9
REMARK    4  A    between atoms: C_9  and  C_10
REMARK    5  A    between atoms: C_10  and  C_13
REMARK    6  A    between atoms: C_17  and  O_18
REMARK    7  A    between atoms: O_18  and  C_19
REMARK                            x       y       z     vdW  Elec       q    Type
REMARK                         _______ _______ _______ _____ _____    ______ ____
ROOT
ATOM      1  C   UNL     1      43.363   4.655  11.020  0.00  0.00    +0.000 C 
ENDROOT
BRANCH   1   2
ATOM      2  C   UNL     1      43.859   5.064  12.432  0.00  0.00    +0.000 C 
ATOM      3  F   UNL     1      42.790   5.461  13.187  0.00  0.00    +0.000 F 
ATOM      4  F   UNL     1      44.305   3.917  13.044  0.00  0.00    +0.000 F 
BRANCH   2   5
ATOM      5  C   UNL     1      44.944   6.131  12.345  0.00  0.00    +0.000 A 
ATOM      6  C   UNL     1      46.274   5.777  12.548  0.00  0.00    +0.000 A 
ATOM      7  C   UNL     1      47.257   6.751  12.413  0.00  0.00    +0.000 A 
ATOM      8  C   UNL     1      46.892   8.056  12.100  0.00  0.00    +0.000 A 
ATOM      9  C   UNL     1      45.546   8.351  11.946  0.00  0.00    +0.000 A 
ATOM     10  N   UNL     1      44.580   7.412  12.043  0.00  0.00    +0.000 NA
BRANCH   9  11
ATOM     11  O   UNL     1      45.069   9.599  11.637  0.00  0.00    +0.000 OA
BRANCH  11  12
ATOM     12  C   UNL     1      43.753   9.705  11.052  0.00  0.00    +0.000 C 
ATOM     13  C   UNL     1      43.660  10.297   9.620  0.00  0.00    +0.000 C 
ATOM     14  C   UNL     1      42.419  11.082  10.078  0.00  0.00    +0.000 C 
ATOM     15  C   UNL     1      42.922  10.926  11.523  0.00  0.00    +0.000 C 
ENDBRANCH  11  12
ENDBRANCH   9  11
ENDBRANCH   2   5
ENDBRANCH   1   2
BRANCH   1  16
ATOM     16  N   UNL     1      43.769   3.296  10.614  0.00  0.00    +0.000 N 
ATOM     17  H   UNL     1      42.975   2.643  10.657  0.00  0.00    +0.000 HD
BRANCH  16  21
ATOM     18  C   UNL     1      46.432   2.614   7.505  0.00  0.00    +0.000 A 
ATOM     19  C   UNL     1      46.010   3.918   7.714  0.00  0.00    +0.000 A 
ATOM     20  C   UNL     1      45.080   4.160   8.725  0.00  0.00    +0.000 A 
ATOM     21  C   UNL     1      44.583   3.110   9.500  0.00  0.00    +0.000 A 
ATOM     22  C   UNL     1      45.089   1.836   9.201  0.00  0.00    +0.000 A 
ATOM     23  N   UNL     1      45.980   1.549   8.219  0.00  0.00    +0.000 NA
BRANCH  18  25
ATOM     24  N   UNL     1      47.429   3.139   5.358  0.00  0.00    +0.000 N 
ATOM     25  C   UNL     1      47.471   2.332   6.463  0.00  0.00    +0.000 C 
ATOM     26  O   UNL     1      48.302   1.441   6.579  0.00  0.00    +0.000 OA
ATOM     27  H   UNL     1      48.082   2.986   4.605  0.00  0.00    +0.000 HD
ATOM     28  H   UNL     1      46.715   3.856   5.292  0.00  0.00    +0.000 HD
ENDBRANCH  18  25
ENDBRANCH  16  21
ENDBRANCH   1  16
TORSDOF 7
ENDMDL
MODEL 5
REMARK VINA RESULT:    -7.453      2.661      3.196
REMARK INTER + INTRA:         -11.388
REMARK INTER:                 -10.687
REMARK INTRA:                  -0.701
REMARK UNBOUND:                -0.885
REMARK  Name = 
REMARK  7 active torsions:
REMARK  status: ('A' for Active; 'I' for Inactive)
REMARK    1  A    between atoms: C_2  and  C_4
REMARK    2  A    between atoms: C_7  and  N_8
REMARK    3  A    between atoms: N_8  and  C_9
REMARK    4  A    between atoms: C_9  and  C_10
REMARK    5  A    between atoms: C_10  and  C_13
REMARK    6  A    between atoms: C_17  and  O_18
REMARK    7  A    between atoms: O_18  and  C_19
REMARK                            x       y       z     vdW  Elec       q    Type
REMARK                         _______ _______ _______ _____ _____    ______ ____
ROOT
ATOM      1  C   UNL     1      43.960   4.078  11.635  0.00  0.00    +0.000 C 
ENDROOT
BRANCH   1   2
ATOM      2  C   UNL     1      43.224   5.337  12.165  0.00  0.00    +0.000 C 
ATOM      3  F   UNL     1      42.066   5.513  11.458  0.00  0.00    +0.000 F 
ATOM      4  F   UNL     1      42.806   5.046  13.441  0.00  0.00    +0.000 F 
BRANCH   2   5
ATOM      5  C   UNL     1      44.130   6.562  12.120  0.00  0.00    +0.000 A 
ATOM      6  C   UNL     1      43.772   7.654  11.334  0.00  0.00    +0.000 A 
ATOM      7  C   UNL     1      44.582   8.784  11.346  0.00  0.00    +0.000 A 
ATOM      8  C   UNL     1      45.736   8.794  12.121  0.00  0.00    +0.000 A 
ATOM      9  C   UNL     1      46.055   7.660  12.853  0.00  0.00    +0.000 A 
ATOM     10  N   UNL     1      45.266   6.565  12.879  0.00  0.00    +0.000 NA
BRANCH   9  11
ATOM     11  O   UNL     1      47.165   7.555  13.652  0.00  0.00    +0.000 OA
BRANCH  11  12
ATOM     12  C   UNL     1      48.394   7.080  13.061  0.00  0.00    +0.000 C 
ATOM     13  C   UNL     1      49.664   7.946  13.276  0.00  0.00    +0.000 C 
ATOM     14  C   UNL     1      50.034   7.681  11.807  0.00  0.00    +0.000 C 
ATOM     15  C   UNL     1      48.550   7.372  11.547  0.00  0.00    +0.000 C 
ENDBRANCH  11  12
ENDBRANCH   9  11
ENDBRANCH   2   5
ENDBRANCH   1   2
BRANCH   1  16
ATOM     16  N   UNL     1      43.717   3.800  10.207  0.00  0.00    +0.000 N 
ATOM     17  H   UNL     1      43.125   4.528   9.782  0.00  0.00    +0.000 HD
BRANCH  16  21
ATOM     18  C   UNL     1      46.646   2.669   7.494  0.00  0.00    +0.000 A 
ATOM     19  C   UNL     1      46.067   1.673   8.266  0.00  0.00    +0.000 A 
ATOM     20  C   UNL     1      45.114   2.041   9.216  0.00  0.00    +0.000 A 
ATOM     21  C   UNL     1      44.759   3.380   9.385  0.00  0.00    +0.000 A 
ATOM     22  C   UNL     1      45.405   4.296   8.542  0.00  0.00    +0.000 A 
ATOM     23  N   UNL     1      46.349   3.990   7.617  0.00  0.00    +0.000 NA
BRANCH  18  25
ATOM     24  N   UNL     1      47.649   3.118   5.332  0.00  0.00    +0.000 N 
ATOM     25  C   UNL     1      47.632   2.299   6.429  0.00  0.00    +0.000 C 
ATOM     26  O   UNL     1      48.373   1.328   6.520  0.00  0.00    +0.000 OA
ATOM     27  H   UNL     1      48.270   2.910   4.565  0.00  0.00    +0.000 HD
ATOM     28  H   UNL     1      47.009   3.903   5.288  0.00  0.00    +0.000 HD
ENDBRANCH  18  25
ENDBRANCH  16  21
ENDBRANCH   1  16
TORSDOF 7
ENDMDL
MODEL 6
REMARK VINA RESULT:    -7.264      2.726      8.065
REMARK INTER + INTRA:         -11.122
REMARK INTER:                 -10.550
REMARK INTRA:                  -0.572
REMARK UNBOUND:                -0.885
REMARK  Name = 
REMARK  7 active torsions:
REMARK  status: ('A' for Active; 'I' for Inactive)
REMARK    1  A    between atoms: C_2  and  C_4
REMARK    2  A    between atoms: C_7  and  N_8
REMARK    3  A    between atoms: N_8  and  C_9
REMARK    4  A    between atoms: C_9  and  C_10
REMARK    5  A    between atoms: C_10  and  C_13
REMARK    6  A    between atoms: C_17  and  O_18
REMARK    7  A    between atoms: O_18  and  C_19
REMARK                            x       y       z     vdW  Elec       q    Type
REMARK                         _______ _______ _______ _____ _____    ______ ____
ROOT
ATOM      1  C   UNL     1      46.974   5.428  13.145  0.00  0.00    +0.000 C 
ENDROOT
BRANCH   1   2
ATOM      2  C   UNL     1      45.876   6.006  12.213  0.00  0.00    +0.000 C 
ATOM      3  F   UNL     1      44.931   6.641  12.971  0.00  0.00    +0.000 F 
ATOM      4  F   UNL     1      46.463   7.012  11.483  0.00  0.00    +0.000 F 
BRANCH   2   5
ATOM      5  C   UNL     1      45.283   4.919  11.324  0.00  0.00    +0.000 A 
ATOM      6  C   UNL     1      44.468   3.940  11.885  0.00  0.00    +0.000 A 
ATOM      7  C   UNL     1      43.892   2.988  11.052  0.00  0.00    +0.000 A 
ATOM      8  C   UNL     1      44.155   3.019   9.687  0.00  0.00    +0.000 A 
ATOM      9  C   UNL     1      45.005   3.999   9.197  0.00  0.00    +0.000 A 
ATOM     10  N   UNL     1      45.549   4.951   9.984  0.00  0.00    +0.000 NA
BRANCH   9  11
ATOM     11  O   UNL     1      45.335   4.128   7.872  0.00  0.00    +0.000 OA
BRANCH  11  12
ATOM     12  C   UNL     1      46.586   3.568   7.419  0.00  0.00    +0.000 C 
ATOM     13  C   UNL     1      46.727   3.286   5.899  0.00  0.00    +0.000 C 
ATOM     14  C   UNL     1      47.422   1.962   6.259  0.00  0.00    +0.000 C 
ATOM     15  C   UNL     1      46.738   2.041   7.634  0.00  0.00    +0.000 C 
ENDBRANCH  11  12
ENDBRANCH   9  11
ENDBRANCH   2   5
ENDBRANCH   1   2
BRANCH   1  16
ATOM     16  N   UNL     1      46.489   5.075  14.493  0.00  0.00    +0.000 N 
ATOM     17  H   UNL     1      45.694   4.423  14.443  0.00  0.00    +0.000 HD
BRANCH  16  21
ATOM     18  C   UNL     1      49.432   4.222  17.291  0.00  0.00    +0.000 A 
ATOM     19  C   UNL     1      48.487   3.240  17.034  0.00  0.00    +0.000 A 
ATOM     20  C   UNL     1      47.464   3.526  16.130  0.00  0.00    +0.000 A 
ATOM     21  C   UNL     1      47.393   4.774  15.508  0.00  0.00    +0.000 A 
ATOM     22  C   UNL     1      48.409   5.682  15.841  0.00  0.00    +0.000 A 
ATOM     23  N   UNL     1      49.413   5.457  16.724  0.00  0.00    +0.000 NA
BRANCH  18  25
ATOM     24  N   UNL     1      51.164   2.700  18.043  0.00  0.00    +0.000 N 
ATOM     25  C   UNL     1      50.574   3.923  18.215  0.00  0.00    +0.000 C 
ATOM     26  O   UNL     1      50.956   4.709  19.072  0.00  0.00    +0.000 OA
ATOM     27  H   UNL     1      51.921   2.423  18.650  0.00  0.00    +0.000 HD
ATOM     28  H   UNL     1      50.808   2.071  17.333  0.00  0.00    +0.000 HD
ENDBRANCH  18  25
ENDBRANCH  16  21
ENDBRANCH   1  16
TORSDOF 7
ENDMDL
MODEL 7
REMARK VINA RESULT:    -6.881      3.158      5.389
REMARK INTER + INTRA:         -10.582
REMARK INTER:                  -9.139
REMARK INTRA:                  -1.442
REMARK UNBOUND:                -0.885
REMARK  Name = 
REMARK  7 active torsions:
REMARK  status: ('A' for Active; 'I' for Inactive)
REMARK    1  A    between atoms: C_2  and  C_4
REMARK    2  A    between atoms: C_7  and  N_8
REMARK    3  A    between atoms: N_8  and  C_9
REMARK    4  A    between atoms: C_9  and  C_10
REMARK    5  A    between atoms: C_10  and  C_13
REMARK    6  A    between atoms: C_17  and  O_18
REMARK    7  A    between atoms: O_18  and  C_19
REMARK                            x       y       z     vdW  Elec       q    Type
REMARK                         _______ _______ _______ _____ _____    ______ ____
ROOT
ATOM      1  C   UNL     1      47.299   3.576  15.046  0.00  0.00    +0.000 C 
ENDROOT
BRANCH   1   2
ATOM      2  C   UNL     1      47.754   3.730  16.521  0.00  0.00    +0.000 C 
ATOM      3  F   UNL     1      46.761   3.283  17.348  0.00  0.00    +0.000 F 
ATOM      4  F   UNL     1      48.786   2.842  16.713  0.00  0.00    +0.000 F 
BRANCH   2   5
ATOM      5  C   UNL     1      48.166   5.166  16.822  0.00  0.00    +0.000 A 
ATOM      6  C   UNL     1      48.077   5.649  18.124  0.00  0.00    +0.000 A 
ATOM      7  C   UNL     1      48.506   6.944  18.391  0.00  0.00    +0.000 A 
ATOM      8  C   UNL     1      48.994   7.733  17.356  0.00  0.00    +0.000 A 
ATOM      9  C   UNL     1      49.023   7.205  16.073  0.00  0.00    +0.000 A 
ATOM     10  N   UNL     1      48.640   5.940  15.800  0.00  0.00    +0.000 NA
BRANCH   9  11
ATOM     11  O   UNL     1      49.483   7.889  14.977  0.00  0.00    +0.000 OA
BRANCH  11  12
ATOM     12  C   UNL     1      48.735   7.794  13.746  0.00  0.00    +0.000 C 
ATOM     13  C   UNL     1      49.483   7.239  12.504  0.00  0.00    +0.000 C 
ATOM     14  C   UNL     1      48.792   8.325  11.663  0.00  0.00    +0.000 C 
ATOM     15  C   UNL     1      48.588   9.123  12.962  0.00  0.00    +0.000 C 
ENDBRANCH  11  12
ENDBRANCH   9  11
ENDBRANCH   2   5
ENDBRANCH   1   2
BRANCH   1  16
ATOM     16  N   UNL     1      46.194   4.476  14.664  0.00  0.00    +0.000 N 
ATOM     17  H   UNL     1      46.244   5.365  15.180  0.00  0.00    +0.000 HD
BRANCH  16  21
ATOM     18  C   UNL     1      45.386   4.702  10.600  0.00  0.00    +0.000 A 
ATOM     19  C   UNL     1      45.777   5.867  11.242  0.00  0.00    +0.000 A 
ATOM     20  C   UNL     1      46.009   5.820  12.618  0.00  0.00    +0.000 A 
ATOM     21  C   UNL     1      45.842   4.628  13.326  0.00  0.00    +0.000 A 
ATOM     22  C   UNL     1      45.452   3.515  12.568  0.00  0.00    +0.000 A 
ATOM     23  N   UNL     1      45.199   3.515  11.235  0.00  0.00    +0.000 NA
BRANCH  18  25
ATOM     24  N   UNL     1      43.955   4.284   8.687  0.00  0.00    +0.000 N 
ATOM     25  C   UNL     1      45.184   4.710   9.116  0.00  0.00    +0.000 C 
ATOM     26  O   UNL     1      46.053   5.066   8.330  0.00  0.00    +0.000 OA
ATOM     27  H   UNL     1      43.761   4.238   7.699  0.00  0.00    +0.000 HD
ATOM     28  H   UNL     1      43.268   3.983   9.369  0.00  0.00    +0.000 HD
ENDBRANCH  18  25
ENDBRANCH  16  21
ENDBRANCH   1  16
TORSDOF 7
ENDMDL
MODEL 8
REMARK VINA RESULT:    -6.823      3.464      4.789
REMARK INTER + INTRA:         -10.501
REMARK INTER:                  -9.098
REMARK INTRA:                  -1.403
REMARK UNBOUND:                -0.885
REMARK  Name = 
REMARK  7 active torsions:
REMARK  status: ('A' for Active; 'I' for Inactive)
REMARK    1  A    between atoms: C_2  and  C_4
REMARK    2  A    between atoms: C_7  and  N_8
REMARK    3  A    between atoms: N_8  and  C_9
REMARK    4  A    between atoms: C_9  and  C_10
REMARK    5  A    between atoms: C_10  and  C_13
REMARK    6  A    between atoms: C_17  and  O_18
REMARK    7  A    between atoms: O_18  and  C_19
REMARK                            x       y       z     vdW  Elec       q    Type
REMARK                         _______ _______ _______ _____ _____    ______ ____
ROOT
ATOM      1  C   UNL     1      46.708   8.659  12.421  0.00  0.00    +0.000 C 
ENDROOT
BRANCH   1   2
ATOM      2  C   UNL     1      48.223   8.462  12.692  0.00  0.00    +0.000 C 
ATOM      3  F   UNL     1      48.709   7.495  11.856  0.00  0.00    +0.000 F 
ATOM      4  F   UNL     1      48.852   9.615  12.287  0.00  0.00    +0.000 F 
BRANCH   2   5
ATOM      5  C   UNL     1      48.481   8.151  14.162  0.00  0.00    +0.000 A 
ATOM      6  C   UNL     1      48.383   9.166  15.108  0.00  0.00    +0.000 A 
ATOM      7  C   UNL     1      48.570   8.853  16.450  0.00  0.00    +0.000 A 
ATOM      8  C   UNL     1      48.869   7.546  16.816  0.00  0.00    +0.000 A 
ATOM      9  C   UNL     1      48.990   6.588  15.820  0.00  0.00    +0.000 A 
ATOM     10  N   UNL     1      48.782   6.865  14.516  0.00  0.00    +0.000 NA
BRANCH   9  11
ATOM     11  O   UNL     1      49.281   5.270  16.062  0.00  0.00    +0.000 OA
BRANCH  11  12
ATOM     12  C   UNL     1      48.559   4.590  17.112  0.00  0.00    +0.000 C 
ATOM     13  C   UNL     1      48.977   3.128  17.426  0.00  0.00    +0.000 C 
ATOM     14  C   UNL     1      47.485   2.782  17.556  0.00  0.00    +0.000 C 
ATOM     15  C   UNL     1      47.179   4.021  16.698  0.00  0.00    +0.000 C 
ENDBRANCH  11  12
ENDBRANCH   9  11
ENDBRANCH   2   5
ENDBRANCH   1   2
BRANCH   1  16
ATOM     16  N   UNL     1      45.841   7.732  13.172  0.00  0.00    +0.000 N 
ATOM     17  H   UNL     1      45.037   8.227  13.584  0.00  0.00    +0.000 HD
BRANCH  16  21
ATOM     18  C   UNL     1      44.541   4.116  11.607  0.00  0.00    +0.000 A 
ATOM     19  C   UNL     1      45.271   4.079  12.786  0.00  0.00    +0.000 A 
ATOM     20  C   UNL     1      45.755   5.282  13.302  0.00  0.00    +0.000 A 
ATOM     21  C   UNL     1      45.514   6.487  12.641  0.00  0.00    +0.000 A 
ATOM     22  C   UNL     1      44.758   6.400  11.463  0.00  0.00    +0.000 A 
ATOM     23  N   UNL     1      44.280   5.255  10.913  0.00  0.00    +0.000 NA
BRANCH  18  25
ATOM     24  N   UNL     1      44.628   2.311   9.990  0.00  0.00    +0.000 N 
ATOM     25  C   UNL     1      43.961   2.847  11.059  0.00  0.00    +0.000 C 
ATOM     26  O   UNL     1      42.958   2.321  11.523  0.00  0.00    +0.000 OA
ATOM     27  H   UNL     1      44.276   1.472   9.554  0.00  0.00    +0.000 HD
ATOM     28  H   UNL     1      45.446   2.785   9.624  0.00  0.00    +0.000 HD
ENDBRANCH  18  25
ENDBRANCH  16  21
ENDBRANCH   1  16
TORSDOF 7
ENDMDL
MODEL 9
REMARK VINA RESULT:    -6.572      3.670      5.256
REMARK INTER + INTRA:         -10.147
REMARK INTER:                  -8.996
REMARK INTRA:                  -1.151
REMARK UNBOUND:                -0.885
REMARK  Name = 
REMARK  7 active torsions:
REMARK  status: ('A' for Active; 'I' for Inactive)
REMARK    1  A    between atoms: C_2  and  C_4
REMARK    2  A    between atoms: C_7  and  N_8
REMARK    3  A    between atoms: N_8  and  C_9
REMARK    4  A    between atoms: C_9  and  C_10
REMARK    5  A    between atoms: C_10  and  C_13
REMARK    6  A    between atoms: C_17  and  O_18
REMARK    7  A    between atoms: O_18  and  C_19
REMARK                            x       y       z     vdW  Elec       q    Type
REMARK                         _______ _______ _______ _____ _____    ______ ____
ROOT
ATOM      1  C   UNL     1      48.507   7.121  13.348  0.00  0.00    +0.000 C 
ENDROOT
BRANCH   1   2
ATOM      2  C   UNL     1      49.384   7.660  14.509  0.00  0.00    +0.000 C 
ATOM      3  F   UNL     1      50.701   7.431  14.222  0.00  0.00    +0.000 F 
ATOM      4  F   UNL     1      49.263   9.029  14.496  0.00  0.00    +0.000 F 
BRANCH   2   5
ATOM      5  C   UNL     1      48.960   7.057  15.843  0.00  0.00    +0.000 A 
ATOM      6  C   UNL     1      48.825   7.878  16.958  0.00  0.00    +0.000 A 
ATOM      7  C   UNL     1      48.387   7.321  18.153  0.00  0.00    +0.000 A 
ATOM      8  C   UNL     1      48.112   5.960  18.218  0.00  0.00    +0.000 A 
ATOM      9  C   UNL     1      48.302   5.190  17.080  0.00  0.00    +0.000 A 
ATOM     10  N   UNL     1      48.697   5.717  15.902  0.00  0.00    +0.000 NA
BRANCH   9  11
ATOM     11  O   UNL     1      48.064   3.840  17.025  0.00  0.00    +0.000 OA
BRANCH  11  12
ATOM     12  C   UNL     1      49.043   2.947  17.598  0.00  0.00    +0.000 C 
ATOM     13  C   UNL     1      50.498   3.473  17.717  0.00  0.00    +0.000 C 
ATOM     14  C   UNL     1      50.984   2.089  17.256  0.00  0.00    +0.000 C 
ATOM     15  C   UNL     1      49.597   1.872  16.629  0.00  0.00    +0.000 C 
ENDBRANCH  11  12
ENDBRANCH   9  11
ENDBRANCH   2   5
ENDBRANCH   1   2
BRANCH   1  16
ATOM     16  N   UNL     1      47.080   6.979  13.692  0.00  0.00    +0.000 N 
ATOM     17  H   UNL     1      46.636   7.898  13.824  0.00  0.00    +0.000 HD
BRANCH  16  21
ATOM     18  C   UNL     1      44.953   4.040  11.677  0.00  0.00    +0.000 A 
ATOM     19  C   UNL     1      45.180   5.237  11.014  0.00  0.00    +0.000 A 
ATOM     20  C   UNL     1      45.854   6.253  11.692  0.00  0.00    +0.000 A 
ATOM     21  C   UNL     1      46.280   6.067  13.009  0.00  0.00    +0.000 A 
ATOM     22  C   UNL     1      46.001   4.813  13.572  0.00  0.00    +0.000 A 
ATOM     23  N   UNL     1      45.336   3.802  12.959  0.00  0.00    +0.000 NA
BRANCH  18  25
ATOM     24  N   UNL     1      43.339   2.231  11.676  0.00  0.00    +0.000 N 
ATOM     25  C   UNL     1      44.281   2.912  10.955  0.00  0.00    +0.000 C 
ATOM     26  O   UNL     1      44.553   2.609   9.800  0.00  0.00    +0.000 OA
ATOM     27  H   UNL     1      42.867   1.442  11.260  0.00  0.00    +0.000 HD
ATOM     28  H   UNL     1      43.154   2.503  12.635  0.00  0.00    +0.000 HD
ENDBRANCH  18  25
ENDBRANCH  16  21
ENDBRANCH   1  16
TORSDOF 7
ENDMDL
