MODEL 1
REMARK VINA RESULT:    -8.752      0.000      0.000
REMARK INTER + INTRA:         -13.115
REMARK INTER:                 -12.077
REMARK INTRA:                  -1.038
REMARK UNBOUND:                -1.038
REMARK  Name = 
REMARK  8 active torsions:
REMARK  status: ('A' for Active; 'I' for Inactive)
REMARK    1  A    between atoms: C_1  and  C_2
REMARK    2  A    between atoms: C_2  and  C_3
REMARK    3  A    between atoms: C_2  and  C_21
REMARK    4  A    between atoms: C_3  and  N_4
REMARK    5  A    between atoms: C_9  and  C_10
REMARK    6  A    between atoms: C_14  and  C_15
REMARK    7  A    between atoms: CA_24  and  C_25
REMARK    8  A    between atoms: C_25  and  OXT_27
REMARK                            x       y       z     vdW  Elec       q    Type
REMARK                         _______ _______ _______ _____ _____    ______ ____
ROOT
ATOM      1  N   UNL     1      44.321   4.767  12.648  0.00  0.00    +0.000 N 
ATOM      2  C   UNL     1      45.536   5.153  13.203  0.00  0.00    +0.000 A 
ATOM      3  N   UNL     1      45.952   4.433  14.248  0.00  0.00    +0.000 NA
ATOM      4  C   UNL     1      47.123   4.792  14.801  0.00  0.00    +0.000 A 
ATOM      5  C   UNL     1      47.899   5.825  14.337  0.00  0.00    +0.000 A 
ATOM      6  C   UNL     1      47.412   6.504  13.240  0.00  0.00    +0.000 A 
ATOM      7  N   UNL     1      46.225   6.175  12.682  0.00  0.00    +0.000 NA
ATOM      8  H   UNL     1      44.196   3.805  12.945  0.00  0.00    +0.000 HD
ENDROOT
BRANCH   6   9
ATOM      9  C   UNL     1      48.133   7.608  12.567  0.00  0.00    +0.000 A 
ATOM     10  C   UNL     1      47.602   8.905  12.466  0.00  0.00    +0.000 A 
ATOM     11  C   UNL     1      48.320   9.943  11.865  0.00  0.00    +0.000 A 
ATOM     12  C   UNL     1      49.599   9.713  11.364  0.00  0.00    +0.000 A 
ATOM     13  C   UNL     1      50.174   8.441  11.459  0.00  0.00    +0.000 A 
ATOM     14  C   UNL     1      49.427   7.402  12.042  0.00  0.00    +0.000 A 
BRANCH  13  15
ATOM     15  C   UNL     1      51.579   8.175  10.981  0.00  0.00    +0.000 C 
ATOM     16  F   UNL     1      52.492   8.102  11.990  0.00  0.00    +0.000 F 
ATOM     17  F   UNL     1      51.683   6.997  10.303  0.00  0.00    +0.000 F 
ATOM     18  F   UNL     1      52.037   9.136  10.133  0.00  0.00    +0.000 F 
ENDBRANCH  13  15
ENDBRANCH   6   9
BRANCH   1  19
ATOM     19  C   UNL     1      44.219   5.008  11.215  0.00  0.00    +0.000 C 
BRANCH  19  21
ATOM     20  C   UNL     1      43.464   2.587  11.415  0.00  0.00    +0.000 C 
ATOM     21  C   UNL     1      43.786   3.738  10.449  0.00  0.00    +0.000 C 
BRANCH  21  22
ATOM     22  C   UNL     1      44.757   3.354   9.343  0.00  0.00    +0.000 A 
ATOM     23  C   UNL     1      45.174   2.021   9.201  0.00  0.00    +0.000 A 
ATOM     24  C   UNL     1      46.090   1.678   8.210  0.00  0.00    +0.000 A 
ATOM     25  CA  UNL     1      46.558   2.687   7.384  0.00  0.00    +0.000 A 
ATOM     26  N   UNL     1      46.167   3.990   7.465  0.00  0.00    +0.000 NA
ATOM     27  C   UNL     1      45.274   4.283   8.439  0.00  0.00    +0.000 A 
BRANCH  25  28
ATOM     28  C   UNL     1      47.566   2.396   6.324  0.00  0.00    +0.000 C 
ATOM     29  O   UNL     1      48.386   1.497   6.363  0.00  0.00    +0.000 OA
BRANCH  28  30
ATOM     30  OXT UNL     1      47.446   3.285   5.308  0.00  0.00    +0.000 OA
ATOM     31  HXT UNL     1      47.576   2.802   4.455  0.00  0.00    +0.000 HD
ENDBRANCH  28  30
ENDBRANCH  25  28
ENDBRANCH  21  22
ENDBRANCH  19  21
ENDBRANCH   1  19
TORSDOF 7
ENDMDL
MODEL 2
REMARK VINA RESULT:    -8.041      3.326      4.439
REMARK INTER + INTRA:         -12.135
REMARK INTER:                 -11.510
REMARK INTRA:                  -0.625
REMARK UNBOUND:                -1.038
REMARK  Name = 
REMARK  8 active torsions:
REMARK  status: ('A' for Active; 'I' for Inactive)
REMARK    1  A    between atoms: C_1  and  C_2
REMARK    2  A    between atoms: C_2  and  C_3
REMARK    3  A    between atoms: C_2  and  C_21
REMARK    4  A    between atoms: C_3  and  N_4
REMARK    5  A    between atoms: C_9  and  C_10
REMARK    6  A    between atoms: C_14  and  C_15
REMARK    7  A    between atoms: CA_24  and  C_25
REMARK    8  A    between atoms: C_25  and  OXT_27
REMARK                            x       y       z     vdW  Elec       q    Type
REMARK                         _______ _______ _______ _____ _____    ______ ____
ROOT
ATOM      1  N   UNL     1      45.282   6.119  11.182  0.00  0.00    +0.000 N 
ATOM      2  C   UNL     1      46.003   6.934  12.047  0.00  0.00    +0.000 A 
ATOM      3  N   UNL     1      45.846   8.249  11.872  0.00  0.00    +0.000 NA
ATOM      4  C   UNL     1      46.536   9.054  12.696  0.00  0.00    +0.000 A 
ATOM      5  C   UNL     1      47.355   8.597  13.699  0.00  0.00    +0.000 A 
ATOM      6  C   UNL     1      47.445   7.227  13.831  0.00  0.00    +0.000 A 
ATOM      7  N   UNL     1      46.777   6.398  12.997  0.00  0.00    +0.000 NA
ATOM      8  H   UNL     1      44.530   6.707  10.840  0.00  0.00    +0.000 HD
ENDROOT
BRANCH   6   9
ATOM      9  C   UNL     1      48.232   6.550  14.886  0.00  0.00    +0.000 A 
ATOM     10  C   UNL     1      49.382   7.125  15.454  0.00  0.00    +0.000 A 
ATOM     11  C   UNL     1      50.085   6.487  16.481  0.00  0.00    +0.000 A 
ATOM     12  C   UNL     1      49.644   5.264  16.979  0.00  0.00    +0.000 A 
ATOM     13  C   UNL     1      48.493   4.665  16.455  0.00  0.00    +0.000 A 
ATOM     14  C   UNL     1      47.814   5.306  15.404  0.00  0.00    +0.000 A 
BRANCH  13  15
ATOM     15  C   UNL     1      47.956   3.372  17.014  0.00  0.00    +0.000 C 
ATOM     16  F   UNL     1      48.498   3.032  18.218  0.00  0.00    +0.000 F 
ATOM     17  F   UNL     1      46.608   3.412  17.214  0.00  0.00    +0.000 F 
ATOM     18  F   UNL     1      48.180   2.309  16.192  0.00  0.00    +0.000 F 
ENDBRANCH  13  15
ENDBRANCH   6   9
BRANCH   1  19
ATOM     19  C   UNL     1      44.879   4.845  11.762  0.00  0.00    +0.000 C 
BRANCH  19  21
ATOM     20  C   UNL     1      43.355   2.830  11.463  0.00  0.00    +0.000 C 
ATOM     21  C   UNL     1      44.086   3.981  10.756  0.00  0.00    +0.000 C 
BRANCH  21  22
ATOM     22  C   UNL     1      44.925   3.535   9.569  0.00  0.00    +0.000 A 
ATOM     23  C   UNL     1      45.226   2.176   9.388  0.00  0.00    +0.000 A 
ATOM     24  C   UNL     1      46.024   1.773   8.320  0.00  0.00    +0.000 A 
ATOM     25  CA  UNL     1      46.494   2.751   7.460  0.00  0.00    +0.000 A 
ATOM     26  N   UNL     1      46.212   4.079   7.577  0.00  0.00    +0.000 NA
ATOM     27  C   UNL     1      45.432   4.430   8.625  0.00  0.00    +0.000 A 
BRANCH  25  28
ATOM     28  C   UNL     1      47.382   2.394   6.315  0.00  0.00    +0.000 C 
ATOM     29  O   UNL     1      48.128   1.433   6.280  0.00  0.00    +0.000 OA
BRANCH  28  30
ATOM     30  OXT UNL     1      47.246   3.302   5.317  0.00  0.00    +0.000 OA
ATOM     31  HXT UNL     1      47.305   4.207   5.711  0.00  0.00    +0.000 HD
ENDBRANCH  28  30
ENDBRANCH  25  28
ENDBRANCH  21  22
ENDBRANCH  19  21
ENDBRANCH   1  19
TORSDOF 7
ENDMDL
MODEL 3
REMARK VINA RESULT:    -8.031      2.601      3.549
REMARK INTER + INTRA:         -12.121
REMARK INTER:                 -11.394
REMARK INTRA:                  -0.727
REMARK UNBOUND:                -1.038
REMARK  Name = 
REMARK  8 active torsions:
REMARK  status: ('A' for Active; 'I' for Inactive)
REMARK    1  A    between atoms: C_1  and  C_2
REMARK    2  A    between atoms: C_2  and  C_3
REMARK    3  A    between atoms: C_2  and  C_21
REMARK    4  A    between atoms: C_3  and  N_4
REMARK    5  A    between atoms: C_9  and  C_10
REMARK    6  A    between atoms: C_14  and  C_15
REMARK    7  A    between atoms: CA_24  and  C_25
REMARK    8  A    between atoms: C_25  and  OXT_27
REMARK                            x       y       z     vdW  Elec       q    Type
REMARK                         _______ _______ _______ _____ _____    ______ ____
ROOT
ATOM      1  N   UNL     1      44.179   6.371  10.785  0.00  0.00    +0.000 N 
ATOM      2  C   UNL     1      44.859   7.439  11.360  0.00  0.00    +0.000 A 
ATOM      3  N   UNL     1      44.248   8.624  11.287  0.00  0.00    +0.000 NA
ATOM      4  C   UNL     1      44.890   9.670  11.833  0.00  0.00    +0.000 A 
ATOM      5  C   UNL     1      46.104   9.572  12.468  0.00  0.00    +0.000 A 
ATOM      6  C   UNL     1      46.658   8.309  12.524  0.00  0.00    +0.000 A 
ATOM      7  N   UNL     1      46.040   7.247  11.959  0.00  0.00    +0.000 NA
ATOM      8  H   UNL     1      43.211   6.672  10.748  0.00  0.00    +0.000 HD
ENDROOT
BRANCH   6   9
ATOM      9  C   UNL     1      47.930   7.998  13.212  0.00  0.00    +0.000 A 
ATOM     10  C   UNL     1      49.164   8.528  12.794  0.00  0.00    +0.000 A 
ATOM     11  C   UNL     1      50.347   8.255  13.487  0.00  0.00    +0.000 A 
ATOM     12  C   UNL     1      50.324   7.458  14.629  0.00  0.00    +0.000 A 
ATOM     13  C   UNL     1      49.116   6.925  15.090  0.00  0.00    +0.000 A 
ATOM     14  C   UNL     1      47.940   7.187  14.366  0.00  0.00    +0.000 A 
BRANCH  13  15
ATOM     15  C   UNL     1      49.050   6.109  16.357  0.00  0.00    +0.000 C 
ATOM     16  F   UNL     1      50.243   5.552  16.709  0.00  0.00    +0.000 F 
ATOM     17  F   UNL     1      48.657   6.850  17.432  0.00  0.00    +0.000 F 
ATOM     18  F   UNL     1      48.167   5.076  16.272  0.00  0.00    +0.000 F 
ENDBRANCH  13  15
ENDBRANCH   6   9
BRANCH   1  19
ATOM     19  C   UNL     1      44.421   5.091  11.438  0.00  0.00    +0.000 C 
BRANCH  19  21
ATOM     20  C   UNL     1      43.403   2.763  11.540  0.00  0.00    +0.000 C 
ATOM     21  C   UNL     1      43.843   3.913  10.623  0.00  0.00    +0.000 C 
BRANCH  21  22
ATOM     22  C   UNL     1      44.755   3.475   9.487  0.00  0.00    +0.000 A 
ATOM     23  C   UNL     1      45.129   2.128   9.362  0.00  0.00    +0.000 A 
ATOM     24  C   UNL     1      45.993   1.735   8.343  0.00  0.00    +0.000 A 
ATOM     25  CA  UNL     1      46.453   2.710   7.473  0.00  0.00    +0.000 A 
ATOM     26  N   UNL     1      46.101   4.025   7.536  0.00  0.00    +0.000 NA
ATOM     27  C   UNL     1      45.259   4.367   8.539  0.00  0.00    +0.000 A 
BRANCH  25  28
ATOM     28  C   UNL     1      47.407   2.364   6.379  0.00  0.00    +0.000 C 
ATOM     29  O   UNL     1      48.170   1.416   6.388  0.00  0.00    +0.000 OA
BRANCH  28  30
ATOM     30  OXT UNL     1      47.309   3.266   5.371  0.00  0.00    +0.000 OA
ATOM     31  HXT UNL     1      46.417   3.172   4.956  0.00  0.00    +0.000 HD
ENDBRANCH  28  30
ENDBRANCH  25  28
ENDBRANCH  21  22
ENDBRANCH  19  21
ENDBRANCH   1  19
TORSDOF 7
ENDMDL
MODEL 4
REMARK VINA RESULT:    -7.979      1.444      2.373
REMARK INTER + INTRA:         -12.049
REMARK INTER:                 -11.216
REMARK INTRA:                  -0.834
REMARK UNBOUND:                -1.038
REMARK  Name = 
REMARK  8 active torsions:
REMARK  status: ('A' for Active; 'I' for Inactive)
REMARK    1  A    between atoms: C_1  and  C_2
REMARK    2  A    between atoms: C_2  and  C_3
REMARK    3  A    between atoms: C_2  and  C_21
REMARK    4  A    between atoms: C_3  and  N_4
REMARK    5  A    between atoms: C_9  and  C_10
REMARK    6  A    between atoms: C_14  and  C_15
REMARK    7  A    between atoms: CA_24  and  C_25
REMARK    8  A    between atoms: C_25  and  OXT_27
REMARK                            x       y       z     vdW  Elec       q    Type
REMARK                         _______ _______ _______ _____ _____    ______ ____
ROOT
ATOM      1  N   UNL     1      43.913   6.406  10.818  0.00  0.00    +0.000 N 
ATOM      2  C   UNL     1      44.581   7.526  11.300  0.00  0.00    +0.000 A 
ATOM      3  N   UNL     1      43.875   8.659  11.322  0.00  0.00    +0.000 NA
ATOM      4  C   UNL     1      44.504   9.754  11.781  0.00  0.00    +0.000 A 
ATOM      5  C   UNL     1      45.798   9.754  12.238  0.00  0.00    +0.000 A 
ATOM      6  C   UNL     1      46.452   8.539  12.206  0.00  0.00    +0.000 A 
ATOM      7  N   UNL     1      45.846   7.430  11.726  0.00  0.00    +0.000 NA
ATOM      8  H   UNL     1      42.928   6.630  10.920  0.00  0.00    +0.000 HD
ENDROOT
BRANCH   6   9
ATOM      9  C   UNL     1      47.829   8.331  12.706  0.00  0.00    +0.000 A 
ATOM     10  C   UNL     1      48.103   8.007  14.047  0.00  0.00    +0.000 A 
ATOM     11  C   UNL     1      49.409   7.771  14.488  0.00  0.00    +0.000 A 
ATOM     12  C   UNL     1      50.474   7.835  13.593  0.00  0.00    +0.000 A 
ATOM     13  C   UNL     1      50.245   8.137  12.246  0.00  0.00    +0.000 A 
ATOM     14  C   UNL     1      48.929   8.398  11.825  0.00  0.00    +0.000 A 
BRANCH  13  15
ATOM     15  C   UNL     1      51.369   8.155  11.242  0.00  0.00    +0.000 C 
ATOM     16  F   UNL     1      51.423   9.300  10.505  0.00  0.00    +0.000 F 
ATOM     17  F   UNL     1      52.593   8.037  11.831  0.00  0.00    +0.000 F 
ATOM     18  F   UNL     1      51.288   7.137  10.342  0.00  0.00    +0.000 F 
ENDBRANCH  13  15
ENDBRANCH   6   9
BRANCH   1  19
ATOM     19  C   UNL     1      44.344   5.151  11.421  0.00  0.00    +0.000 C 
BRANCH  19  21
ATOM     20  C   UNL     1      43.425   2.785  11.587  0.00  0.00    +0.000 C 
ATOM     21  C   UNL     1      43.816   3.928  10.638  0.00  0.00    +0.000 C 
BRANCH  21  22
ATOM     22  C   UNL     1      44.746   3.498   9.514  0.00  0.00    +0.000 A 
ATOM     23  C   UNL     1      45.071   2.143   9.347  0.00  0.00    +0.000 A 
ATOM     24  C   UNL     1      45.951   1.755   8.339  0.00  0.00    +0.000 A 
ATOM     25  CA  UNL     1      46.476   2.744   7.523  0.00  0.00    +0.000 A 
ATOM     26  N   UNL     1      46.174   4.069   7.629  0.00  0.00    +0.000 NA
ATOM     27  C   UNL     1      45.314   4.405   8.618  0.00  0.00    +0.000 A 
BRANCH  25  28
ATOM     28  C   UNL     1      47.450   2.403   6.446  0.00  0.00    +0.000 C 
ATOM     29  O   UNL     1      48.231   1.471   6.476  0.00  0.00    +0.000 OA
BRANCH  28  30
ATOM     30  OXT UNL     1      47.347   3.290   5.425  0.00  0.00    +0.000 OA
ATOM     31  HXT UNL     1      47.819   2.917   4.641  0.00  0.00    +0.000 HD
ENDBRANCH  28  30
ENDBRANCH  25  28
ENDBRANCH  21  22
ENDBRANCH  19  21
ENDBRANCH   1  19
TORSDOF 7
ENDMDL
MODEL 5
REMARK VINA RESULT:    -7.685      3.444      5.117
REMARK INTER + INTRA:         -11.644
REMARK INTER:                 -10.965
REMARK INTRA:                  -0.679
REMARK UNBOUND:                -1.038
REMARK  Name = 
REMARK  8 active torsions:
REMARK  status: ('A' for Active; 'I' for Inactive)
REMARK    1  A    between atoms: C_1  and  C_2
REMARK    2  A    between atoms: C_2  and  C_3
REMARK    3  A    between atoms: C_2  and  C_21
REMARK    4  A    between atoms: C_3  and  N_4
REMARK    5  A    between atoms: C_9  and  C_10
REMARK    6  A    between atoms: C_14  and  C_15
REMARK    7  A    between atoms: CA_24  and  C_25
REMARK    8  A    between atoms: C_25  and  OXT_27
REMARK                            x       y       z     vdW  Elec       q    Type
REMARK                         _______ _______ _______ _____ _____    ______ ____
ROOT
ATOM      1  N   UNL     1      46.319   5.779  11.648  0.00  0.00    +0.000 N 
ATOM      2  C   UNL     1      47.091   6.228  12.713  0.00  0.00    +0.000 A 
ATOM      3  N   UNL     1      47.663   7.424  12.553  0.00  0.00    +0.000 NA
ATOM      4  C   UNL     1      48.417   7.874  13.569  0.00  0.00    +0.000 A 
ATOM      5  C   UNL     1      48.601   7.187  14.744  0.00  0.00    +0.000 A 
ATOM      6  C   UNL     1      47.957   5.971  14.842  0.00  0.00    +0.000 A 
ATOM      7  N   UNL     1      47.213   5.488  13.822  0.00  0.00    +0.000 NA
ATOM      8  H   UNL     1      46.081   6.618  11.131  0.00  0.00    +0.000 HD
ENDROOT
BRANCH   6   9
ATOM      9  C   UNL     1      47.992   5.115  16.049  0.00  0.00    +0.000 A 
ATOM     10  C   UNL     1      47.513   3.793  16.050  0.00  0.00    +0.000 A 
ATOM     11  C   UNL     1      47.597   2.989  17.191  0.00  0.00    +0.000 A 
ATOM     12  C   UNL     1      48.180   3.481  18.356  0.00  0.00    +0.000 A 
ATOM     13  C   UNL     1      48.686   4.785  18.393  0.00  0.00    +0.000 A 
ATOM     14  C   UNL     1      48.569   5.589  17.246  0.00  0.00    +0.000 A 
BRANCH  13  15
ATOM     15  C   UNL     1      49.377   5.325  19.619  0.00  0.00    +0.000 C 
ATOM     16  F   UNL     1      49.383   4.456  20.669  0.00  0.00    +0.000 F 
ATOM     17  F   UNL     1      50.686   5.630  19.386  0.00  0.00    +0.000 F 
ATOM     18  F   UNL     1      48.805   6.468  20.086  0.00  0.00    +0.000 F 
ENDBRANCH  13  15
ENDBRANCH   6   9
BRANCH   1  19
ATOM     19  C   UNL     1      45.197   4.935  12.041  0.00  0.00    +0.000 C 
BRANCH  19  21
ATOM     20  C   UNL     1      43.075   3.759  11.277  0.00  0.00    +0.000 C 
ATOM     21  C   UNL     1      44.289   4.593  10.839  0.00  0.00    +0.000 C 
BRANCH  21  22
ATOM     22  C   UNL     1      45.054   3.992   9.671  0.00  0.00    +0.000 A 
ATOM     23  C   UNL     1      45.158   2.598   9.537  0.00  0.00    +0.000 A 
ATOM     24  C   UNL     1      45.889   2.050   8.486  0.00  0.00    +0.000 A 
ATOM     25  CA  UNL     1      46.493   2.922   7.594  0.00  0.00    +0.000 A 
ATOM     26  N   UNL     1      46.403   4.280   7.666  0.00  0.00    +0.000 NA
ATOM     27  C   UNL     1      45.682   4.773   8.700  0.00  0.00    +0.000 A 
BRANCH  25  28
ATOM     28  C   UNL     1      47.319   2.403   6.466  0.00  0.00    +0.000 C 
ATOM     29  O   UNL     1      48.001   1.396   6.501  0.00  0.00    +0.000 OA
BRANCH  28  30
ATOM     30  OXT UNL     1      47.209   3.223   5.391  0.00  0.00    +0.000 OA
ATOM     31  HXT UNL     1      48.058   3.721   5.293  0.00  0.00    +0.000 HD
ENDBRANCH  28  30
ENDBRANCH  25  28
ENDBRANCH  21  22
ENDBRANCH  19  21
ENDBRANCH   1  19
TORSDOF 7
ENDMDL
MODEL 6
REMARK VINA RESULT:    -7.540      4.214      7.666
REMARK INTER + INTRA:         -11.443
REMARK INTER:                 -10.280
REMARK INTRA:                  -1.163
REMARK UNBOUND:                -1.038
REMARK  Name = 
REMARK  8 active torsions:
REMARK  status: ('A' for Active; 'I' for Inactive)
REMARK    1  A    between atoms: C_1  and  C_2
REMARK    2  A    between atoms: C_2  and  C_3
REMARK    3  A    between atoms: C_2  and  C_21
REMARK    4  A    between atoms: C_3  and  N_4
REMARK    5  A    between atoms: C_9  and  C_10
REMARK    6  A    between atoms: C_14  and  C_15
REMARK    7  A    between atoms: CA_24  and  C_25
REMARK    8  A    between atoms: C_25  and  OXT_27
REMARK                            x       y       z     vdW  Elec       q    Type
REMARK                         _______ _______ _______ _____ _____    ______ ____
ROOT
ATOM      1  N   UNL     1      47.159   9.525  13.239  0.00  0.00    +0.000 N 
ATOM      2  C   UNL     1      46.054   9.125  12.496  0.00  0.00    +0.000 A 
ATOM      3  N   UNL     1      45.291  10.109  12.014  0.00  0.00    +0.000 NA
ATOM      4  C   UNL     1      44.216   9.744  11.296  0.00  0.00    +0.000 A 
ATOM      5  C   UNL     1      43.889   8.438  11.025  0.00  0.00    +0.000 A 
ATOM      6  C   UNL     1      44.740   7.481  11.538  0.00  0.00    +0.000 A 
ATOM      7  N   UNL     1      45.815   7.826  12.283  0.00  0.00    +0.000 NA
ATOM      8  H   UNL     1      47.330  10.483  12.951  0.00  0.00    +0.000 HD
ENDROOT
BRANCH   6   9
ATOM      9  C   UNL     1      44.583   6.028  11.305  0.00  0.00    +0.000 A 
ATOM     10  C   UNL     1      43.862   5.198  12.181  0.00  0.00    +0.000 A 
ATOM     11  C   UNL     1      43.689   3.835  11.918  0.00  0.00    +0.000 A 
ATOM     12  C   UNL     1      44.218   3.272  10.758  0.00  0.00    +0.000 A 
ATOM     13  C   UNL     1      44.926   4.066   9.850  0.00  0.00    +0.000 A 
ATOM     14  C   UNL     1      45.114   5.428  10.144  0.00  0.00    +0.000 A 
BRANCH  13  15
ATOM     15  C   UNL     1      45.458   3.498   8.559  0.00  0.00    +0.000 C 
ATOM     16  F   UNL     1      46.433   4.261   7.989  0.00  0.00    +0.000 F 
ATOM     17  F   UNL     1      46.006   2.261   8.721  0.00  0.00    +0.000 F 
ATOM     18  F   UNL     1      44.493   3.357   7.608  0.00  0.00    +0.000 F 
ENDBRANCH  13  15
ENDBRANCH   6   9
BRANCH   1  19
ATOM     19  C   UNL     1      48.298   8.621  13.145  0.00  0.00    +0.000 C 
BRANCH  19  21
ATOM     20  C   UNL     1      50.473   8.657  14.462  0.00  0.00    +0.000 C 
ATOM     21  C   UNL     1      48.962   8.390  14.520  0.00  0.00    +0.000 C 
BRANCH  21  22
ATOM     22  C   UNL     1      48.602   7.045  15.133  0.00  0.00    +0.000 A 
ATOM     23  C   UNL     1      49.012   6.732  16.438  0.00  0.00    +0.000 A 
ATOM     24  C   UNL     1      48.712   5.486  16.985  0.00  0.00    +0.000 A 
ATOM     25  CA  UNL     1      48.002   4.591  16.202  0.00  0.00    +0.000 A 
ATOM     26  N   UNL     1      47.560   4.854  14.940  0.00  0.00    +0.000 NA
ATOM     27  C   UNL     1      47.869   6.076  14.446  0.00  0.00    +0.000 A 
BRANCH  25  28
ATOM     28  C   UNL     1      47.676   3.227  16.712  0.00  0.00    +0.000 C 
ATOM     29  O   UNL     1      46.723   2.951  17.417  0.00  0.00    +0.000 OA
BRANCH  28  30
ATOM     30  OXT UNL     1      48.603   2.335  16.284  0.00  0.00    +0.000 OA
ATOM     31  HXT UNL     1      49.126   2.032  17.066  0.00  0.00    +0.000 HD
ENDBRANCH  28  30
ENDBRANCH  25  28
ENDBRANCH  21  22
ENDBRANCH  19  21
ENDBRANCH   1  19
TORSDOF 7
ENDMDL
MODEL 7
REMARK VINA RESULT:    -7.090      5.349      8.387
REMARK INTER + INTRA:         -10.823
REMARK INTER:                  -9.962
REMARK INTRA:                  -0.860
REMARK UNBOUND:                -1.038
REMARK  Name = 
REMARK  8 active torsions:
REMARK  status: ('A' for Active; 'I' for Inactive)
REMARK    1  A    between atoms: C_1  and  C_2
REMARK    2  A    between atoms: C_2  and  C_3
REMARK    3  A    between atoms: C_2  and  C_21
REMARK    4  A    between atoms: C_3  and  N_4
REMARK    5  A    between atoms: C_9  and  C_10
REMARK    6  A    between atoms: C_14  and  C_15
REMARK    7  A    between atoms: CA_24  and  C_25
REMARK    8  A    between atoms: C_25  and  OXT_27
REMARK                            x       y       z     vdW  Elec       q    Type
REMARK                         _______ _______ _______ _____ _____    ______ ____
ROOT
ATOM      1  N   UNL     1      48.432   5.987  15.986  0.00  0.00    +0.000 N 
ATOM      2  C   UNL     1      48.203   6.280  14.646  0.00  0.00    +0.000 A 
ATOM      3  N   UNL     1      49.179   6.943  14.020  0.00  0.00    +0.000 NA
ATOM      4  C   UNL     1      48.975   7.239  12.726  0.00  0.00    +0.000 A 
ATOM      5  C   UNL     1      47.848   6.878  12.030  0.00  0.00    +0.000 A 
ATOM      6  C   UNL     1      46.897   6.174  12.740  0.00  0.00    +0.000 A 
ATOM      7  N   UNL     1      47.071   5.886  14.050  0.00  0.00    +0.000 NA
ATOM      8  H   UNL     1      49.440   6.038  16.091  0.00  0.00    +0.000 HD
ENDROOT
BRANCH   6   9
ATOM      9  C   UNL     1      45.645   5.653  12.148  0.00  0.00    +0.000 A 
ATOM     10  C   UNL     1      44.378   5.944  12.686  0.00  0.00    +0.000 A 
ATOM     11  C   UNL     1      43.206   5.477  12.083  0.00  0.00    +0.000 A 
ATOM     12  C   UNL     1      43.270   4.722  10.915  0.00  0.00    +0.000 A 
ATOM     13  C   UNL     1      44.508   4.424  10.336  0.00  0.00    +0.000 A 
ATOM     14  C   UNL     1      45.678   4.878  10.970  0.00  0.00    +0.000 A 
BRANCH  13  15
ATOM     15  C   UNL     1      44.607   3.661   9.040  0.00  0.00    +0.000 C 
ATOM     16  F   UNL     1      44.093   2.400   9.109  0.00  0.00    +0.000 F 
ATOM     17  F   UNL     1      43.939   4.276   8.023  0.00  0.00    +0.000 F 
ATOM     18  F   UNL     1      45.890   3.516   8.610  0.00  0.00    +0.000 F 
ENDBRANCH  13  15
ENDBRANCH   6   9
BRANCH   1  19
ATOM     19  C   UNL     1      47.807   4.752  16.440  0.00  0.00    +0.000 C 
BRANCH  19  21
ATOM     20  C   UNL     1      48.365   5.511  18.803  0.00  0.00    +0.000 C 
ATOM     21  C   UNL     1      48.328   4.323  17.830  0.00  0.00    +0.000 C 
BRANCH  21  22
ATOM     22  C   UNL     1      49.637   3.551  17.759  0.00  0.00    +0.000 A 
ATOM     23  C   UNL     1      49.674   2.279  17.167  0.00  0.00    +0.000 A 
ATOM     24  C   UNL     1      50.865   1.558  17.135  0.00  0.00    +0.000 A 
ATOM     25  CA  UNL     1      51.989   2.141  17.697  0.00  0.00    +0.000 A 
ATOM     26  N   UNL     1      52.011   3.381  18.262  0.00  0.00    +0.000 NA
ATOM     27  C   UNL     1      50.835   4.050  18.272  0.00  0.00    +0.000 A 
BRANCH  25  28
ATOM     28  C   UNL     1      53.290   1.411  17.728  0.00  0.00    +0.000 C 
ATOM     29  O   UNL     1      54.304   1.808  18.269  0.00  0.00    +0.000 OA
BRANCH  28  30
ATOM     30  OXT UNL     1      53.183   0.238  17.056  0.00  0.00    +0.000 OA
ATOM     31  HXT UNL     1      54.028  -0.262  17.169  0.00  0.00    +0.000 HD
ENDBRANCH  28  30
ENDBRANCH  25  28
ENDBRANCH  21  22
ENDBRANCH  19  21
ENDBRANCH   1  19
TORSDOF 7
ENDMDL
MODEL 8
REMARK VINA RESULT:    -7.035      4.709      7.005
REMARK INTER + INTRA:         -10.746
REMARK INTER:                  -9.411
REMARK INTRA:                  -1.336
REMARK UNBOUND:                -1.038
REMARK  Name = 
REMARK  8 active torsions:
REMARK  status: ('A' for Active; 'I' for Inactive)
REMARK    1  A    between atoms: C_1  and  C_2
REMARK    2  A    between atoms: C_2  and  C_3
REMARK    3  A    between atoms: C_2  and  C_21
REMARK    4  A    between atoms: C_3  and  N_4
REMARK    5  A    between atoms: C_9  and  C_10
REMARK    6  A    between atoms: C_14  and  C_15
REMARK    7  A    between atoms: CA_24  and  C_25
REMARK    8  A    between atoms: C_25  and  OXT_27
REMARK                            x       y       z     vdW  Elec       q    Type
REMARK                         _______ _______ _______ _____ _____    ______ ____
ROOT
ATOM      1  N   UNL     1      49.825   8.619  13.298  0.00  0.00    +0.000 N 
ATOM      2  C   UNL     1      49.556   8.751  14.656  0.00  0.00    +0.000 A 
ATOM      3  N   UNL     1      49.372   9.999  15.093  0.00  0.00    +0.000 NA
ATOM      4  C   UNL     1      49.115  10.149  16.403  0.00  0.00    +0.000 A 
ATOM      5  C   UNL     1      49.011   9.100  17.284  0.00  0.00    +0.000 A 
ATOM      6  C   UNL     1      49.188   7.841  16.750  0.00  0.00    +0.000 A 
ATOM      7  N   UNL     1      49.472   7.669  15.439  0.00  0.00    +0.000 NA
ATOM      8  H   UNL     1      49.475   9.475  12.882  0.00  0.00    +0.000 HD
ENDROOT
BRANCH   6   9
ATOM      9  C   UNL     1      49.060   6.589  17.530  0.00  0.00    +0.000 A 
ATOM     10  C   UNL     1      49.270   6.542  18.919  0.00  0.00    +0.000 A 
ATOM     11  C   UNL     1      49.099   5.357  19.642  0.00  0.00    +0.000 A 
ATOM     12  C   UNL     1      48.695   4.192  18.995  0.00  0.00    +0.000 A 
ATOM     13  C   UNL     1      48.458   4.199  17.616  0.00  0.00    +0.000 A 
ATOM     14  C   UNL     1      48.660   5.392  16.900  0.00  0.00    +0.000 A 
BRANCH  13  15
ATOM     15  C   UNL     1      47.961   2.970  16.898  0.00  0.00    +0.000 C 
ATOM     16  F   UNL     1      47.518   3.220  15.634  0.00  0.00    +0.000 F 
ATOM     17  F   UNL     1      48.928   2.018  16.768  0.00  0.00    +0.000 F 
ATOM     18  F   UNL     1      46.926   2.365  17.543  0.00  0.00    +0.000 F 
ENDBRANCH  13  15
ENDBRANCH   6   9
BRANCH   1  19
ATOM     19  C   UNL     1      49.331   7.380  12.712  0.00  0.00    +0.000 C 
BRANCH  19  21
ATOM     20  C   UNL     1      47.718   9.110  11.776  0.00  0.00    +0.000 C 
ATOM     21  C   UNL     1      48.111   7.625  11.797  0.00  0.00    +0.000 C 
BRANCH  21  22
ATOM     22  C   UNL     1      46.949   6.690  12.096  0.00  0.00    +0.000 A 
ATOM     23  C   UNL     1      45.969   6.448  11.121  0.00  0.00    +0.000 A 
ATOM     24  C   UNL     1      44.887   5.619  11.409  0.00  0.00    +0.000 A 
ATOM     25  CA  UNL     1      44.825   5.052  12.671  0.00  0.00    +0.000 A 
ATOM     26  N   UNL     1      45.762   5.235  13.644  0.00  0.00    +0.000 NA
ATOM     27  C   UNL     1      46.798   6.045  13.325  0.00  0.00    +0.000 A 
BRANCH  25  28
ATOM     28  C   UNL     1      43.677   4.181  13.058  0.00  0.00    +0.000 C 
ATOM     29  O   UNL     1      43.654   2.968  12.964  0.00  0.00    +0.000 OA
BRANCH  28  30
ATOM     30  OXT UNL     1      42.653   4.939  13.523  0.00  0.00    +0.000 OA
ATOM     31  HXT UNL     1      41.804   4.492  13.285  0.00  0.00    +0.000 HD
ENDBRANCH  28  30
ENDBRANCH  25  28
ENDBRANCH  21  22
ENDBRANCH  19  21
ENDBRANCH   1  19
TORSDOF 7
ENDMDL
MODEL 9
REMARK VINA RESULT:    -6.974      4.829      7.122
REMARK INTER + INTRA:         -10.662
REMARK INTER:                  -9.508
REMARK INTRA:                  -1.154
REMARK UNBOUND:                -1.038
REMARK  Name = 
REMARK  8 active torsions:
REMARK  status: ('A' for Active; 'I' for Inactive)
REMARK    1  A    between atoms: C_1  and  C_2
REMARK    2  A    between atoms: C_2  and  C_3
REMARK    3  A    between atoms: C_2  and  C_21
REMARK    4  A    between atoms: C_3  and  N_4
REMARK    5  A    between atoms: C_9  and  C_10
REMARK    6  A    between atoms: C_14  and  C_15
REMARK    7  A    between atoms: CA_24  and  C_25
REMARK    8  A    between atoms: C_25  and  OXT_27
REMARK                            x       y       z     vdW  Elec       q    Type
REMARK                         _______ _______ _______ _____ _____    ______ ____
ROOT
ATOM      1  N   UNL     1      49.477   8.247  14.199  0.00  0.00    +0.000 N 
ATOM      2  C   UNL     1      49.295   7.700  15.465  0.00  0.00    +0.000 A 
ATOM      3  N   UNL     1      48.717   8.500  16.365  0.00  0.00    +0.000 NA
ATOM      4  C   UNL     1      48.535   7.992  17.595  0.00  0.00    +0.000 A 
ATOM      5  C   UNL     1      48.887   6.714  17.951  0.00  0.00    +0.000 A 
ATOM      6  C   UNL     1      49.455   5.943  16.958  0.00  0.00    +0.000 A 
ATOM      7  N   UNL     1      49.669   6.441  15.720  0.00  0.00    +0.000 NA
ATOM      8  H   UNL     1      48.811   9.011  14.150  0.00  0.00    +0.000 HD
ENDROOT
BRANCH   6   9
ATOM      9  C   UNL     1      49.847   4.527  17.137  0.00  0.00    +0.000 A 
ATOM     10  C   UNL     1      48.960   3.462  16.896  0.00  0.00    +0.000 A 
ATOM     11  C   UNL     1      49.366   2.131  17.029  0.00  0.00    +0.000 A 
ATOM     12  C   UNL     1      50.677   1.829  17.389  0.00  0.00    +0.000 A 
ATOM     13  C   UNL     1      51.598   2.857  17.621  0.00  0.00    +0.000 A 
ATOM     14  C   UNL     1      51.166   4.191  17.509  0.00  0.00    +0.000 A 
BRANCH  13  15
ATOM     15  C   UNL     1      53.039   2.562  17.952  0.00  0.00    +0.000 C 
ATOM     16  F   UNL     1      53.915   3.457  17.414  0.00  0.00    +0.000 F 
ATOM     17  F   UNL     1      53.276   2.575  19.294  0.00  0.00    +0.000 F 
ATOM     18  F   UNL     1      53.440   1.338  17.513  0.00  0.00    +0.000 F 
ENDBRANCH  13  15
ENDBRANCH   6   9
BRANCH   1  19
ATOM     19  C   UNL     1      49.409   7.274  13.116  0.00  0.00    +0.000 C 
BRANCH  19  21
ATOM     20  C   UNL     1      47.934   9.089  12.117  0.00  0.00    +0.000 C 
ATOM     21  C   UNL     1      48.258   7.588  12.135  0.00  0.00    +0.000 C 
BRANCH  21  22
ATOM     22  C   UNL     1      47.040   6.702  12.348  0.00  0.00    +0.000 A 
ATOM     23  C   UNL     1      45.947   6.782  11.472  0.00  0.00    +0.000 A 
ATOM     24  C   UNL     1      44.818   5.996  11.690  0.00  0.00    +0.000 A 
ATOM     25  CA  UNL     1      44.824   5.145  12.783  0.00  0.00    +0.000 A 
ATOM     26  N   UNL     1      45.868   5.013  13.649  0.00  0.00    +0.000 NA
ATOM     27  C   UNL     1      46.946   5.792  13.402  0.00  0.00    +0.000 A 
BRANCH  25  28
ATOM     28  C   UNL     1      43.635   4.300  13.094  0.00  0.00    +0.000 C 
ATOM     29  O   UNL     1      43.552   3.103  12.889  0.00  0.00    +0.000 OA
BRANCH  28  30
ATOM     30  OXT UNL     1      42.650   5.059  13.634  0.00  0.00    +0.000 OA
ATOM     31  HXT UNL     1      41.789   4.594  13.497  0.00  0.00    +0.000 HD
ENDBRANCH  28  30
ENDBRANCH  25  28
ENDBRANCH  21  22
ENDBRANCH  19  21
ENDBRANCH   1  19
TORSDOF 7
ENDMDL
