MODEL 1
REMARK VINA RESULT:    -7.545      0.000      0.000
REMARK INTER + INTRA:          -9.909
REMARK INTER:                  -9.309
REMARK INTRA:                  -0.600
REMARK UNBOUND:                -0.600
REMARK  Name = 
REMARK  4 active torsions:
REMARK  status: ('A' for Active; 'I' for Inactive)
REMARK    1  A    between atoms: C_3  and  C_4
REMARK    2  A    between atoms: C_4  and  N_5
REMARK    3  A    between atoms: N_5  and  C_6
REMARK    4  A    between atoms: C_13  and  N_14
REMARK                            x       y       z     vdW  Elec       q    Type
REMARK                         _______ _______ _______ _____ _____    ______ ____
ROOT
ATOM      1  C   UNL     1      43.582   6.162  12.072  0.00  0.00    +0.000 A 
ATOM      2  C   UNL     1      43.366   5.195  11.096  0.00  0.00    +0.000 A 
ATOM      3  C   UNL     1      44.286   4.158  10.924  0.00  0.00    +0.000 A 
ATOM      4  C   UNL     1      45.419   4.106  11.757  0.00  0.00    +0.000 A 
ATOM      5  C   UNL     1      45.677   5.079  12.734  0.00  0.00    +0.000 A 
ATOM      6  C   UNL     1      44.726   6.101  12.873  0.00  0.00    +0.000 A 
ENDROOT
BRANCH   5   7
ATOM      7  N   UNL     1      46.826   5.054  13.492  0.00  0.00    +0.000 N 
ATOM      8  C   UNL     1      47.090   4.003  14.482  0.00  0.00    +0.000 C 
ATOM      9  C   UNL     1      47.483   4.658  15.817  0.00  0.00    +0.000 C 
ATOM     10  O   UNL     1      48.603   5.547  15.664  0.00  0.00    +0.000 OA
ATOM     11  C   UNL     1      48.279   6.599  14.737  0.00  0.00    +0.000 C 
ATOM     12  C   UNL     1      47.904   6.043  13.354  0.00  0.00    +0.000 C 
ENDBRANCH   5   7
BRANCH   3  13
ATOM     13  C   UNL     1      44.107   3.148   9.818  0.00  0.00    +0.000 C 
BRANCH  13  14
ATOM     14  N   UNL     1      44.433   3.710   8.508  0.00  0.00    +0.000 NA
ATOM     15  H   UNL     1      44.922   4.595   8.643  0.00  0.00    +0.000 HD
BRANCH  14  16
ATOM     16  C   UNL     1      45.231   2.803   7.673  0.00  0.00    +0.000 C 
ATOM     17  C   UNL     1      45.880   1.660   8.474  0.00  0.00    +0.000 C 
ATOM     18  C   UNL     1      46.791   0.800   7.603  0.00  0.00    +0.000 C 
ATOM     19  C   UNL     1      47.855   1.637   6.909  0.00  0.00    +0.000 C 
ATOM     20  C   UNL     1      47.228   2.765   6.098  0.00  0.00    +0.000 C 
ATOM     21  C   UNL     1      46.310   3.635   6.955  0.00  0.00    +0.000 C 
ENDBRANCH  14  16
ENDBRANCH  13  14
ENDBRANCH   3  13
TORSDOF 4
ENDMDL
MODEL 2
REMARK VINA RESULT:    -7.455      2.166      2.841
REMARK INTER + INTRA:          -9.798
REMARK INTER:                  -9.286
REMARK INTRA:                  -0.512
REMARK UNBOUND:                -0.600
REMARK  Name = 
REMARK  4 active torsions:
REMARK  status: ('A' for Active; 'I' for Inactive)
REMARK    1  A    between atoms: C_3  and  C_4
REMARK    2  A    between atoms: C_4  and  N_5
REMARK    3  A    between atoms: N_5  and  C_6
REMARK    4  A    between atoms: C_13  and  N_14
REMARK                            x       y       z     vdW  Elec       q    Type
REMARK                         _______ _______ _______ _____ _____    ______ ____
ROOT
ATOM      1  C   UNL     1      45.991   3.913  13.279  0.00  0.00    +0.000 A 
ATOM      2  C   UNL     1      45.282   3.601  12.125  0.00  0.00    +0.000 A 
ATOM      3  C   UNL     1      45.079   4.577  11.144  0.00  0.00    +0.000 A 
ATOM      4  C   UNL     1      45.612   5.863  11.343  0.00  0.00    +0.000 A 
ATOM      5  C   UNL     1      46.311   6.215  12.507  0.00  0.00    +0.000 A 
ATOM      6  C   UNL     1      46.492   5.205  13.463  0.00  0.00    +0.000 A 
ENDROOT
BRANCH   5   7
ATOM      7  N   UNL     1      46.762   7.499  12.718  0.00  0.00    +0.000 N 
ATOM      8  C   UNL     1      45.855   8.606  13.039  0.00  0.00    +0.000 C 
ATOM      9  C   UNL     1      46.147   9.785  12.097  0.00  0.00    +0.000 C 
ATOM     10  O   UNL     1      47.527  10.186  12.158  0.00  0.00    +0.000 OA
ATOM     11  C   UNL     1      48.379   9.092  11.770  0.00  0.00    +0.000 C 
ATOM     12  C   UNL     1      48.183   7.869  12.681  0.00  0.00    +0.000 C 
ENDBRANCH   5   7
BRANCH   3  13
ATOM     13  C   UNL     1      44.245   4.277   9.924  0.00  0.00    +0.000 C 
BRANCH  13  14
ATOM     14  N   UNL     1      44.946   4.620   8.687  0.00  0.00    +0.000 NA
ATOM     15  H   UNL     1      45.750   5.203   8.916  0.00  0.00    +0.000 HD
BRANCH  14  16
ATOM     16  C   UNL     1      45.368   3.442   7.918  0.00  0.00    +0.000 C 
ATOM     17  C   UNL     1      45.648   2.213   8.801  0.00  0.00    +0.000 C 
ATOM     18  C   UNL     1      46.189   1.039   7.991  0.00  0.00    +0.000 C 
ATOM     19  C   UNL     1      47.435   1.429   7.206  0.00  0.00    +0.000 C 
ATOM     20  C   UNL     1      47.171   2.636   6.314  0.00  0.00    +0.000 C 
ATOM     21  C   UNL     1      46.624   3.820   7.111  0.00  0.00    +0.000 C 
ENDBRANCH  14  16
ENDBRANCH  13  14
ENDBRANCH   3  13
TORSDOF 4
ENDMDL
MODEL 3
REMARK VINA RESULT:    -7.074      1.603      2.418
REMARK INTER + INTRA:          -9.329
REMARK INTER:                  -8.573
REMARK INTRA:                  -0.756
REMARK UNBOUND:                -0.600
REMARK  Name = 
REMARK  4 active torsions:
REMARK  status: ('A' for Active; 'I' for Inactive)
REMARK    1  A    between atoms: C_3  and  C_4
REMARK    2  A    between atoms: C_4  and  N_5
REMARK    3  A    between atoms: N_5  and  C_6
REMARK    4  A    between atoms: C_13  and  N_14
REMARK                            x       y       z     vdW  Elec       q    Type
REMARK                         _______ _______ _______ _____ _____    ______ ____
ROOT
ATOM      1  C   UNL     1      43.109   6.021  11.206  0.00  0.00    +0.000 A 
ATOM      2  C   UNL     1      43.241   4.652  11.006  0.00  0.00    +0.000 A 
ATOM      3  C   UNL     1      44.410   3.997  11.406  0.00  0.00    +0.000 A 
ATOM      4  C   UNL     1      45.433   4.742  12.020  0.00  0.00    +0.000 A 
ATOM      5  C   UNL     1      45.338   6.128  12.214  0.00  0.00    +0.000 A 
ATOM      6  C   UNL     1      44.149   6.744  11.799  0.00  0.00    +0.000 A 
ENDROOT
BRANCH   5   7
ATOM      7  N   UNL     1      46.378   6.854  12.750  0.00  0.00    +0.000 N 
ATOM      8  C   UNL     1      46.318   8.313  12.905  0.00  0.00    +0.000 C 
ATOM      9  C   UNL     1      47.587   8.935  12.299  0.00  0.00    +0.000 C 
ATOM     10  O   UNL     1      48.781   8.382  12.879  0.00  0.00    +0.000 OA
ATOM     11  C   UNL     1      48.833   6.962  12.646  0.00  0.00    +0.000 C 
ATOM     12  C   UNL     1      47.617   6.241  13.249  0.00  0.00    +0.000 C 
ENDBRANCH   5   7
BRANCH   3  13
ATOM     13  C   UNL     1      44.602   2.528  11.124  0.00  0.00    +0.000 C 
BRANCH  13  14
ATOM     14  N   UNL     1      44.408   2.215   9.709  0.00  0.00    +0.000 NA
ATOM     15  H   UNL     1      43.606   2.741   9.363  0.00  0.00    +0.000 HD
BRANCH  14  16
ATOM     16  C   UNL     1      45.595   2.489   8.889  0.00  0.00    +0.000 C 
ATOM     17  C   UNL     1      45.366   3.601   7.850  0.00  0.00    +0.000 C 
ATOM     18  C   UNL     1      46.576   3.790   6.940  0.00  0.00    +0.000 C 
ATOM     19  C   UNL     1      46.967   2.488   6.253  0.00  0.00    +0.000 C 
ATOM     20  C   UNL     1      47.213   1.380   7.270  0.00  0.00    +0.000 C 
ATOM     21  C   UNL     1      46.011   1.181   8.192  0.00  0.00    +0.000 C 
ENDBRANCH  14  16
ENDBRANCH  13  14
ENDBRANCH   3  13
TORSDOF 4
ENDMDL
MODEL 4
REMARK VINA RESULT:    -7.034      1.427      2.265
REMARK INTER + INTRA:          -9.279
REMARK INTER:                  -8.544
REMARK INTRA:                  -0.735
REMARK UNBOUND:                -0.600
REMARK  Name = 
REMARK  4 active torsions:
REMARK  status: ('A' for Active; 'I' for Inactive)
REMARK    1  A    between atoms: C_3  and  C_4
REMARK    2  A    between atoms: C_4  and  N_5
REMARK    3  A    between atoms: N_5  and  C_6
REMARK    4  A    between atoms: C_13  and  N_14
REMARK                            x       y       z     vdW  Elec       q    Type
REMARK                         _______ _______ _______ _____ _____    ______ ____
ROOT
ATOM      1  C   UNL     1      47.124   7.161  12.009  0.00  0.00    +0.000 A 
ATOM      2  C   UNL     1      46.056   6.454  11.466  0.00  0.00    +0.000 A 
ATOM      3  C   UNL     1      45.528   5.354  12.146  0.00  0.00    +0.000 A 
ATOM      4  C   UNL     1      46.086   4.987  13.385  0.00  0.00    +0.000 A 
ATOM      5  C   UNL     1      47.177   5.664  13.947  0.00  0.00    +0.000 A 
ATOM      6  C   UNL     1      47.674   6.763  13.231  0.00  0.00    +0.000 A 
ENDROOT
BRANCH   5   7
ATOM      7  N   UNL     1      47.757   5.247  15.124  0.00  0.00    +0.000 N 
ATOM      8  C   UNL     1      47.443   3.952  15.737  0.00  0.00    +0.000 C 
ATOM      9  C   UNL     1      47.089   4.169  17.218  0.00  0.00    +0.000 C 
ATOM     10  O   UNL     1      48.139   4.856  17.921  0.00  0.00    +0.000 OA
ATOM     11  C   UNL     1      48.369   6.148  17.329  0.00  0.00    +0.000 C 
ATOM     12  C   UNL     1      48.765   6.033  15.849  0.00  0.00    +0.000 C 
ENDBRANCH   5   7
BRANCH   3  13
ATOM     13  C   UNL     1      44.423   4.529  11.533  0.00  0.00    +0.000 C 
BRANCH  13  14
ATOM     14  N   UNL     1      44.114   4.960  10.171  0.00  0.00    +0.000 NA
ATOM     15  H   UNL     1      44.605   5.834   9.983  0.00  0.00    +0.000 HD
BRANCH  14  16
ATOM     16  C   UNL     1      44.451   3.953   9.157  0.00  0.00    +0.000 C 
ATOM     17  C   UNL     1      44.749   2.568   9.758  0.00  0.00    +0.000 C 
ATOM     18  C   UNL     1      45.203   1.571   8.696  0.00  0.00    +0.000 C 
ATOM     19  C   UNL     1      46.407   2.088   7.922  0.00  0.00    +0.000 C 
ATOM     20  C   UNL     1      46.123   3.453   7.306  0.00  0.00    +0.000 C 
ATOM     21  C   UNL     1      45.664   4.463   8.357  0.00  0.00    +0.000 C 
ENDBRANCH  14  16
ENDBRANCH  13  14
ENDBRANCH   3  13
TORSDOF 4
ENDMDL
MODEL 5
REMARK VINA RESULT:    -6.633      2.623      6.506
REMARK INTER + INTRA:          -8.784
REMARK INTER:                  -8.155
REMARK INTRA:                  -0.629
REMARK UNBOUND:                -0.600
REMARK  Name = 
REMARK  4 active torsions:
REMARK  status: ('A' for Active; 'I' for Inactive)
REMARK    1  A    between atoms: C_3  and  C_4
REMARK    2  A    between atoms: C_4  and  N_5
REMARK    3  A    between atoms: N_5  and  C_6
REMARK    4  A    between atoms: C_13  and  N_14
REMARK                            x       y       z     vdW  Elec       q    Type
REMARK                         _______ _______ _______ _____ _____    ______ ____
ROOT
ATOM      1  C   UNL     1      43.469   3.318  12.450  0.00  0.00    +0.000 A 
ATOM      2  C   UNL     1      44.009   4.505  12.934  0.00  0.00    +0.000 A 
ATOM      3  C   UNL     1      44.862   5.264  12.127  0.00  0.00    +0.000 A 
ATOM      4  C   UNL     1      45.149   4.813  10.826  0.00  0.00    +0.000 A 
ATOM      5  C   UNL     1      44.639   3.609  10.319  0.00  0.00    +0.000 A 
ATOM      6  C   UNL     1      43.787   2.880  11.162  0.00  0.00    +0.000 A 
ENDROOT
BRANCH   5   7
ATOM      7  N   UNL     1      44.988   3.145   9.070  0.00  0.00    +0.000 N 
ATOM      8  C   UNL     1      45.050   1.713   8.754  0.00  0.00    +0.000 C 
ATOM      9  C   UNL     1      46.401   1.404   8.088  0.00  0.00    +0.000 C 
ATOM     10  O   UNL     1      46.621   2.220   6.926  0.00  0.00    +0.000 OA
ATOM     11  C   UNL     1      46.621   3.613   7.291  0.00  0.00    +0.000 C 
ATOM     12  C   UNL     1      45.290   4.031   7.937  0.00  0.00    +0.000 C 
ENDBRANCH   5   7
BRANCH   3  13
ATOM     13  C   UNL     1      45.519   6.511  12.664  0.00  0.00    +0.000 C 
BRANCH  13  14
ATOM     14  N   UNL     1      46.496   6.206  13.707  0.00  0.00    +0.000 NA
ATOM     15  H   UNL     1      46.409   5.222  13.962  0.00  0.00    +0.000 HD
BRANCH  14  16
ATOM     16  C   UNL     1      47.877   6.514  13.313  0.00  0.00    +0.000 C 
ATOM     17  C   UNL     1      48.651   7.294  14.391  0.00  0.00    +0.000 C 
ATOM     18  C   UNL     1      50.043   7.698  13.913  0.00  0.00    +0.000 C 
ATOM     19  C   UNL     1      49.980   8.495  12.617  0.00  0.00    +0.000 C 
ATOM     20  C   UNL     1      49.230   7.730  11.534  0.00  0.00    +0.000 C 
ATOM     21  C   UNL     1      47.834   7.315  11.999  0.00  0.00    +0.000 C 
ENDBRANCH  14  16
ENDBRANCH  13  14
ENDBRANCH   3  13
TORSDOF 4
ENDMDL
MODEL 6
REMARK VINA RESULT:    -6.328      3.332      7.447
REMARK INTER + INTRA:          -8.408
REMARK INTER:                  -7.714
REMARK INTRA:                  -0.694
REMARK UNBOUND:                -0.600
REMARK  Name = 
REMARK  4 active torsions:
REMARK  status: ('A' for Active; 'I' for Inactive)
REMARK    1  A    between atoms: C_3  and  C_4
REMARK    2  A    between atoms: C_4  and  N_5
REMARK    3  A    between atoms: N_5  and  C_6
REMARK    4  A    between atoms: C_13  and  N_14
REMARK                            x       y       z     vdW  Elec       q    Type
REMARK                         _______ _______ _______ _____ _____    ______ ____
ROOT
ATOM      1  C   UNL     1      47.841   7.369  11.737  0.00  0.00    +0.000 A 
ATOM      2  C   UNL     1      48.549   7.411  12.933  0.00  0.00    +0.000 A 
ATOM      3  C   UNL     1      48.165   6.595  14.001  0.00  0.00    +0.000 A 
ATOM      4  C   UNL     1      47.067   5.731  13.839  0.00  0.00    +0.000 A 
ATOM      5  C   UNL     1      46.318   5.684  12.653  0.00  0.00    +0.000 A 
ATOM      6  C   UNL     1      46.739   6.518  11.608  0.00  0.00    +0.000 A 
ENDROOT
BRANCH   5   7
ATOM      7  N   UNL     1      45.202   4.887  12.536  0.00  0.00    +0.000 N 
ATOM      8  C   UNL     1      45.285   3.473  12.152  0.00  0.00    +0.000 C 
ATOM      9  C   UNL     1      44.301   3.206  11.001  0.00  0.00    +0.000 C 
ATOM     10  O   UNL     1      42.959   3.591  11.348  0.00  0.00    +0.000 OA
ATOM     11  C   UNL     1      42.910   4.997  11.651  0.00  0.00    +0.000 C 
ATOM     12  C   UNL     1      43.840   5.360  12.820  0.00  0.00    +0.000 C 
ENDBRANCH   5   7
BRANCH   3  13
ATOM     13  C   UNL     1      48.873   6.686  15.330  0.00  0.00    +0.000 C 
BRANCH  13  14
ATOM     14  N   UNL     1      48.051   6.164  16.421  0.00  0.00    +0.000 NA
ATOM     15  H   UNL     1      47.183   5.797  16.033  0.00  0.00    +0.000 HD
BRANCH  14  16
ATOM     16  C   UNL     1      48.735   5.136  17.217  0.00  0.00    +0.000 C 
ATOM     17  C   UNL     1      50.268   5.248  17.157  0.00  0.00    +0.000 C 
ATOM     18  C   UNL     1      50.953   4.104  17.900  0.00  0.00    +0.000 C 
ATOM     19  C   UNL     1      50.495   2.747  17.383  0.00  0.00    +0.000 C 
ATOM     20  C   UNL     1      48.978   2.614  17.450  0.00  0.00    +0.000 C 
ATOM     21  C   UNL     1      48.277   3.755  16.713  0.00  0.00    +0.000 C 
ENDBRANCH  14  16
ENDBRANCH  13  14
ENDBRANCH   3  13
TORSDOF 4
ENDMDL
MODEL 7
REMARK VINA RESULT:    -6.108      2.505      7.204
REMARK INTER + INTRA:          -8.137
REMARK INTER:                  -7.689
REMARK INTRA:                  -0.448
REMARK UNBOUND:                -0.600
REMARK  Name = 
REMARK  4 active torsions:
REMARK  status: ('A' for Active; 'I' for Inactive)
REMARK    1  A    between atoms: C_3  and  C_4
REMARK    2  A    between atoms: C_4  and  N_5
REMARK    3  A    between atoms: N_5  and  C_6
REMARK    4  A    between atoms: C_13  and  N_14
REMARK                            x       y       z     vdW  Elec       q    Type
REMARK                         _______ _______ _______ _____ _____    ______ ____
ROOT
ATOM      1  C   UNL     1      43.415   5.639  12.217  0.00  0.00    +0.000 A 
ATOM      2  C   UNL     1      44.471   5.687  13.121  0.00  0.00    +0.000 A 
ATOM      3  C   UNL     1      45.699   5.105  12.793  0.00  0.00    +0.000 A 
ATOM      4  C   UNL     1      45.846   4.487  11.538  0.00  0.00    +0.000 A 
ATOM      5  C   UNL     1      44.793   4.401  10.615  0.00  0.00    +0.000 A 
ATOM      6  C   UNL     1      43.580   4.999  10.985  0.00  0.00    +0.000 A 
ENDROOT
BRANCH   5   7
ATOM      7  N   UNL     1      44.932   3.729   9.421  0.00  0.00    +0.000 N 
ATOM      8  C   UNL     1      44.610   2.304   9.282  0.00  0.00    +0.000 C 
ATOM      9  C   UNL     1      45.793   1.585   8.613  0.00  0.00    +0.000 C 
ATOM     10  O   UNL     1      46.136   2.184   7.351  0.00  0.00    +0.000 OA
ATOM     11  C   UNL     1      46.511   3.561   7.542  0.00  0.00    +0.000 C 
ATOM     12  C   UNL     1      45.373   4.376   8.178  0.00  0.00    +0.000 C 
ENDBRANCH   5   7
BRANCH   3  13
ATOM     13  C   UNL     1      46.828   5.079  13.793  0.00  0.00    +0.000 C 
BRANCH  13  14
ATOM     14  N   UNL     1      46.799   3.870  14.615  0.00  0.00    +0.000 NA
ATOM     15  H   UNL     1      47.319   3.135  14.136  0.00  0.00    +0.000 HD
BRANCH  14  16
ATOM     16  C   UNL     1      47.332   4.080  15.967  0.00  0.00    +0.000 C 
ATOM     17  C   UNL     1      48.149   5.378  16.099  0.00  0.00    +0.000 C 
ATOM     18  C   UNL     1      48.782   5.516  17.480  0.00  0.00    +0.000 C 
ATOM     19  C   UNL     1      49.641   4.306  17.824  0.00  0.00    +0.000 C 
ATOM     20  C   UNL     1      48.843   3.013  17.714  0.00  0.00    +0.000 C 
ATOM     21  C   UNL     1      48.199   2.862  16.336  0.00  0.00    +0.000 C 
ENDBRANCH  14  16
ENDBRANCH  13  14
ENDBRANCH   3  13
TORSDOF 4
ENDMDL
MODEL 8
REMARK VINA RESULT:    -6.013      3.035      7.182
REMARK INTER + INTRA:          -8.020
REMARK INTER:                  -7.402
REMARK INTRA:                  -0.618
REMARK UNBOUND:                -0.600
REMARK  Name = 
REMARK  4 active torsions:
REMARK  status: ('A' for Active; 'I' for Inactive)
REMARK    1  A    between atoms: C_3  and  C_4
REMARK    2  A    between atoms: C_4  and  N_5
REMARK    3  A    between atoms: N_5  and  C_6
REMARK    4  A    between atoms: C_13  and  N_14
REMARK                            x       y       z     vdW  Elec       q    Type
REMARK                         _______ _______ _______ _____ _____    ______ ____
ROOT
ATOM      1  C   UNL     1      45.654   8.687  12.388  0.00  0.00    +0.000 A 
ATOM      2  C   UNL     1      46.802   8.380  13.110  0.00  0.00    +0.000 A 
ATOM      3  C   UNL     1      47.188   7.046  13.275  0.00  0.00    +0.000 A 
ATOM      4  C   UNL     1      46.404   6.033  12.693  0.00  0.00    +0.000 A 
ATOM      5  C   UNL     1      45.228   6.310  11.981  0.00  0.00    +0.000 A 
ATOM      6  C   UNL     1      44.880   7.661  11.838  0.00  0.00    +0.000 A 
ENDROOT
BRANCH   5   7
ATOM      7  N   UNL     1      44.434   5.303  11.480  0.00  0.00    +0.000 N 
ATOM      8  C   UNL     1      43.317   4.732  12.242  0.00  0.00    +0.000 C 
ATOM      9  C   UNL     1      43.439   3.200  12.241  0.00  0.00    +0.000 C 
ATOM     10  O   UNL     1      43.503   2.671  10.905  0.00  0.00    +0.000 OA
ATOM     11  C   UNL     1      44.650   3.203  10.217  0.00  0.00    +0.000 C 
ATOM     12  C   UNL     1      44.602   4.737  10.134  0.00  0.00    +0.000 C 
ENDBRANCH   5   7
BRANCH   3  13
ATOM     13  C   UNL     1      48.385   6.692  14.121  0.00  0.00    +0.000 C 
BRANCH  13  14
ATOM     14  N   UNL     1      48.067   6.704  15.548  0.00  0.00    +0.000 NA
ATOM     15  H   UNL     1      47.071   6.890  15.661  0.00  0.00    +0.000 HD
BRANCH  14  16
ATOM     16  C   UNL     1      48.439   5.459  16.233  0.00  0.00    +0.000 C 
ATOM     17  C   UNL     1      47.578   4.257  15.808  0.00  0.00    +0.000 C 
ATOM     18  C   UNL     1      47.911   3.004  16.613  0.00  0.00    +0.000 C 
ATOM     19  C   UNL     1      47.782   3.251  18.110  0.00  0.00    +0.000 C 
ATOM     20  C   UNL     1      48.641   4.430  18.551  0.00  0.00    +0.000 C 
ATOM     21  C   UNL     1      48.322   5.693  17.751  0.00  0.00    +0.000 C 
ENDBRANCH  14  16
ENDBRANCH  13  14
ENDBRANCH   3  13
TORSDOF 4
ENDMDL
MODEL 9
REMARK VINA RESULT:    -5.549      2.445      3.939
REMARK INTER + INTRA:          -7.447
REMARK INTER:                  -6.740
REMARK INTRA:                  -0.707
REMARK UNBOUND:                -0.600
REMARK  Name = 
REMARK  4 active torsions:
REMARK  status: ('A' for Active; 'I' for Inactive)
REMARK    1  A    between atoms: C_3  and  C_4
REMARK    2  A    between atoms: C_4  and  N_5
REMARK    3  A    between atoms: N_5  and  C_6
REMARK    4  A    between atoms: C_13  and  N_14
REMARK                            x       y       z     vdW  Elec       q    Type
REMARK                         _______ _______ _______ _____ _____    ______ ____
ROOT
ATOM      1  C   UNL     1      47.640   4.990  15.446  0.00  0.00    +0.000 A 
ATOM      2  C   UNL     1      46.669   4.351  14.683  0.00  0.00    +0.000 A 
ATOM      3  C   UNL     1      46.291   4.883  13.447  0.00  0.00    +0.000 A 
ATOM      4  C   UNL     1      46.914   6.059  12.992  0.00  0.00    +0.000 A 
ATOM      5  C   UNL     1      47.879   6.739  13.749  0.00  0.00    +0.000 A 
ATOM      6  C   UNL     1      48.229   6.169  14.982  0.00  0.00    +0.000 A 
ENDROOT
BRANCH   5   7
ATOM      7  N   UNL     1      48.426   7.928  13.322  0.00  0.00    +0.000 N 
ATOM      8  C   UNL     1      47.754   9.217  13.524  0.00  0.00    +0.000 C 
ATOM      9  C   UNL     1      47.708   9.975  12.186  0.00  0.00    +0.000 C 
ATOM     10  O   UNL     1      49.020  10.135  11.619  0.00  0.00    +0.000 OA
ATOM     11  C   UNL     1      49.615   8.847  11.375  0.00  0.00    +0.000 C 
ATOM     12  C   UNL     1      49.737   8.022  12.666  0.00  0.00    +0.000 C 
ENDBRANCH   5   7
BRANCH   3  13
ATOM     13  C   UNL     1      45.184   4.247  12.644  0.00  0.00    +0.000 C 
BRANCH  13  14
ATOM     14  N   UNL     1      44.753   5.101  11.538  0.00  0.00    +0.000 NA
ATOM     15  H   UNL     1      45.418   5.867  11.436  0.00  0.00    +0.000 HD
BRANCH  14  16
ATOM     16  C   UNL     1      44.609   4.374  10.270  0.00  0.00    +0.000 C 
ATOM     17  C   UNL     1      44.738   2.849  10.431  0.00  0.00    +0.000 C 
ATOM     18  C   UNL     1      44.695   2.128   9.087  0.00  0.00    +0.000 C 
ATOM     19  C   UNL     1      45.758   2.657   8.134  0.00  0.00    +0.000 C 
ATOM     20  C   UNL     1      45.634   4.165   7.951  0.00  0.00    +0.000 C 
ATOM     21  C   UNL     1      45.672   4.902   9.289  0.00  0.00    +0.000 C 
ENDBRANCH  14  16
ENDBRANCH  13  14
ENDBRANCH   3  13
TORSDOF 4
ENDMDL
