MODEL 1
REMARK VINA RESULT:    -9.208      0.000      0.000
REMARK INTER + INTRA:         -12.646
REMARK INTER:                 -11.899
REMARK INTRA:                  -0.746
REMARK UNBOUND:                -0.746
REMARK  Name = 
REMARK  5 active torsions:
REMARK  status: ('A' for Active; 'I' for Inactive)
REMARK    1  A    between atoms: C_2  and  C_4
REMARK    2  A    between atoms: N_8  and  C_9
REMARK    3  A    between atoms: C_9  and  C_10
REMARK    4  A    between atoms: C_12  and  C_13
REMARK    5  A    between atoms: C_17  and  C_18
REMARK                            x       y       z     vdW  Elec       q    Type
REMARK                         _______ _______ _______ _____ _____    ______ ____
ROOT
ATOM      1  C   UNL     1      43.850   4.789  11.365  0.00  0.00    +0.000 C 
ATOM      2  C   UNL     1      42.546   5.064  12.110  0.00  0.00    +0.000 C 
ATOM      3  C   UNL     1      42.960   5.962  10.991  0.00  0.00    +0.000 C 
ENDROOT
BRANCH   1   8
ATOM      4  C   UNL     1      46.473   2.669   7.527  0.00  0.00    +0.000 A 
ATOM      5  C   UNL     1      45.968   1.719   8.379  0.00  0.00    +0.000 A 
ATOM      6  N   UNL     1      45.150   2.006   9.414  0.00  0.00    +0.000 NA
ATOM      7  C   UNL     1      44.849   3.300   9.619  0.00  0.00    +0.000 A 
ATOM      8  N   UNL     1      43.882   3.540  10.590  0.00  0.00    +0.000 N 
ATOM      9  N   UNL     1      45.364   4.306   8.889  0.00  0.00    +0.000 NA
ATOM     10  C   UNL     1      46.162   3.968   7.850  0.00  0.00    +0.000 A 
ATOM     11  H   UNL     1      43.764   2.680  11.117  0.00  0.00    +0.000 HD
BRANCH   4  13
ATOM     12  N   UNL     1      47.193   3.211   5.278  0.00  0.00    +0.000 N 
ATOM     13  C   UNL     1      47.284   2.360   6.344  0.00  0.00    +0.000 C 
ATOM     14  O   UNL     1      48.050   1.406   6.336  0.00  0.00    +0.000 OA
ATOM     15  H   UNL     1      47.853   3.051   4.524  0.00  0.00    +0.000 HD
ATOM     16  H   UNL     1      46.791   4.136   5.340  0.00  0.00    +0.000 HD
ENDBRANCH   4  13
ENDBRANCH   1   8
BRANCH   1  17
ATOM     17  C   UNL     1      45.149   5.094  12.118  0.00  0.00    +0.000 A 
ATOM     18  C   UNL     1      46.024   6.088  11.663  0.00  0.00    +0.000 A 
ATOM     19  C   UNL     1      47.128   6.487  12.431  0.00  0.00    +0.000 A 
ATOM     20  C   UNL     1      47.334   5.795  13.632  0.00  0.00    +0.000 A 
ATOM     21  C   UNL     1      46.470   4.778  13.993  0.00  0.00    +0.000 A 
ATOM     22  N   UNL     1      45.398   4.416  13.269  0.00  0.00    +0.000 NA
BRANCH  19  23
ATOM     23  C   UNL     1      47.985   7.638  12.050  0.00  0.00    +0.000 A 
ATOM     24  C   UNL     1      47.545   8.967  12.198  0.00  0.00    +0.000 A 
ATOM     25  C   UNL     1      48.392  10.053  11.950  0.00  0.00    +0.000 A 
ATOM     26  C   UNL     1      49.713   9.838  11.570  0.00  0.00    +0.000 A 
ATOM     27  C   UNL     1      50.190   8.534  11.404  0.00  0.00    +0.000 A 
ATOM     28  C   UNL     1      49.310   7.454  11.610  0.00  0.00    +0.000 A 
BRANCH  27  29
ATOM     29  C   UNL     1      51.632   8.259  11.059  0.00  0.00    +0.000 C 
ATOM     30  F   UNL     1      52.464   8.265  12.137  0.00  0.00    +0.000 F 
ATOM     31  F   UNL     1      51.794   7.040  10.471  0.00  0.00    +0.000 F 
ATOM     32  F   UNL     1      52.144   9.166  10.183  0.00  0.00    +0.000 F 
ENDBRANCH  27  29
ENDBRANCH  19  23
ENDBRANCH   1  17
TORSDOF 5
ENDMDL
MODEL 2
REMARK VINA RESULT:    -8.248      3.356      4.871
REMARK INTER + INTRA:         -11.405
REMARK INTER:                 -10.850
REMARK INTRA:                  -0.555
REMARK UNBOUND:                -0.746
REMARK  Name = 
REMARK  5 active torsions:
REMARK  status: ('A' for Active; 'I' for Inactive)
REMARK    1  A    between atoms: C_2  and  C_4
REMARK    2  A    between atoms: N_8  and  C_9
REMARK    3  A    between atoms: C_9  and  C_10
REMARK    4  A    between atoms: C_12  and  C_13
REMARK    5  A    between atoms: C_17  and  C_18
REMARK                            x       y       z     vdW  Elec       q    Type
REMARK                         _______ _______ _______ _____ _____    ______ ____
ROOT
ATOM      1  C   UNL     1      43.902   4.880  11.510  0.00  0.00    +0.000 C 
ATOM      2  C   UNL     1      42.613   5.068  12.308  0.00  0.00    +0.000 C 
ATOM      3  C   UNL     1      42.898   5.961  11.145  0.00  0.00    +0.000 C 
ENDROOT
BRANCH   1   8
ATOM      4  C   UNL     1      46.403   2.917   7.511  0.00  0.00    +0.000 A 
ATOM      5  C   UNL     1      46.084   1.951   8.432  0.00  0.00    +0.000 A 
ATOM      6  N   UNL     1      45.332   2.185   9.528  0.00  0.00    +0.000 NA
ATOM      7  C   UNL     1      44.906   3.445   9.723  0.00  0.00    +0.000 A 
ATOM      8  N   UNL     1      44.007   3.614  10.771  0.00  0.00    +0.000 N 
ATOM      9  N   UNL     1      45.238   4.473   8.922  0.00  0.00    +0.000 NA
ATOM     10  C   UNL     1      45.976   4.186   7.825  0.00  0.00    +0.000 A 
ATOM     11  H   UNL     1      44.033   2.767  11.331  0.00  0.00    +0.000 HD
BRANCH   4  13
ATOM     12  N   UNL     1      48.353   2.039   6.372  0.00  0.00    +0.000 N 
ATOM     13  C   UNL     1      47.137   2.654   6.269  0.00  0.00    +0.000 C 
ATOM     14  O   UNL     1      46.652   2.929   5.179  0.00  0.00    +0.000 OA
ATOM     15  H   UNL     1      48.784   1.754   5.499  0.00  0.00    +0.000 HD
ATOM     16  H   UNL     1      48.663   1.561   7.208  0.00  0.00    +0.000 HD
ENDBRANCH   4  13
ENDBRANCH   1   8
BRANCH   1  17
ATOM     17  C   UNL     1      45.202   5.319  12.193  0.00  0.00    +0.000 A 
ATOM     18  C   UNL     1      45.566   4.799  13.440  0.00  0.00    +0.000 A 
ATOM     19  C   UNL     1      46.826   5.068  13.996  0.00  0.00    +0.000 A 
ATOM     20  C   UNL     1      47.657   5.928  13.266  0.00  0.00    +0.000 A 
ATOM     21  C   UNL     1      47.212   6.461  12.071  0.00  0.00    +0.000 A 
ATOM     22  N   UNL     1      46.015   6.180  11.528  0.00  0.00    +0.000 NA
BRANCH  19  23
ATOM     23  C   UNL     1      47.301   4.412  15.241  0.00  0.00    +0.000 A 
ATOM     24  C   UNL     1      47.642   3.048  15.272  0.00  0.00    +0.000 A 
ATOM     25  C   UNL     1      48.199   2.455  16.411  0.00  0.00    +0.000 A 
ATOM     26  C   UNL     1      48.453   3.221  17.545  0.00  0.00    +0.000 A 
ATOM     27  C   UNL     1      48.122   4.579  17.560  0.00  0.00    +0.000 A 
ATOM     28  C   UNL     1      47.517   5.147  16.422  0.00  0.00    +0.000 A 
BRANCH  27  29
ATOM     29  C   UNL     1      48.442   5.456  18.744  0.00  0.00    +0.000 C 
ATOM     30  F   UNL     1      47.451   5.503  19.676  0.00  0.00    +0.000 F 
ATOM     31  F   UNL     1      49.556   5.035  19.406  0.00  0.00    +0.000 F 
ATOM     32  F   UNL     1      48.687   6.748  18.389  0.00  0.00    +0.000 F 
ENDBRANCH  27  29
ENDBRANCH  19  23
ENDBRANCH   1  17
TORSDOF 5
ENDMDL
MODEL 3
REMARK VINA RESULT:    -7.580      5.109      8.555
REMARK INTER + INTRA:         -10.543
REMARK INTER:                  -9.600
REMARK INTRA:                  -0.943
REMARK UNBOUND:                -0.746
REMARK  Name = 
REMARK  5 active torsions:
REMARK  status: ('A' for Active; 'I' for Inactive)
REMARK    1  A    between atoms: C_2  and  C_4
REMARK    2  A    between atoms: N_8  and  C_9
REMARK    3  A    between atoms: C_9  and  C_10
REMARK    4  A    between atoms: C_12  and  C_13
REMARK    5  A    between atoms: C_17  and  C_18
REMARK                            x       y       z     vdW  Elec       q    Type
REMARK                         _______ _______ _______ _____ _____    ______ ____
ROOT
ATOM      1  C   UNL     1      49.223   8.020  12.608  0.00  0.00    +0.000 C 
ATOM      2  C   UNL     1      50.189   8.229  11.444  0.00  0.00    +0.000 C 
ATOM      3  C   UNL     1      49.903   9.359  12.377  0.00  0.00    +0.000 C 
ENDROOT
BRANCH   1   8
ATOM      4  C   UNL     1      48.640   7.153  17.608  0.00  0.00    +0.000 A 
ATOM      5  C   UNL     1      48.895   5.993  16.921  0.00  0.00    +0.000 A 
ATOM      6  N   UNL     1      49.193   5.957  15.605  0.00  0.00    +0.000 NA
ATOM      7  C   UNL     1      49.207   7.129  14.946  0.00  0.00    +0.000 A 
ATOM      8  N   UNL     1      49.671   7.070  13.635  0.00  0.00    +0.000 N 
ATOM      9  N   UNL     1      48.887   8.305  15.516  0.00  0.00    +0.000 NA
ATOM     10  C   UNL     1      48.617   8.294  16.842  0.00  0.00    +0.000 A 
ATOM     11  H   UNL     1      49.690   6.091  13.366  0.00  0.00    +0.000 HD
BRANCH   4  13
ATOM     12  N   UNL     1      47.468   6.374  19.582  0.00  0.00    +0.000 N 
ATOM     13  C   UNL     1      48.411   7.214  19.056  0.00  0.00    +0.000 C 
ATOM     14  O   UNL     1      49.078   7.950  19.771  0.00  0.00    +0.000 OA
ATOM     15  H   UNL     1      47.416   6.342  20.594  0.00  0.00    +0.000 HD
ATOM     16  H   UNL     1      47.096   5.578  19.083  0.00  0.00    +0.000 HD
ENDBRANCH   4  13
ENDBRANCH   1   8
BRANCH   1  17
ATOM     17  C   UNL     1      47.736   7.909  12.254  0.00  0.00    +0.000 A 
ATOM     18  C   UNL     1      47.157   6.664  11.979  0.00  0.00    +0.000 A 
ATOM     19  C   UNL     1      45.770   6.532  11.817  0.00  0.00    +0.000 A 
ATOM     20  C   UNL     1      45.020   7.715  11.881  0.00  0.00    +0.000 A 
ATOM     21  C   UNL     1      45.661   8.921  12.090  0.00  0.00    +0.000 A 
ATOM     22  N   UNL     1      46.986   9.042  12.272  0.00  0.00    +0.000 NA
BRANCH  19  23
ATOM     23  C   UNL     1      45.109   5.210  11.676  0.00  0.00    +0.000 A 
ATOM     24  C   UNL     1      44.139   4.768  12.595  0.00  0.00    +0.000 A 
ATOM     25  C   UNL     1      43.433   3.576  12.401  0.00  0.00    +0.000 A 
ATOM     26  C   UNL     1      43.661   2.803  11.267  0.00  0.00    +0.000 A 
ATOM     27  C   UNL     1      44.621   3.201  10.332  0.00  0.00    +0.000 A 
ATOM     28  C   UNL     1      45.358   4.378  10.568  0.00  0.00    +0.000 A 
BRANCH  27  29
ATOM     29  C   UNL     1      44.850   2.428   9.058  0.00  0.00    +0.000 C 
ATOM     30  F   UNL     1      44.291   1.186   9.061  0.00  0.00    +0.000 F 
ATOM     31  F   UNL     1      44.330   3.066   7.971  0.00  0.00    +0.000 F 
ATOM     32  F   UNL     1      46.171   2.245   8.784  0.00  0.00    +0.000 F 
ENDBRANCH  27  29
ENDBRANCH  19  23
ENDBRANCH   1  17
TORSDOF 5
ENDMDL
MODEL 4
REMARK VINA RESULT:    -7.295      4.649      7.919
REMARK INTER + INTRA:         -10.174
REMARK INTER:                 -10.582
REMARK INTRA:                   0.408
REMARK UNBOUND:                -0.746
REMARK  Name = 
REMARK  5 active torsions:
REMARK  status: ('A' for Active; 'I' for Inactive)
REMARK    1  A    between atoms: C_2  and  C_4
REMARK    2  A    between atoms: N_8  and  C_9
REMARK    3  A    between atoms: C_9  and  C_10
REMARK    4  A    between atoms: C_12  and  C_13
REMARK    5  A    between atoms: C_17  and  C_18
REMARK                            x       y       z     vdW  Elec       q    Type
REMARK                         _______ _______ _______ _____ _____    ______ ____
ROOT
ATOM      1  C   UNL     1      48.644   8.142  12.914  0.00  0.00    +0.000 C 
ATOM      2  C   UNL     1      49.803   7.495  12.159  0.00  0.00    +0.000 C 
ATOM      3  C   UNL     1      49.615   8.975  12.094  0.00  0.00    +0.000 C 
ENDROOT
BRANCH   1   8
ATOM      4  C   UNL     1      48.163   4.654  16.616  0.00  0.00    +0.000 A 
ATOM      5  C   UNL     1      49.013   5.668  16.983  0.00  0.00    +0.000 A 
ATOM      6  N   UNL     1      49.231   6.767  16.231  0.00  0.00    +0.000 NA
ATOM      7  C   UNL     1      48.593   6.839  15.049  0.00  0.00    +0.000 A 
ATOM      8  N   UNL     1      48.718   8.052  14.379  0.00  0.00    +0.000 N 
ATOM      9  N   UNL     1      47.810   5.858  14.568  0.00  0.00    +0.000 NA
ATOM     10  C   UNL     1      47.604   4.785  15.367  0.00  0.00    +0.000 A 
ATOM     11  H   UNL     1      49.471   8.567  14.824  0.00  0.00    +0.000 HD
BRANCH   4  13
ATOM     12  N   UNL     1      48.833   3.031  18.286  0.00  0.00    +0.000 N 
ATOM     13  C   UNL     1      47.845   3.503  17.467  0.00  0.00    +0.000 C 
ATOM     14  O   UNL     1      46.721   3.020  17.481  0.00  0.00    +0.000 OA
ATOM     15  H   UNL     1      48.556   2.320  18.954  0.00  0.00    +0.000 HD
ATOM     16  H   UNL     1      49.671   3.555  18.502  0.00  0.00    +0.000 HD
ENDBRANCH   4  13
ENDBRANCH   1   8
BRANCH   1  17
ATOM     17  C   UNL     1      47.241   7.917  12.340  0.00  0.00    +0.000 A 
ATOM     18  C   UNL     1      46.785   6.626  12.050  0.00  0.00    +0.000 A 
ATOM     19  C   UNL     1      45.451   6.396  11.682  0.00  0.00    +0.000 A 
ATOM     20  C   UNL     1      44.635   7.529  11.560  0.00  0.00    +0.000 A 
ATOM     21  C   UNL     1      45.164   8.783  11.797  0.00  0.00    +0.000 A 
ATOM     22  N   UNL     1      46.435   8.998  12.176  0.00  0.00    +0.000 NA
BRANCH  19  23
ATOM     23  C   UNL     1      44.898   5.028  11.516  0.00  0.00    +0.000 A 
ATOM     24  C   UNL     1      43.943   4.505  12.408  0.00  0.00    +0.000 A 
ATOM     25  C   UNL     1      43.336   3.264  12.189  0.00  0.00    +0.000 A 
ATOM     26  C   UNL     1      43.649   2.521  11.055  0.00  0.00    +0.000 A 
ATOM     27  C   UNL     1      44.598   2.999  10.146  0.00  0.00    +0.000 A 
ATOM     28  C   UNL     1      45.236   4.227  10.408  0.00  0.00    +0.000 A 
BRANCH  27  29
ATOM     29  C   UNL     1      44.915   2.257   8.873  0.00  0.00    +0.000 C 
ATOM     30  F   UNL     1      46.247   2.065   8.667  0.00  0.00    +0.000 F 
ATOM     31  F   UNL     1      44.354   1.016   8.850  0.00  0.00    +0.000 F 
ATOM     32  F   UNL     1      44.450   2.895   7.763  0.00  0.00    +0.000 F 
ENDBRANCH  27  29
ENDBRANCH  19  23
ENDBRANCH   1  17
TORSDOF 5
ENDMDL
MODEL 5
REMARK VINA RESULT:    -7.048      4.112      5.903
REMARK INTER + INTRA:          -9.854
REMARK INTER:                  -8.881
REMARK INTRA:                  -0.973
REMARK UNBOUND:                -0.746
REMARK  Name = 
REMARK  5 active torsions:
REMARK  status: ('A' for Active; 'I' for Inactive)
REMARK    1  A    between atoms: C_2  and  C_4
REMARK    2  A    between atoms: N_8  and  C_9
REMARK    3  A    between atoms: C_9  and  C_10
REMARK    4  A    between atoms: C_12  and  C_13
REMARK    5  A    between atoms: C_17  and  C_18
REMARK                            x       y       z     vdW  Elec       q    Type
REMARK                         _______ _______ _______ _____ _____    ______ ____
ROOT
ATOM      1  C   UNL     1      45.842   8.972  12.183  0.00  0.00    +0.000 C 
ATOM      2  C   UNL     1      45.431  10.442  12.220  0.00  0.00    +0.000 C 
ATOM      3  C   UNL     1      45.575   9.749  10.905  0.00  0.00    +0.000 C 
ENDROOT
BRANCH   1   8
ATOM      4  C   UNL     1      44.221   4.175  11.506  0.00  0.00    +0.000 A 
ATOM      5  C   UNL     1      44.076   4.578  12.809  0.00  0.00    +0.000 A 
ATOM      6  N   UNL     1      44.329   5.834  13.234  0.00  0.00    +0.000 NA
ATOM      7  C   UNL     1      44.773   6.714  12.318  0.00  0.00    +0.000 A 
ATOM      8  N   UNL     1      44.870   8.031  12.757  0.00  0.00    +0.000 N 
ATOM      9  N   UNL     1      45.026   6.388  11.038  0.00  0.00    +0.000 NA
ATOM     10  C   UNL     1      44.737   5.124  10.655  0.00  0.00    +0.000 A 
ATOM     11  H   UNL     1      44.800   8.018  13.770  0.00  0.00    +0.000 HD
BRANCH   4  13
ATOM     12  N   UNL     1      44.589   2.328   9.981  0.00  0.00    +0.000 N 
ATOM     13  C   UNL     1      43.857   2.841  11.015  0.00  0.00    +0.000 C 
ATOM     14  O   UNL     1      42.967   2.193  11.550  0.00  0.00    +0.000 OA
ATOM     15  H   UNL     1      44.404   1.360   9.742  0.00  0.00    +0.000 HD
ATOM     16  H   UNL     1      45.483   2.703   9.695  0.00  0.00    +0.000 HD
ENDBRANCH   4  13
ENDBRANCH   1   8
BRANCH   1  17
ATOM     17  C   UNL     1      47.302   8.659  12.532  0.00  0.00    +0.000 A 
ATOM     18  C   UNL     1      47.629   8.021  13.734  0.00  0.00    +0.000 A 
ATOM     19  C   UNL     1      48.938   7.584  13.988  0.00  0.00    +0.000 A 
ATOM     20  C   UNL     1      49.894   7.880  13.007  0.00  0.00    +0.000 A 
ATOM     21  C   UNL     1      49.518   8.572  11.871  0.00  0.00    +0.000 A 
ATOM     22  N   UNL     1      48.259   8.965  11.618  0.00  0.00    +0.000 NA
BRANCH  19  23
ATOM     23  C   UNL     1      49.287   6.772  15.181  0.00  0.00    +0.000 A 
ATOM     24  C   UNL     1      50.533   6.900  15.822  0.00  0.00    +0.000 A 
ATOM     25  C   UNL     1      50.820   6.222  17.012  0.00  0.00    +0.000 A 
ATOM     26  C   UNL     1      49.857   5.415  17.608  0.00  0.00    +0.000 A 
ATOM     27  C   UNL     1      48.607   5.253  17.000  0.00  0.00    +0.000 A 
ATOM     28  C   UNL     1      48.353   5.903  15.777  0.00  0.00    +0.000 A 
BRANCH  27  29
ATOM     29  C   UNL     1      47.514   4.441  17.648  0.00  0.00    +0.000 C 
ATOM     30  F   UNL     1      46.695   5.169  18.456  0.00  0.00    +0.000 F 
ATOM     31  F   UNL     1      46.700   3.853  16.727  0.00  0.00    +0.000 F 
ATOM     32  F   UNL     1      47.998   3.427  18.417  0.00  0.00    +0.000 F 
ENDBRANCH  27  29
ENDBRANCH  19  23
ENDBRANCH   1  17
TORSDOF 5
ENDMDL
MODEL 6
REMARK VINA RESULT:    -6.747      6.057      9.584
REMARK INTER + INTRA:          -9.466
REMARK INTER:                  -9.069
REMARK INTRA:                  -0.397
REMARK UNBOUND:                -0.746
REMARK  Name = 
REMARK  5 active torsions:
REMARK  status: ('A' for Active; 'I' for Inactive)
REMARK    1  A    between atoms: C_2  and  C_4
REMARK    2  A    between atoms: N_8  and  C_9
REMARK    3  A    between atoms: C_9  and  C_10
REMARK    4  A    between atoms: C_12  and  C_13
REMARK    5  A    between atoms: C_17  and  C_18
REMARK                            x       y       z     vdW  Elec       q    Type
REMARK                         _______ _______ _______ _____ _____    ______ ____
ROOT
ATOM      1  C   UNL     1      47.810   4.385  17.113  0.00  0.00    +0.000 C 
ATOM      2  C   UNL     1      47.515   2.901  17.318  0.00  0.00    +0.000 C 
ATOM      3  C   UNL     1      48.921   3.394  17.414  0.00  0.00    +0.000 C 
ENDROOT
BRANCH   1   8
ATOM      4  C   UNL     1      49.190   8.464  19.862  0.00  0.00    +0.000 A 
ATOM      5  C   UNL     1      47.835   8.435  19.647  0.00  0.00    +0.000 A 
ATOM      6  N   UNL     1      47.199   7.410  19.041  0.00  0.00    +0.000 NA
ATOM      7  C   UNL     1      47.957   6.387  18.607  0.00  0.00    +0.000 A 
ATOM      8  N   UNL     1      47.252   5.284  18.133  0.00  0.00    +0.000 N 
ATOM      9  N   UNL     1      49.298   6.367  18.697  0.00  0.00    +0.000 NA
ATOM     10  C   UNL     1      49.889   7.406  19.331  0.00  0.00    +0.000 A 
ATOM     11  H   UNL     1      46.289   5.576  17.998  0.00  0.00    +0.000 HD
BRANCH   4  13
ATOM     12  N   UNL     1      51.172   9.294  20.982  0.00  0.00    +0.000 N 
ATOM     13  C   UNL     1      49.879   9.526  20.604  0.00  0.00    +0.000 C 
ATOM     14  O   UNL     1      49.331  10.597  20.827  0.00  0.00    +0.000 OA
ATOM     15  H   UNL     1      51.668  10.084  21.380  0.00  0.00    +0.000 HD
ATOM     16  H   UNL     1      51.739   8.552  20.593  0.00  0.00    +0.000 HD
ENDBRANCH   4  13
ENDBRANCH   1   8
BRANCH   1  17
ATOM     17  C   UNL     1      47.700   4.915  15.680  0.00  0.00    +0.000 A 
ATOM     18  C   UNL     1      46.690   4.460  14.824  0.00  0.00    +0.000 A 
ATOM     19  C   UNL     1      46.481   5.056  13.571  0.00  0.00    +0.000 A 
ATOM     20  C   UNL     1      47.373   6.074  13.209  0.00  0.00    +0.000 A 
ATOM     21  C   UNL     1      48.391   6.432  14.073  0.00  0.00    +0.000 A 
ATOM     22  N   UNL     1      48.572   5.878  15.284  0.00  0.00    +0.000 NA
BRANCH  19  23
ATOM     23  C   UNL     1      45.328   4.701  12.706  0.00  0.00    +0.000 A 
ATOM     24  C   UNL     1      44.070   5.311  12.865  0.00  0.00    +0.000 A 
ATOM     25  C   UNL     1      43.016   5.064  11.979  0.00  0.00    +0.000 A 
ATOM     26  C   UNL     1      43.199   4.217  10.892  0.00  0.00    +0.000 A 
ATOM     27  C   UNL     1      44.431   3.582  10.700  0.00  0.00    +0.000 A 
ATOM     28  C   UNL     1      45.465   3.804  11.629  0.00  0.00    +0.000 A 
BRANCH  27  29
ATOM     29  C   UNL     1      44.690   2.710   9.497  0.00  0.00    +0.000 C 
ATOM     30  F   UNL     1      44.077   1.496   9.558  0.00  0.00    +0.000 F 
ATOM     31  F   UNL     1      44.255   3.288   8.342  0.00  0.00    +0.000 F 
ATOM     32  F   UNL     1      46.014   2.454   9.310  0.00  0.00    +0.000 F 
ENDBRANCH  27  29
ENDBRANCH  19  23
ENDBRANCH   1  17
TORSDOF 5
ENDMDL
MODEL 7
REMARK VINA RESULT:    -6.717      5.825      8.632
REMARK INTER + INTRA:          -9.426
REMARK INTER:                  -8.534
REMARK INTRA:                  -0.893
REMARK UNBOUND:                -0.746
REMARK  Name = 
REMARK  5 active torsions:
REMARK  status: ('A' for Active; 'I' for Inactive)
REMARK    1  A    between atoms: C_2  and  C_4
REMARK    2  A    between atoms: N_8  and  C_9
REMARK    3  A    between atoms: C_9  and  C_10
REMARK    4  A    between atoms: C_12  and  C_13
REMARK    5  A    between atoms: C_17  and  C_18
REMARK                            x       y       z     vdW  Elec       q    Type
REMARK                         _______ _______ _______ _____ _____    ______ ____
ROOT
ATOM      1  C   UNL     1      49.554   7.063  17.139  0.00  0.00    +0.000 C 
ATOM      2  C   UNL     1      48.960   8.247  17.899  0.00  0.00    +0.000 C 
ATOM      3  C   UNL     1      48.264   6.926  17.930  0.00  0.00    +0.000 C 
ENDROOT
BRANCH   1   8
ATOM      4  C   UNL     1      52.098   2.667  17.691  0.00  0.00    +0.000 A 
ATOM      5  C   UNL     1      52.953   3.729  17.533  0.00  0.00    +0.000 A 
ATOM      6  N   UNL     1      52.542   5.014  17.474  0.00  0.00    +0.000 NA
ATOM      7  C   UNL     1      51.218   5.239  17.546  0.00  0.00    +0.000 A 
ATOM      8  N   UNL     1      50.847   6.577  17.641  0.00  0.00    +0.000 N 
ATOM      9  N   UNL     1      50.301   4.258  17.616  0.00  0.00    +0.000 NA
ATOM     10  C   UNL     1      50.762   2.988  17.694  0.00  0.00    +0.000 A 
ATOM     11  H   UNL     1      51.661   7.134  17.402  0.00  0.00    +0.000 HD
BRANCH   4  13
ATOM     12  N   UNL     1      51.576   0.328  18.045  0.00  0.00    +0.000 N 
ATOM     13  C   UNL     1      52.540   1.278  17.854  0.00  0.00    +0.000 C 
ATOM     14  O   UNL     1      53.723   0.977  17.767  0.00  0.00    +0.000 OA
ATOM     15  H   UNL     1      51.891  -0.636  18.029  0.00  0.00    +0.000 HD
ATOM     16  H   UNL     1      50.595   0.487  17.857  0.00  0.00    +0.000 HD
ENDBRANCH   4  13
ENDBRANCH   1   8
BRANCH   1  17
ATOM     17  C   UNL     1      49.449   7.105  15.611  0.00  0.00    +0.000 A 
ATOM     18  C   UNL     1      48.298   6.643  14.960  0.00  0.00    +0.000 A 
ATOM     19  C   UNL     1      48.125   6.827  13.581  0.00  0.00    +0.000 A 
ATOM     20  C   UNL     1      49.186   7.435  12.895  0.00  0.00    +0.000 A 
ATOM     21  C   UNL     1      50.323   7.809  13.587  0.00  0.00    +0.000 A 
ATOM     22  N   UNL     1      50.475   7.655  14.913  0.00  0.00    +0.000 NA
BRANCH  19  23
ATOM     23  C   UNL     1      46.856   6.487  12.887  0.00  0.00    +0.000 A 
ATOM     24  C   UNL     1      46.100   7.463  12.212  0.00  0.00    +0.000 A 
ATOM     25  C   UNL     1      44.968   7.126  11.462  0.00  0.00    +0.000 A 
ATOM     26  C   UNL     1      44.575   5.796  11.346  0.00  0.00    +0.000 A 
ATOM     27  C   UNL     1      45.293   4.795  12.008  0.00  0.00    +0.000 A 
ATOM     28  C   UNL     1      46.401   5.158  12.799  0.00  0.00    +0.000 A 
BRANCH  27  29
ATOM     29  C   UNL     1      44.940   3.338  11.854  0.00  0.00    +0.000 C 
ATOM     30  F   UNL     1      45.158   2.849  10.602  0.00  0.00    +0.000 F 
ATOM     31  F   UNL     1      45.663   2.544  12.693  0.00  0.00    +0.000 F 
ATOM     32  F   UNL     1      43.633   3.081  12.135  0.00  0.00    +0.000 F 
ENDBRANCH  27  29
ENDBRANCH  19  23
ENDBRANCH   1  17
TORSDOF 5
ENDMDL
MODEL 8
REMARK VINA RESULT:    -6.617      4.584      6.944
REMARK INTER + INTRA:          -9.298
REMARK INTER:                  -8.567
REMARK INTRA:                  -0.731
REMARK UNBOUND:                -0.746
REMARK  Name = 
REMARK  5 active torsions:
REMARK  status: ('A' for Active; 'I' for Inactive)
REMARK    1  A    between atoms: C_2  and  C_4
REMARK    2  A    between atoms: N_8  and  C_9
REMARK    3  A    between atoms: C_9  and  C_10
REMARK    4  A    between atoms: C_12  and  C_13
REMARK    5  A    between atoms: C_17  and  C_18
REMARK                            x       y       z     vdW  Elec       q    Type
REMARK                         _______ _______ _______ _____ _____    ______ ____
ROOT
ATOM      1  C   UNL     1      48.677   8.484  12.437  0.00  0.00    +0.000 C 
ATOM      2  C   UNL     1      49.680   9.276  11.601  0.00  0.00    +0.000 C 
ATOM      3  C   UNL     1      49.866   7.805  11.778  0.00  0.00    +0.000 C 
ENDROOT
BRANCH   1   8
ATOM      4  C   UNL     1      44.698   5.282  12.340  0.00  0.00    +0.000 A 
ATOM      5  C   UNL     1      44.297   6.590  12.230  0.00  0.00    +0.000 A 
ATOM      6  N   UNL     1      45.155   7.626  12.123  0.00  0.00    +0.000 NA
ATOM      7  C   UNL     1      46.469   7.341  12.157  0.00  0.00    +0.000 A 
ATOM      8  N   UNL     1      47.317   8.411  11.885  0.00  0.00    +0.000 N 
ATOM      9  N   UNL     1      46.955   6.102  12.346  0.00  0.00    +0.000 NA
ATOM     10  C   UNL     1      46.056   5.093  12.427  0.00  0.00    +0.000 A 
ATOM     11  H   UNL     1      46.761   9.258  11.943  0.00  0.00    +0.000 HD
BRANCH   4  13
ATOM     12  N   UNL     1      42.673   4.208  11.553  0.00  0.00    +0.000 N 
ATOM     13  C   UNL     1      43.775   4.141  12.359  0.00  0.00    +0.000 C 
ATOM     14  O   UNL     1      44.015   3.147  13.032  0.00  0.00    +0.000 OA
ATOM     15  H   UNL     1      42.119   3.361  11.487  0.00  0.00    +0.000 HD
ATOM     16  H   UNL     1      42.578   4.872  10.797  0.00  0.00    +0.000 HD
ENDBRANCH   4  13
ENDBRANCH   1   8
BRANCH   1  17
ATOM     17  C   UNL     1      48.730   8.694  13.954  0.00  0.00    +0.000 A 
ATOM     18  C   UNL     1      48.644   7.606  14.830  0.00  0.00    +0.000 A 
ATOM     19  C   UNL     1      48.856   7.769  16.207  0.00  0.00    +0.000 A 
ATOM     20  C   UNL     1      49.090   9.078  16.651  0.00  0.00    +0.000 A 
ATOM     21  C   UNL     1      49.097  10.118  15.742  0.00  0.00    +0.000 A 
ATOM     22  N   UNL     1      48.921   9.956  14.420  0.00  0.00    +0.000 NA
BRANCH  19  23
ATOM     23  C   UNL     1      48.922   6.617  17.142  0.00  0.00    +0.000 A 
ATOM     24  C   UNL     1      49.148   6.796  18.519  0.00  0.00    +0.000 A 
ATOM     25  C   UNL     1      49.096   5.725  19.418  0.00  0.00    +0.000 A 
ATOM     26  C   UNL     1      48.792   4.445  18.965  0.00  0.00    +0.000 A 
ATOM     27  C   UNL     1      48.569   4.220  17.603  0.00  0.00    +0.000 A 
ATOM     28  C   UNL     1      48.674   5.301  16.706  0.00  0.00    +0.000 A 
BRANCH  27  29
ATOM     29  C   UNL     1      48.171   2.863  17.082  0.00  0.00    +0.000 C 
ATOM     30  F   UNL     1      47.695   2.882  15.806  0.00  0.00    +0.000 F 
ATOM     31  F   UNL     1      49.218   1.991  17.073  0.00  0.00    +0.000 F 
ATOM     32  F   UNL     1      47.203   2.273  17.836  0.00  0.00    +0.000 F 
ENDBRANCH  27  29
ENDBRANCH  19  23
ENDBRANCH   1  17
TORSDOF 5
ENDMDL
MODEL 9
REMARK VINA RESULT:    -6.550      4.416      7.299
REMARK INTER + INTRA:          -9.211
REMARK INTER:                  -8.283
REMARK INTRA:                  -0.929
REMARK UNBOUND:                -0.746
REMARK  Name = 
REMARK  5 active torsions:
REMARK  status: ('A' for Active; 'I' for Inactive)
REMARK    1  A    between atoms: C_2  and  C_4
REMARK    2  A    between atoms: N_8  and  C_9
REMARK    3  A    between atoms: C_9  and  C_10
REMARK    4  A    between atoms: C_12  and  C_13
REMARK    5  A    between atoms: C_17  and  C_18
REMARK                            x       y       z     vdW  Elec       q    Type
REMARK                         _______ _______ _______ _____ _____    ______ ____
ROOT
ATOM      1  C   UNL     1      48.535   8.279  13.794  0.00  0.00    +0.000 C 
ATOM      2  C   UNL     1      48.312   8.223  15.304  0.00  0.00    +0.000 C 
ATOM      3  C   UNL     1      48.890   7.040  14.600  0.00  0.00    +0.000 C 
ENDROOT
BRANCH   1   8
ATOM      4  C   UNL     1      52.040   8.790  10.114  0.00  0.00    +0.000 A 
ATOM      5  C   UNL     1      51.568  10.008  10.534  0.00  0.00    +0.000 A 
ATOM      6  N   UNL     1      50.714  10.159  11.569  0.00  0.00    +0.000 NA
ATOM      7  C   UNL     1      50.294   9.041  12.187  0.00  0.00    +0.000 A 
ATOM      8  N   UNL     1      49.545   9.246  13.341  0.00  0.00    +0.000 N 
ATOM      9  N   UNL     1      50.636   7.802  11.792  0.00  0.00    +0.000 NA
ATOM     10  C   UNL     1      51.511   7.702  10.764  0.00  0.00    +0.000 A 
ATOM     11  H   UNL     1      49.270  10.223  13.354  0.00  0.00    +0.000 HD
BRANCH   4  13
ATOM     12  N   UNL     1      54.110   9.475   9.055  0.00  0.00    +0.000 N 
ATOM     13  C   UNL     1      53.042   8.622   9.055  0.00  0.00    +0.000 C 
ATOM     14  O   UNL     1      52.949   7.716   8.237  0.00  0.00    +0.000 OA
ATOM     15  H   UNL     1      54.850   9.262   8.395  0.00  0.00    +0.000 HD
ATOM     16  H   UNL     1      54.362  10.048   9.850  0.00  0.00    +0.000 HD
ENDBRANCH   4  13
ENDBRANCH   1   8
BRANCH   1  17
ATOM     17  C   UNL     1      47.283   8.218  12.913  0.00  0.00    +0.000 A 
ATOM     18  C   UNL     1      46.917   7.029  12.270  0.00  0.00    +0.000 A 
ATOM     19  C   UNL     1      45.690   6.919  11.598  0.00  0.00    +0.000 A 
ATOM     20  C   UNL     1      44.897   8.073  11.556  0.00  0.00    +0.000 A 
ATOM     21  C   UNL     1      45.346   9.235  12.155  0.00  0.00    +0.000 A 
ATOM     22  N   UNL     1      46.509   9.331  12.821  0.00  0.00    +0.000 NA
BRANCH  19  23
ATOM     23  C   UNL     1      45.205   5.632  11.038  0.00  0.00    +0.000 A 
ATOM     24  C   UNL     1      44.102   4.956  11.591  0.00  0.00    +0.000 A 
ATOM     25  C   UNL     1      43.572   3.805  10.996  0.00  0.00    +0.000 A 
ATOM     26  C   UNL     1      44.118   3.313   9.815  0.00  0.00    +0.000 A 
ATOM     27  C   UNL     1      45.220   3.949   9.236  0.00  0.00    +0.000 A 
ATOM     28  C   UNL     1      45.771   5.076   9.875  0.00  0.00    +0.000 A 
BRANCH  27  29
ATOM     29  C   UNL     1      45.798   3.486   7.923  0.00  0.00    +0.000 C 
ATOM     30  F   UNL     1      46.717   4.342   7.396  0.00  0.00    +0.000 F 
ATOM     31  F   UNL     1      46.432   2.285   8.037  0.00  0.00    +0.000 F 
ATOM     32  F   UNL     1      44.848   3.315   6.962  0.00  0.00    +0.000 F 
ENDBRANCH  27  29
ENDBRANCH  19  23
ENDBRANCH   1  17
TORSDOF 5
ENDMDL
