MODEL 1
REMARK VINA RESULT:    -8.015      0.000      0.000
REMARK INTER + INTRA:         -11.800
REMARK INTER:                 -10.826
REMARK INTRA:                  -0.973
REMARK UNBOUND:                -0.973
REMARK  Name = 
REMARK  6 active torsions:
REMARK  status: ('A' for Active; 'I' for Inactive)
REMARK    1  A    between atoms: C_2  and  C_25
REMARK    2  A    between atoms: N_3  and  C_4
REMARK    3  A    between atoms: C_4  and  C_5
REMARK    4  A    between atoms: C_8  and  C_9
REMARK    5  A    between atoms: C_9  and  N_10
REMARK    6  A    between atoms: C_11  and  C_13
REMARK                            x       y       z     vdW  Elec       q    Type
REMARK                         _______ _______ _______ _____ _____    ______ ____
ROOT
ATOM      1  C   UNL     1      44.694   4.566  10.756  0.00  0.00    +0.000 C 
ATOM      2  C   UNL     1      45.658   5.551  10.095  0.00  0.00    +0.000 C 
ATOM      3  C   UNL     1      46.007   6.694  11.031  0.00  0.00    +0.000 C 
ATOM      4  C   UNL     1      46.637   6.209  12.342  0.00  0.00    +0.000 C 
ATOM      5  C   UNL     1      45.705   5.187  13.018  0.00  0.00    +0.000 C 
ATOM      6  C   UNL     1      45.305   4.046  12.070  0.00  0.00    +0.000 C 
ENDROOT
BRANCH   1   7
ATOM      7  C   UNL     1      44.361   3.415   9.793  0.00  0.00    +0.000 C 
BRANCH   7  10
ATOM      8  O   UNL     1      45.624   1.060   8.787  0.00  0.00    +0.000 OA
ATOM      9  C   UNL     1      45.839   2.144   8.254  0.00  0.00    +0.000 C 
ATOM     10  N   UNL     1      45.295   3.332   8.689  0.00  0.00    +0.000 N 
ATOM     11  H   UNL     1      45.490   4.143   8.107  0.00  0.00    +0.000 HD
BRANCH   9  12
ATOM     12  C   UNL     1      46.704   2.301   7.081  0.00  0.00    +0.000 A 
ATOM     13  C   UNL     1      47.987   1.806   6.939  0.00  0.00    +0.000 A 
ATOM     14  N   UNL     1      48.398   2.197   5.698  0.00  0.00    +0.000 N 
ATOM     15  C   UNL     1      47.378   2.908   5.130  0.00  0.00    +0.000 A 
ATOM     16  N   UNL     1      46.338   2.988   5.930  0.00  0.00    +0.000 NA
ATOM     17  H   UNL     1      49.295   2.001   5.272  0.00  0.00    +0.000 HD
ENDBRANCH   9  12
ENDBRANCH   7  10
ENDBRANCH   1   7
BRANCH   4  18
ATOM     18  C   UNL     1      46.941   7.392  13.280  0.00  0.00    +0.000 C 
BRANCH  18  19
ATOM     19  N   UNL     1      47.413   6.960  14.586  0.00  0.00    +0.000 N 
ATOM     20  C   UNL     1      48.747   6.742  14.837  0.00  0.00    +0.000 C 
ATOM     21  O   UNL     1      49.617   6.969  14.001  0.00  0.00    +0.000 OA
ATOM     22  H   UNL     1      46.749   6.508  15.203  0.00  0.00    +0.000 HD
BRANCH  20  23
ATOM     23  C   UNL     1      49.087   6.290  16.195  0.00  0.00    +0.000 A 
ATOM     24  C   UNL     1      49.908   7.076  16.992  0.00  0.00    +0.000 A 
ATOM     25  S   UNL     1      50.160   6.440  18.554  0.00  0.00    +0.000 S 
ATOM     26  C   UNL     1      49.222   5.065  18.206  0.00  0.00    +0.000 A 
ATOM     27  N   UNL     1      49.043   4.083  19.130  0.00  0.00    +0.000 NA
ATOM     28  C   UNL     1      48.334   3.085  18.724  0.00  0.00    +0.000 A 
ATOM     29  N   UNL     1      47.780   2.981  17.475  0.00  0.00    +0.000 N 
ATOM     30  C   UNL     1      47.928   3.952  16.515  0.00  0.00    +0.000 A 
ATOM     31  O   UNL     1      47.413   3.837  15.413  0.00  0.00    +0.000 OA
ATOM     32  C   UNL     1      48.714   5.099  16.921  0.00  0.00    +0.000 A 
ATOM     33  H   UNL     1      47.233   2.175  17.216  0.00  0.00    +0.000 HD
ENDBRANCH  20  23
ENDBRANCH  18  19
ENDBRANCH   4  18
TORSDOF 6
ENDMDL
MODEL 2
REMARK VINA RESULT:    -7.742      2.152      2.714
REMARK INTER + INTRA:         -11.431
REMARK INTER:                 -10.552
REMARK INTRA:                  -0.879
REMARK UNBOUND:                -0.973
REMARK  Name = 
REMARK  6 active torsions:
REMARK  status: ('A' for Active; 'I' for Inactive)
REMARK    1  A    between atoms: C_2  and  C_25
REMARK    2  A    between atoms: N_3  and  C_4
REMARK    3  A    between atoms: C_4  and  C_5
REMARK    4  A    between atoms: C_8  and  C_9
REMARK    5  A    between atoms: C_9  and  N_10
REMARK    6  A    between atoms: C_11  and  C_13
REMARK                            x       y       z     vdW  Elec       q    Type
REMARK                         _______ _______ _______ _____ _____    ______ ____
ROOT
ATOM      1  C   UNL     1      44.738   4.536  12.090  0.00  0.00    +0.000 C 
ATOM      2  C   UNL     1      45.294   5.701  11.270  0.00  0.00    +0.000 C 
ATOM      3  C   UNL     1      46.080   6.664  12.142  0.00  0.00    +0.000 C 
ATOM      4  C   UNL     1      47.247   5.983  12.867  0.00  0.00    +0.000 C 
ATOM      5  C   UNL     1      46.726   4.783  13.676  0.00  0.00    +0.000 C 
ATOM      6  C   UNL     1      45.890   3.820  12.819  0.00  0.00    +0.000 C 
ENDROOT
BRANCH   1   7
ATOM      7  C   UNL     1      43.955   3.572  11.186  0.00  0.00    +0.000 C 
BRANCH   7  10
ATOM      8  O   UNL     1      44.226   4.019   8.379  0.00  0.00    +0.000 OA
ATOM      9  C   UNL     1      44.901   3.154   8.928  0.00  0.00    +0.000 C 
ATOM     10  N   UNL     1      44.816   2.853  10.269  0.00  0.00    +0.000 N 
ATOM     11  H   UNL     1      45.490   2.172  10.609  0.00  0.00    +0.000 HD
BRANCH   9  12
ATOM     12  C   UNL     1      45.888   2.337   8.214  0.00  0.00    +0.000 A 
ATOM     13  C   UNL     1      46.819   2.793   7.301  0.00  0.00    +0.000 A 
ATOM     14  N   UNL     1      47.511   1.688   6.896  0.00  0.00    +0.000 N 
ATOM     15  C   UNL     1      46.990   0.610   7.557  0.00  0.00    +0.000 A 
ATOM     16  N   UNL     1      46.013   0.961   8.364  0.00  0.00    +0.000 NA
ATOM     17  H   UNL     1      48.270   1.665   6.228  0.00  0.00    +0.000 HD
ENDBRANCH   9  12
ENDBRANCH   7  10
ENDBRANCH   1   7
BRANCH   4  18
ATOM     18  C   UNL     1      47.995   6.982  13.770  0.00  0.00    +0.000 C 
BRANCH  18  19
ATOM     19  N   UNL     1      47.911   6.630  15.179  0.00  0.00    +0.000 N 
ATOM     20  C   UNL     1      49.036   6.419  15.939  0.00  0.00    +0.000 C 
ATOM     21  O   UNL     1      50.169   6.588  15.496  0.00  0.00    +0.000 OA
ATOM     22  H   UNL     1      47.046   6.221  15.513  0.00  0.00    +0.000 HD
BRANCH  20  23
ATOM     23  C   UNL     1      48.810   6.051  17.345  0.00  0.00    +0.000 A 
ATOM     24  C   UNL     1      49.059   4.751  17.761  0.00  0.00    +0.000 A 
ATOM     25  S   UNL     1      48.801   4.502  19.429  0.00  0.00    +0.000 S 
ATOM     26  C   UNL     1      48.297   6.111  19.647  0.00  0.00    +0.000 A 
ATOM     27  N   UNL     1      47.904   6.566  20.867  0.00  0.00    +0.000 NA
ATOM     28  C   UNL     1      47.520   7.797  20.884  0.00  0.00    +0.000 A 
ATOM     29  N   UNL     1      47.497   8.620  19.789  0.00  0.00    +0.000 N 
ATOM     30  C   UNL     1      47.892   8.206  18.541  0.00  0.00    +0.000 A 
ATOM     31  O   UNL     1      47.871   8.966  17.584  0.00  0.00    +0.000 OA
ATOM     32  C   UNL     1      48.338   6.829  18.466  0.00  0.00    +0.000 A 
ATOM     33  H   UNL     1      47.186   9.576  19.865  0.00  0.00    +0.000 HD
ENDBRANCH  20  23
ENDBRANCH  18  19
ENDBRANCH   4  18
TORSDOF 6
ENDMDL
MODEL 3
REMARK VINA RESULT:    -7.729      1.554      1.837
REMARK INTER + INTRA:         -11.413
REMARK INTER:                 -10.737
REMARK INTRA:                  -0.677
REMARK UNBOUND:                -0.973
REMARK  Name = 
REMARK  6 active torsions:
REMARK  status: ('A' for Active; 'I' for Inactive)
REMARK    1  A    between atoms: C_2  and  C_25
REMARK    2  A    between atoms: N_3  and  C_4
REMARK    3  A    between atoms: C_4  and  C_5
REMARK    4  A    between atoms: C_8  and  C_9
REMARK    5  A    between atoms: C_9  and  N_10
REMARK    6  A    between atoms: C_11  and  C_13
REMARK                            x       y       z     vdW  Elec       q    Type
REMARK                         _______ _______ _______ _____ _____    ______ ____
ROOT
ATOM      1  C   UNL     1      44.841   4.592  12.126  0.00  0.00    +0.000 C 
ATOM      2  C   UNL     1      45.381   5.651  11.164  0.00  0.00    +0.000 C 
ATOM      3  C   UNL     1      46.191   6.703  11.900  0.00  0.00    +0.000 C 
ATOM      4  C   UNL     1      47.374   6.103  12.670  0.00  0.00    +0.000 C 
ATOM      5  C   UNL     1      46.868   5.007  13.625  0.00  0.00    +0.000 C 
ATOM      6  C   UNL     1      46.008   3.957  12.905  0.00  0.00    +0.000 C 
ENDROOT
BRANCH   1   7
ATOM      7  C   UNL     1      44.032   3.535  11.358  0.00  0.00    +0.000 C 
BRANCH   7  10
ATOM      8  O   UNL     1      44.203   3.918   8.534  0.00  0.00    +0.000 OA
ATOM      9  C   UNL     1      44.887   3.056   9.076  0.00  0.00    +0.000 C 
ATOM     10  N   UNL     1      44.849   2.785  10.426  0.00  0.00    +0.000 N 
ATOM     11  H   UNL     1      45.527   2.103  10.756  0.00  0.00    +0.000 HD
BRANCH   9  12
ATOM     12  C   UNL     1      45.836   2.210   8.344  0.00  0.00    +0.000 A 
ATOM     13  C   UNL     1      46.817   2.647   7.474  0.00  0.00    +0.000 A 
ATOM     14  N   UNL     1      47.445   1.519   7.031  0.00  0.00    +0.000 N 
ATOM     15  C   UNL     1      46.840   0.448   7.627  0.00  0.00    +0.000 A 
ATOM     16  N   UNL     1      45.869   0.824   8.429  0.00  0.00    +0.000 NA
ATOM     17  H   UNL     1      48.217   1.479   6.379  0.00  0.00    +0.000 HD
ENDBRANCH   9  12
ENDBRANCH   7  10
ENDBRANCH   1   7
BRANCH   4  18
ATOM     18  C   UNL     1      48.147   7.195  13.434  0.00  0.00    +0.000 C 
BRANCH  18  19
ATOM     19  N   UNL     1      47.991   7.082  14.876  0.00  0.00    +0.000 N 
ATOM     20  C   UNL     1      49.063   6.848  15.703  0.00  0.00    +0.000 C 
ATOM     21  O   UNL     1      50.216   6.794  15.283  0.00  0.00    +0.000 OA
ATOM     22  H   UNL     1      47.073   6.849  15.235  0.00  0.00    +0.000 HD
BRANCH  20  23
ATOM     23  C   UNL     1      48.763   6.739  17.139  0.00  0.00    +0.000 A 
ATOM     24  C   UNL     1      48.375   7.869  17.844  0.00  0.00    +0.000 A 
ATOM     25  S   UNL     1      48.011   7.564  19.483  0.00  0.00    +0.000 S 
ATOM     26  C   UNL     1      48.410   5.919  19.322  0.00  0.00    +0.000 A 
ATOM     27  N   UNL     1      48.337   5.070  20.383  0.00  0.00    +0.000 NA
ATOM     28  C   UNL     1      48.694   3.857  20.127  0.00  0.00    +0.000 A 
ATOM     29  N   UNL     1      49.115   3.413  18.901  0.00  0.00    +0.000 N 
ATOM     30  C   UNL     1      49.196   4.231  17.802  0.00  0.00    +0.000 A 
ATOM     31  O   UNL     1      49.564   3.804  16.718  0.00  0.00    +0.000 OA
ATOM     32  C   UNL     1      48.801   5.606  18.034  0.00  0.00    +0.000 A 
ATOM     33  H   UNL     1      49.381   2.450  18.762  0.00  0.00    +0.000 HD
ENDBRANCH  20  23
ENDBRANCH  18  19
ENDBRANCH   4  18
TORSDOF 6
ENDMDL
MODEL 4
REMARK VINA RESULT:    -7.498      1.282      1.652
REMARK INTER + INTRA:         -11.102
REMARK INTER:                 -10.708
REMARK INTRA:                  -0.394
REMARK UNBOUND:                -0.973
REMARK  Name = 
REMARK  6 active torsions:
REMARK  status: ('A' for Active; 'I' for Inactive)
REMARK    1  A    between atoms: C_2  and  C_25
REMARK    2  A    between atoms: N_3  and  C_4
REMARK    3  A    between atoms: C_4  and  C_5
REMARK    4  A    between atoms: C_8  and  C_9
REMARK    5  A    between atoms: C_9  and  N_10
REMARK    6  A    between atoms: C_11  and  C_13
REMARK                            x       y       z     vdW  Elec       q    Type
REMARK                         _______ _______ _______ _____ _____    ______ ____
ROOT
ATOM      1  C   UNL     1      44.539   6.183  11.696  0.00  0.00    +0.000 C 
ATOM      2  C   UNL     1      44.571   7.692  11.456  0.00  0.00    +0.000 C 
ATOM      3  C   UNL     1      45.397   8.402  12.514  0.00  0.00    +0.000 C 
ATOM      4  C   UNL     1      46.842   7.891  12.573  0.00  0.00    +0.000 C 
ATOM      5  C   UNL     1      46.844   6.367  12.780  0.00  0.00    +0.000 C 
ATOM      6  C   UNL     1      45.977   5.635  11.744  0.00  0.00    +0.000 C 
ENDROOT
BRANCH   1   7
ATOM      7  C   UNL     1      43.705   5.486  10.610  0.00  0.00    +0.000 C 
BRANCH   7  10
ATOM      8  O   UNL     1      43.861   2.670  10.170  0.00  0.00    +0.000 OA
ATOM      9  C   UNL     1      44.524   3.434   9.476  0.00  0.00    +0.000 C 
ATOM     10  N   UNL     1      44.529   4.801   9.636  0.00  0.00    +0.000 N 
ATOM     11  H   UNL     1      45.059   5.322   8.940  0.00  0.00    +0.000 HD
BRANCH   9  12
ATOM     12  C   UNL     1      45.389   2.976   8.384  0.00  0.00    +0.000 A 
ATOM     13  C   UNL     1      46.031   1.755   8.308  0.00  0.00    +0.000 A 
ATOM     14  N   UNL     1      46.720   1.773   7.130  0.00  0.00    +0.000 N 
ATOM     15  C   UNL     1      46.488   2.982   6.535  0.00  0.00    +0.000 A 
ATOM     16  N   UNL     1      45.687   3.732   7.258  0.00  0.00    +0.000 NA
ATOM     17  H   UNL     1      47.301   1.031   6.762  0.00  0.00    +0.000 HD
ENDBRANCH   9  12
ENDBRANCH   7  10
ENDBRANCH   1   7
BRANCH   4  18
ATOM     18  C   UNL     1      47.636   8.607  13.683  0.00  0.00    +0.000 C 
BRANCH  18  19
ATOM     19  N   UNL     1      47.806   7.779  14.867  0.00  0.00    +0.000 N 
ATOM     20  C   UNL     1      49.048   7.368  15.287  0.00  0.00    +0.000 C 
ATOM     21  O   UNL     1      50.083   7.733  14.736  0.00  0.00    +0.000 OA
ATOM     22  H   UNL     1      47.011   7.240  15.185  0.00  0.00    +0.000 HD
BRANCH  20  23
ATOM     23  C   UNL     1      49.079   6.520  16.489  0.00  0.00    +0.000 A 
ATOM     24  C   UNL     1      49.771   6.951  17.613  0.00  0.00    +0.000 A 
ATOM     25  S   UNL     1      49.662   5.881  18.937  0.00  0.00    +0.000 S 
ATOM     26  C   UNL     1      48.729   4.778  18.040  0.00  0.00    +0.000 A 
ATOM     27  N   UNL     1      48.307   3.606  18.588  0.00  0.00    +0.000 NA
ATOM     28  C   UNL     1      47.632   2.851  17.788  0.00  0.00    +0.000 A 
ATOM     29  N   UNL     1      47.336   3.165  16.487  0.00  0.00    +0.000 N 
ATOM     30  C   UNL     1      47.735   4.339  15.898  0.00  0.00    +0.000 A 
ATOM     31  O   UNL     1      47.446   4.596  14.738  0.00  0.00    +0.000 OA
ATOM     32  C   UNL     1      48.494   5.227  16.755  0.00  0.00    +0.000 A 
ATOM     33  H   UNL     1      46.803   2.533  15.910  0.00  0.00    +0.000 HD
ENDBRANCH  20  23
ENDBRANCH  18  19
ENDBRANCH   4  18
TORSDOF 6
ENDMDL
MODEL 5
REMARK VINA RESULT:    -6.644      2.338      3.426
REMARK INTER + INTRA:          -9.948
REMARK INTER:                  -8.668
REMARK INTRA:                  -1.280
REMARK UNBOUND:                -0.973
REMARK  Name = 
REMARK  6 active torsions:
REMARK  status: ('A' for Active; 'I' for Inactive)
REMARK    1  A    between atoms: C_2  and  C_25
REMARK    2  A    between atoms: N_3  and  C_4
REMARK    3  A    between atoms: C_4  and  C_5
REMARK    4  A    between atoms: C_8  and  C_9
REMARK    5  A    between atoms: C_9  and  N_10
REMARK    6  A    between atoms: C_11  and  C_13
REMARK                            x       y       z     vdW  Elec       q    Type
REMARK                         _______ _______ _______ _____ _____    ______ ____
ROOT
ATOM      1  C   UNL     1      46.482   7.426  12.336  0.00  0.00    +0.000 C 
ATOM      2  C   UNL     1      46.325   8.682  13.193  0.00  0.00    +0.000 C 
ATOM      3  C   UNL     1      47.427   8.783  14.233  0.00  0.00    +0.000 C 
ATOM      4  C   UNL     1      48.827   8.797  13.607  0.00  0.00    +0.000 C 
ATOM      5  C   UNL     1      49.006   7.561  12.709  0.00  0.00    +0.000 C 
ATOM      6  C   UNL     1      47.874   7.418  11.679  0.00  0.00    +0.000 C 
ENDROOT
BRANCH   1   7
ATOM      7  C   UNL     1      45.362   7.350  11.288  0.00  0.00    +0.000 C 
BRANCH   7  10
ATOM      8  O   UNL     1      46.194   5.730   9.089  0.00  0.00    +0.000 OA
ATOM      9  C   UNL     1      45.431   5.269   9.933  0.00  0.00    +0.000 C 
ATOM     10  N   UNL     1      44.959   5.987  11.009  0.00  0.00    +0.000 N 
ATOM     11  H   UNL     1      44.400   5.459  11.676  0.00  0.00    +0.000 HD
BRANCH   9  12
ATOM     12  C   UNL     1      44.935   3.890   9.894  0.00  0.00    +0.000 A 
ATOM     13  C   UNL     1      44.281   3.228  10.915  0.00  0.00    +0.000 A 
ATOM     14  N   UNL     1      44.016   1.978  10.435  0.00  0.00    +0.000 N 
ATOM     15  C   UNL     1      44.509   1.912   9.161  0.00  0.00    +0.000 A 
ATOM     16  N   UNL     1      45.066   3.047   8.798  0.00  0.00    +0.000 NA
ATOM     17  H   UNL     1      43.543   1.233  10.928  0.00  0.00    +0.000 HD
ENDBRANCH   9  12
ENDBRANCH   7  10
ENDBRANCH   1   7
BRANCH   4  18
ATOM     18  C   UNL     1      49.917   8.861  14.693  0.00  0.00    +0.000 C 
BRANCH  18  19
ATOM     19  N   UNL     1      49.754   7.829  15.706  0.00  0.00    +0.000 N 
ATOM     20  C   UNL     1      50.779   6.976  16.039  0.00  0.00    +0.000 C 
ATOM     21  O   UNL     1      51.904   7.082  15.558  0.00  0.00    +0.000 OA
ATOM     22  H   UNL     1      48.813   7.526  15.924  0.00  0.00    +0.000 HD
BRANCH  20  23
ATOM     23  C   UNL     1      50.476   5.967  17.066  0.00  0.00    +0.000 A 
ATOM     24  C   UNL     1      51.318   5.832  18.161  0.00  0.00    +0.000 A 
ATOM     25  S   UNL     1      50.797   4.659  19.285  0.00  0.00    +0.000 S 
ATOM     26  C   UNL     1      49.455   4.254  18.324  0.00  0.00    +0.000 A 
ATOM     27  N   UNL     1      48.585   3.280  18.706  0.00  0.00    +0.000 NA
ATOM     28  C   UNL     1      47.628   3.055  17.870  0.00  0.00    +0.000 A 
ATOM     29  N   UNL     1      47.458   3.721  16.685  0.00  0.00    +0.000 N 
ATOM     30  C   UNL     1      48.307   4.716  16.265  0.00  0.00    +0.000 A 
ATOM     31  O   UNL     1      48.124   5.300  15.207  0.00  0.00    +0.000 OA
ATOM     32  C   UNL     1      49.399   5.011  17.170  0.00  0.00    +0.000 A 
ATOM     33  H   UNL     1      46.689   3.501  16.073  0.00  0.00    +0.000 HD
ENDBRANCH  20  23
ENDBRANCH  18  19
ENDBRANCH   4  18
TORSDOF 6
ENDMDL
MODEL 6
REMARK VINA RESULT:    -6.441      3.921      8.790
REMARK INTER + INTRA:          -9.674
REMARK INTER:                  -8.795
REMARK INTRA:                  -0.879
REMARK UNBOUND:                -0.973
REMARK  Name = 
REMARK  6 active torsions:
REMARK  status: ('A' for Active; 'I' for Inactive)
REMARK    1  A    between atoms: C_2  and  C_25
REMARK    2  A    between atoms: N_3  and  C_4
REMARK    3  A    between atoms: C_4  and  C_5
REMARK    4  A    between atoms: C_8  and  C_9
REMARK    5  A    between atoms: C_9  and  N_10
REMARK    6  A    between atoms: C_11  and  C_13
REMARK                            x       y       z     vdW  Elec       q    Type
REMARK                         _______ _______ _______ _____ _____    ______ ____
ROOT
ATOM      1  C   UNL     1      50.210   5.791  18.635  0.00  0.00    +0.000 C 
ATOM      2  C   UNL     1      49.334   5.132  17.571  0.00  0.00    +0.000 C 
ATOM      3  C   UNL     1      48.751   6.162  16.620  0.00  0.00    +0.000 C 
ATOM      4  C   UNL     1      49.832   6.987  15.912  0.00  0.00    +0.000 C 
ATOM      5  C   UNL     1      50.754   7.638  16.957  0.00  0.00    +0.000 C 
ATOM      6  C   UNL     1      51.318   6.616  17.955  0.00  0.00    +0.000 C 
ENDROOT
BRANCH   1   7
ATOM      7  C   UNL     1      50.795   4.729  19.580  0.00  0.00    +0.000 C 
BRANCH   7  10
ATOM      8  O   UNL     1      53.569   4.117  19.292  0.00  0.00    +0.000 OA
ATOM      9  C   UNL     1      52.725   3.377  18.796  0.00  0.00    +0.000 C 
ATOM     10  N   UNL     1      51.369   3.610  18.863  0.00  0.00    +0.000 N 
ATOM     11  H   UNL     1      50.779   2.874  18.481  0.00  0.00    +0.000 HD
BRANCH   9  12
ATOM     12  C   UNL     1      53.066   2.148  18.072  0.00  0.00    +0.000 A 
ATOM     13  C   UNL     1      52.183   1.163  17.672  0.00  0.00    +0.000 A 
ATOM     14  N   UNL     1      52.942   0.219  17.045  0.00  0.00    +0.000 N 
ATOM     15  C   UNL     1      54.242   0.642  17.082  0.00  0.00    +0.000 A 
ATOM     16  N   UNL     1      54.356   1.803  17.689  0.00  0.00    +0.000 NA
ATOM     17  H   UNL     1      52.609  -0.641  16.628  0.00  0.00    +0.000 HD
ENDBRANCH   9  12
ENDBRANCH   7  10
ENDBRANCH   1   7
BRANCH   4  18
ATOM     18  C   UNL     1      49.201   8.046  14.987  0.00  0.00    +0.000 C 
BRANCH  18  19
ATOM     19  N   UNL     1      47.969   7.582  14.370  0.00  0.00    +0.000 N 
ATOM     20  C   UNL     1      47.976   6.804  13.238  0.00  0.00    +0.000 C 
ATOM     21  O   UNL     1      49.017   6.395  12.729  0.00  0.00    +0.000 OA
ATOM     22  H   UNL     1      47.118   8.094  14.570  0.00  0.00    +0.000 HD
BRANCH  20  23
ATOM     23  C   UNL     1      46.660   6.418  12.706  0.00  0.00    +0.000 A 
ATOM     24  C   UNL     1      45.830   7.390  12.162  0.00  0.00    +0.000 A 
ATOM     25  S   UNL     1      44.367   6.772  11.541  0.00  0.00    +0.000 S 
ATOM     26  C   UNL     1      44.766   5.191  12.021  0.00  0.00    +0.000 A 
ATOM     27  N   UNL     1      43.913   4.153  11.803  0.00  0.00    +0.000 NA
ATOM     28  C   UNL     1      44.329   3.014  12.243  0.00  0.00    +0.000 A 
ATOM     29  N   UNL     1      45.525   2.816  12.880  0.00  0.00    +0.000 N 
ATOM     30  C   UNL     1      46.419   3.832  13.114  0.00  0.00    +0.000 A 
ATOM     31  O   UNL     1      47.485   3.623  13.675  0.00  0.00    +0.000 OA
ATOM     32  C   UNL     1      46.003   5.135  12.635  0.00  0.00    +0.000 A 
ATOM     33  H   UNL     1      45.796   1.900  13.202  0.00  0.00    +0.000 HD
ENDBRANCH  20  23
ENDBRANCH  18  19
ENDBRANCH   4  18
TORSDOF 6
ENDMDL
MODEL 7
REMARK VINA RESULT:    -6.347      3.809      5.023
REMARK INTER + INTRA:          -9.547
REMARK INTER:                  -8.600
REMARK INTRA:                  -0.947
REMARK UNBOUND:                -0.973
REMARK  Name = 
REMARK  6 active torsions:
REMARK  status: ('A' for Active; 'I' for Inactive)
REMARK    1  A    between atoms: C_2  and  C_25
REMARK    2  A    between atoms: N_3  and  C_4
REMARK    3  A    between atoms: C_4  and  C_5
REMARK    4  A    between atoms: C_8  and  C_9
REMARK    5  A    between atoms: C_9  and  N_10
REMARK    6  A    between atoms: C_11  and  C_13
REMARK                            x       y       z     vdW  Elec       q    Type
REMARK                         _______ _______ _______ _____ _____    ______ ____
ROOT
ATOM      1  C   UNL     1      48.260   7.607  13.092  0.00  0.00    +0.000 C 
ATOM      2  C   UNL     1      48.239   6.401  14.030  0.00  0.00    +0.000 C 
ATOM      3  C   UNL     1      49.101   6.640  15.256  0.00  0.00    +0.000 C 
ATOM      4  C   UNL     1      48.663   7.877  16.051  0.00  0.00    +0.000 C 
ATOM      5  C   UNL     1      48.640   9.106  15.125  0.00  0.00    +0.000 C 
ATOM      6  C   UNL     1      47.809   8.865  13.856  0.00  0.00    +0.000 C 
ENDROOT
BRANCH   1   7
ATOM      7  C   UNL     1      47.376   7.345  11.862  0.00  0.00    +0.000 C 
BRANCH   7  10
ATOM      8  O   UNL     1      44.562   7.038  11.490  0.00  0.00    +0.000 OA
ATOM      9  C   UNL     1      45.252   6.061  11.763  0.00  0.00    +0.000 C 
ATOM     10  N   UNL     1      46.609   6.122  11.985  0.00  0.00    +0.000 N 
ATOM     11  H   UNL     1      47.072   5.226  12.121  0.00  0.00    +0.000 HD
BRANCH   9  12
ATOM     12  C   UNL     1      44.707   4.704  11.881  0.00  0.00    +0.000 A 
ATOM     13  C   UNL     1      45.307   3.635  12.518  0.00  0.00    +0.000 A 
ATOM     14  N   UNL     1      44.445   2.587  12.370  0.00  0.00    +0.000 N 
ATOM     15  C   UNL     1      43.368   3.035  11.658  0.00  0.00    +0.000 A 
ATOM     16  N   UNL     1      43.486   4.308  11.349  0.00  0.00    +0.000 NA
ATOM     17  H   UNL     1      44.577   1.647  12.720  0.00  0.00    +0.000 HD
ENDBRANCH   9  12
ENDBRANCH   7  10
ENDBRANCH   1   7
BRANCH   4  18
ATOM     18  C   UNL     1      49.584   8.109  17.264  0.00  0.00    +0.000 C 
BRANCH  18  19
ATOM     19  N   UNL     1      50.505   7.005  17.482  0.00  0.00    +0.000 N 
ATOM     20  C   UNL     1      50.266   6.040  18.430  0.00  0.00    +0.000 C 
ATOM     21  O   UNL     1      49.231   6.013  19.092  0.00  0.00    +0.000 OA
ATOM     22  H   UNL     1      51.464   7.123  17.177  0.00  0.00    +0.000 HD
BRANCH  20  23
ATOM     23  C   UNL     1      51.287   4.989  18.560  0.00  0.00    +0.000 A 
ATOM     24  C   UNL     1      52.468   5.263  19.237  0.00  0.00    +0.000 A 
ATOM     25  S   UNL     1      53.521   3.925  19.347  0.00  0.00    +0.000 S 
ATOM     26  C   UNL     1      52.460   2.946  18.449  0.00  0.00    +0.000 A 
ATOM     27  N   UNL     1      52.773   1.654  18.156  0.00  0.00    +0.000 NA
ATOM     28  C   UNL     1      51.891   1.036  17.445  0.00  0.00    +0.000 A 
ATOM     29  N   UNL     1      50.719   1.591  17.003  0.00  0.00    +0.000 N 
ATOM     30  C   UNL     1      50.360   2.886  17.283  0.00  0.00    +0.000 A 
ATOM     31  O   UNL     1      49.302   3.351  16.885  0.00  0.00    +0.000 OA
ATOM     32  C   UNL     1      51.314   3.627  18.083  0.00  0.00    +0.000 A 
ATOM     33  H   UNL     1      50.068   1.056  16.451  0.00  0.00    +0.000 HD
ENDBRANCH  20  23
ENDBRANCH  18  19
ENDBRANCH   4  18
TORSDOF 6
ENDMDL
MODEL 8
REMARK VINA RESULT:    -6.214      1.975      2.680
REMARK INTER + INTRA:          -9.368
REMARK INTER:                  -8.471
REMARK INTRA:                  -0.896
REMARK UNBOUND:                -0.973
REMARK  Name = 
REMARK  6 active torsions:
REMARK  status: ('A' for Active; 'I' for Inactive)
REMARK    1  A    between atoms: C_2  and  C_25
REMARK    2  A    between atoms: N_3  and  C_4
REMARK    3  A    between atoms: C_4  and  C_5
REMARK    4  A    between atoms: C_8  and  C_9
REMARK    5  A    between atoms: C_9  and  N_10
REMARK    6  A    between atoms: C_11  and  C_13
REMARK                            x       y       z     vdW  Elec       q    Type
REMARK                         _______ _______ _______ _____ _____    ______ ____
ROOT
ATOM      1  C   UNL     1      45.822   7.098  11.413  0.00  0.00    +0.000 C 
ATOM      2  C   UNL     1      47.079   6.351  11.856  0.00  0.00    +0.000 C 
ATOM      3  C   UNL     1      48.079   7.292  12.506  0.00  0.00    +0.000 C 
ATOM      4  C   UNL     1      47.497   8.021  13.722  0.00  0.00    +0.000 C 
ATOM      5  C   UNL     1      46.207   8.757  13.317  0.00  0.00    +0.000 C 
ATOM      6  C   UNL     1      45.202   7.829  12.617  0.00  0.00    +0.000 C 
ENDROOT
BRANCH   1   7
ATOM      7  C   UNL     1      44.822   6.126  10.766  0.00  0.00    +0.000 C 
BRANCH   7  10
ATOM      8  O   UNL     1      43.913   3.569   9.879  0.00  0.00    +0.000 OA
ATOM      9  C   UNL     1      44.920   4.065   9.383  0.00  0.00    +0.000 C 
ATOM     10  N   UNL     1      45.443   5.279   9.769  0.00  0.00    +0.000 N 
ATOM     11  H   UNL     1      46.233   5.611   9.219  0.00  0.00    +0.000 HD
BRANCH   9  12
ATOM     12  C   UNL     1      45.685   3.420   8.311  0.00  0.00    +0.000 A 
ATOM     13  C   UNL     1      46.060   2.091   8.261  0.00  0.00    +0.000 A 
ATOM     14  N   UNL     1      46.753   1.947   7.094  0.00  0.00    +0.000 N 
ATOM     15  C   UNL     1      46.785   3.168   6.479  0.00  0.00    +0.000 A 
ATOM     16  N   UNL     1      46.148   4.080   7.180  0.00  0.00    +0.000 NA
ATOM     17  H   UNL     1      47.171   1.095   6.744  0.00  0.00    +0.000 HD
ENDBRANCH   9  12
ENDBRANCH   7  10
ENDBRANCH   1   7
BRANCH   4  18
ATOM     18  C   UNL     1      48.527   8.993  14.329  0.00  0.00    +0.000 C 
BRANCH  18  19
ATOM     19  N   UNL     1      49.217   8.426  15.477  0.00  0.00    +0.000 N 
ATOM     20  C   UNL     1      48.798   8.666  16.763  0.00  0.00    +0.000 C 
ATOM     21  O   UNL     1      47.780   9.307  17.013  0.00  0.00    +0.000 OA
ATOM     22  H   UNL     1      50.180   8.136  15.354  0.00  0.00    +0.000 HD
BRANCH  20  23
ATOM     23  C   UNL     1      49.596   8.047  17.833  0.00  0.00    +0.000 A 
ATOM     24  C   UNL     1      50.053   8.829  18.885  0.00  0.00    +0.000 A 
ATOM     25  S   UNL     1      50.914   7.951  20.068  0.00  0.00    +0.000 S 
ATOM     26  C   UNL     1      50.750   6.503  19.191  0.00  0.00    +0.000 A 
ATOM     27  N   UNL     1      51.291   5.341  19.647  0.00  0.00    +0.000 NA
ATOM     28  C   UNL     1      51.116   4.326  18.870  0.00  0.00    +0.000 A 
ATOM     29  N   UNL     1      50.443   4.366  17.677  0.00  0.00    +0.000 N 
ATOM     30  C   UNL     1      49.874   5.515  17.184  0.00  0.00    +0.000 A 
ATOM     31  O   UNL     1      49.270   5.518  16.122  0.00  0.00    +0.000 OA
ATOM     32  C   UNL     1      50.039   6.686  18.021  0.00  0.00    +0.000 A 
ATOM     33  H   UNL     1      50.338   3.537  17.113  0.00  0.00    +0.000 HD
ENDBRANCH  20  23
ENDBRANCH  18  19
ENDBRANCH   4  18
TORSDOF 6
ENDMDL
MODEL 9
REMARK VINA RESULT:    -6.088      5.370      8.163
REMARK INTER + INTRA:          -9.197
REMARK INTER:                  -8.272
REMARK INTRA:                  -0.925
REMARK UNBOUND:                -0.973
REMARK  Name = 
REMARK  6 active torsions:
REMARK  status: ('A' for Active; 'I' for Inactive)
REMARK    1  A    between atoms: C_2  and  C_25
REMARK    2  A    between atoms: N_3  and  C_4
REMARK    3  A    between atoms: C_4  and  C_5
REMARK    4  A    between atoms: C_8  and  C_9
REMARK    5  A    between atoms: C_9  and  N_10
REMARK    6  A    between atoms: C_11  and  C_13
REMARK                            x       y       z     vdW  Elec       q    Type
REMARK                         _______ _______ _______ _____ _____    ______ ____
ROOT
ATOM      1  C   UNL     1      48.018   6.850  13.095  0.00  0.00    +0.000 C 
ATOM      2  C   UNL     1      48.834   7.600  14.148  0.00  0.00    +0.000 C 
ATOM      3  C   UNL     1      50.285   7.741  13.724  0.00  0.00    +0.000 C 
ATOM      4  C   UNL     1      50.438   8.472  12.385  0.00  0.00    +0.000 C 
ATOM      5  C   UNL     1      49.600   7.761  11.308  0.00  0.00    +0.000 C 
ATOM      6  C   UNL     1      48.138   7.569  11.739  0.00  0.00    +0.000 C 
ENDROOT
BRANCH   1   7
ATOM      7  C   UNL     1      46.553   6.726  13.541  0.00  0.00    +0.000 C 
BRANCH   7  10
ATOM      8  O   UNL     1      46.276   3.944  14.119  0.00  0.00    +0.000 OA
ATOM      9  C   UNL     1      45.721   4.421  13.135  0.00  0.00    +0.000 C 
ATOM     10  N   UNL     1      45.822   5.744  12.767  0.00  0.00    +0.000 N 
ATOM     11  H   UNL     1      45.244   6.025  11.977  0.00  0.00    +0.000 HD
BRANCH   9  12
ATOM     12  C   UNL     1      44.875   3.633  12.233  0.00  0.00    +0.000 A 
ATOM     13  C   UNL     1      43.746   2.920  12.586  0.00  0.00    +0.000 A 
ATOM     14  N   UNL     1      43.295   2.347  11.432  0.00  0.00    +0.000 N 
ATOM     15  C   UNL     1      44.148   2.714  10.428  0.00  0.00    +0.000 A 
ATOM     16  N   UNL     1      45.110   3.493  10.870  0.00  0.00    +0.000 NA
ATOM     17  H   UNL     1      42.481   1.755  11.333  0.00  0.00    +0.000 HD
ENDBRANCH   9  12
ENDBRANCH   7  10
ENDBRANCH   1   7
BRANCH   4  18
ATOM     18  C   UNL     1      51.919   8.561  11.971  0.00  0.00    +0.000 C 
BRANCH  18  19
ATOM     19  N   UNL     1      52.141   8.131  10.599  0.00  0.00    +0.000 N 
ATOM     20  C   UNL     1      53.101   8.712   9.806  0.00  0.00    +0.000 C 
ATOM     21  O   UNL     1      53.871   9.570  10.229  0.00  0.00    +0.000 OA
ATOM     22  H   UNL     1      51.386   7.646  10.128  0.00  0.00    +0.000 HD
BRANCH  20  23
ATOM     23  C   UNL     1      53.208   8.195   8.433  0.00  0.00    +0.000 A 
ATOM     24  C   UNL     1      53.084   9.069   7.361  0.00  0.00    +0.000 A 
ATOM     25  S   UNL     1      53.289   8.323   5.841  0.00  0.00    +0.000 S 
ATOM     26  C   UNL     1      53.500   6.795   6.557  0.00  0.00    +0.000 A 
ATOM     27  N   UNL     1      53.703   5.685   5.798  0.00  0.00    +0.000 NA
ATOM     28  C   UNL     1      53.819   4.589   6.469  0.00  0.00    +0.000 A 
ATOM     29  N   UNL     1      53.756   4.503   7.835  0.00  0.00    +0.000 N 
ATOM     30  C   UNL     1      53.561   5.598   8.640  0.00  0.00    +0.000 A 
ATOM     31  O   UNL     1      53.520   5.492   9.856  0.00  0.00    +0.000 OA
ATOM     32  C   UNL     1      53.428   6.858   7.936  0.00  0.00    +0.000 A 
ATOM     33  H   UNL     1      53.855   3.616   8.304  0.00  0.00    +0.000 HD
ENDBRANCH  20  23
ENDBRANCH  18  19
ENDBRANCH   4  18
TORSDOF 6
ENDMDL
