MODEL 1
REMARK VINA RESULT:    -8.142      0.000      0.000
REMARK INTER + INTRA:         -11.200
REMARK INTER:                 -10.522
REMARK INTRA:                  -0.679
REMARK UNBOUND:                -0.679
REMARK  Name = 
REMARK  5 active torsions:
REMARK  status: ('A' for Active; 'I' for Inactive)
REMARK    1  A    between atoms: C_2  and  C_18
REMARK    2  A    between atoms: N_3  and  C_4
REMARK    3  A    between atoms: C_4  and  C_5
REMARK    4  A    between atoms: C_8  and  C_9
REMARK    5  A    between atoms: C_9  and  C_10
REMARK                            x       y       z     vdW  Elec       q    Type
REMARK                         _______ _______ _______ _____ _____    ______ ____
ROOT
ATOM      1  O   UNL     1      48.462   6.739  12.673  0.00  0.00    +0.000 OA
ATOM      2  C   UNL     1      47.773   6.632  13.684  0.00  0.00    +0.000 C 
ATOM      3  N   UNL     1      46.411   6.787  13.664  0.00  0.00    +0.000 N 
ATOM      4  H   UNL     1      45.905   6.849  14.542  0.00  0.00    +0.000 HD
ENDROOT
BRANCH   2   5
ATOM      5  C   UNL     1      48.363   6.277  14.979  0.00  0.00    +0.000 A 
ATOM      6  C   UNL     1      49.316   7.107  15.553  0.00  0.00    +0.000 A 
ATOM      7  S   UNL     1      49.883   6.554  17.063  0.00  0.00    +0.000 S 
ATOM      8  C   UNL     1      48.846   5.205  17.019  0.00  0.00    +0.000 A 
ATOM      9  N   UNL     1      48.800   4.325  18.056  0.00  0.00    +0.000 NA
ATOM     10  C   UNL     1      47.943   3.370  17.907  0.00  0.00    +0.000 A 
ATOM     11  N   UNL     1      47.140   3.206  16.807  0.00  0.00    +0.000 N 
ATOM     12  C   UNL     1      47.213   4.021  15.702  0.00  0.00    +0.000 A 
ATOM     13  O   UNL     1      46.593   3.757  14.676  0.00  0.00    +0.000 OA
ATOM     14  C   UNL     1      48.111   5.152  15.848  0.00  0.00    +0.000 A 
ATOM     15  H   UNL     1      46.521   2.414  16.735  0.00  0.00    +0.000 HD
ENDBRANCH   2   5
BRANCH   3  16
ATOM     16  C   UNL     1      45.691   7.164  12.476  0.00  0.00    +0.000 C 
BRANCH  16  17
ATOM     17  C   UNL     1      45.442   5.990  11.578  0.00  0.00    +0.000 A 
ATOM     18  C   UNL     1      44.730   4.875  12.022  0.00  0.00    +0.000 A 
ATOM     19  C   UNL     1      44.461   3.830  11.142  0.00  0.00    +0.000 A 
ATOM     20  C   UNL     1      44.931   3.914   9.834  0.00  0.00    +0.000 A 
ATOM     21  N   UNL     1      45.663   4.967   9.390  0.00  0.00    +0.000 NA
ATOM     22  C   UNL     1      45.907   5.968  10.269  0.00  0.00    +0.000 A 
BRANCH  20  23
ATOM     23  C   UNL     1      44.563   2.858   8.818  0.00  0.00    +0.000 C 
BRANCH  23  24
ATOM     24  C   UNL     1      45.684   2.569   7.853  0.00  0.00    +0.000 A 
ATOM     25  C   UNL     1      46.484   1.437   8.004  0.00  0.00    +0.000 A 
ATOM     26  N   UNL     1      47.523   1.152   7.183  0.00  0.00    +0.000 NA
ATOM     27  C   UNL     1      47.736   2.047   6.194  0.00  0.00    +0.000 A 
ATOM     28  C   UNL     1      46.939   3.165   6.022  0.00  0.00    +0.000 A 
ATOM     29  N   UNL     1      45.901   3.453   6.841  0.00  0.00    +0.000 NA
ENDBRANCH  23  24
ENDBRANCH  20  23
ENDBRANCH  16  17
ENDBRANCH   3  16
TORSDOF 5
ENDMDL
MODEL 2
REMARK VINA RESULT:    -7.821      1.177      1.565
REMARK INTER + INTRA:         -10.786
REMARK INTER:                  -9.972
REMARK INTRA:                  -0.814
REMARK UNBOUND:                -0.679
REMARK  Name = 
REMARK  5 active torsions:
REMARK  status: ('A' for Active; 'I' for Inactive)
REMARK    1  A    between atoms: C_2  and  C_18
REMARK    2  A    between atoms: N_3  and  C_4
REMARK    3  A    between atoms: C_4  and  C_5
REMARK    4  A    between atoms: C_8  and  C_9
REMARK    5  A    between atoms: C_9  and  C_10
REMARK                            x       y       z     vdW  Elec       q    Type
REMARK                         _______ _______ _______ _____ _____    ______ ____
ROOT
ATOM      1  O   UNL     1      49.514   7.050  13.719  0.00  0.00    +0.000 OA
ATOM      2  C   UNL     1      48.684   6.896  14.611  0.00  0.00    +0.000 C 
ATOM      3  N   UNL     1      47.366   7.235  14.454  0.00  0.00    +0.000 N 
ATOM      4  H   UNL     1      46.754   7.240  15.264  0.00  0.00    +0.000 HD
ENDROOT
BRANCH   2   5
ATOM      5  C   UNL     1      49.046   6.284  15.894  0.00  0.00    +0.000 A 
ATOM      6  C   UNL     1      50.047   6.851  16.671  0.00  0.00    +0.000 A 
ATOM      7  S   UNL     1      50.326   6.025  18.135  0.00  0.00    +0.000 S 
ATOM      8  C   UNL     1      49.091   4.902  17.800  0.00  0.00    +0.000 A 
ATOM      9  N   UNL     1      48.773   3.926  18.693  0.00  0.00    +0.000 NA
ATOM     10  C   UNL     1      47.793   3.169  18.328  0.00  0.00    +0.000 A 
ATOM     11  N   UNL     1      47.113   3.288  17.143  0.00  0.00    +0.000 N 
ATOM     12  C   UNL     1      47.455   4.205  16.176  0.00  0.00    +0.000 A 
ATOM     13  O   UNL     1      46.928   4.184  15.067  0.00  0.00    +0.000 OA
ATOM     14  C   UNL     1      48.505   5.127  16.567  0.00  0.00    +0.000 A 
ATOM     15  H   UNL     1      46.383   2.637  16.899  0.00  0.00    +0.000 HD
ENDBRANCH   2   5
BRANCH   3  16
ATOM     16  C   UNL     1      46.865   7.869  13.264  0.00  0.00    +0.000 C 
BRANCH  16  17
ATOM     17  C   UNL     1      46.016   6.940  12.449  0.00  0.00    +0.000 A 
ATOM     18  C   UNL     1      44.885   7.398  11.771  0.00  0.00    +0.000 A 
ATOM     19  C   UNL     1      44.155   6.522  10.972  0.00  0.00    +0.000 A 
ATOM     20  C   UNL     1      44.564   5.194  10.883  0.00  0.00    +0.000 A 
ATOM     21  N   UNL     1      45.634   4.714  11.566  0.00  0.00    +0.000 NA
ATOM     22  C   UNL     1      46.324   5.591  12.335  0.00  0.00    +0.000 A 
BRANCH  20  23
ATOM     23  C   UNL     1      43.870   4.241   9.939  0.00  0.00    +0.000 C 
BRANCH  23  24
ATOM     24  C   UNL     1      44.831   3.539   9.016  0.00  0.00    +0.000 A 
ATOM     25  C   UNL     1      45.071   2.170   9.139  0.00  0.00    +0.000 A 
ATOM     26  N   UNL     1      45.950   1.501   8.356  0.00  0.00    +0.000 NA
ATOM     27  C   UNL     1      46.588   2.254   7.434  0.00  0.00    +0.000 A 
ATOM     28  C   UNL     1      46.347   3.609   7.289  0.00  0.00    +0.000 A 
ATOM     29  N   UNL     1      45.470   4.281   8.070  0.00  0.00    +0.000 NA
ENDBRANCH  23  24
ENDBRANCH  20  23
ENDBRANCH  16  17
ENDBRANCH   3  16
TORSDOF 5
ENDMDL
MODEL 3
REMARK VINA RESULT:    -7.673      1.919      2.610
REMARK INTER + INTRA:         -10.595
REMARK INTER:                 -10.189
REMARK INTRA:                  -0.406
REMARK UNBOUND:                -0.679
REMARK  Name = 
REMARK  5 active torsions:
REMARK  status: ('A' for Active; 'I' for Inactive)
REMARK    1  A    between atoms: C_2  and  C_18
REMARK    2  A    between atoms: N_3  and  C_4
REMARK    3  A    between atoms: C_4  and  C_5
REMARK    4  A    between atoms: C_8  and  C_9
REMARK    5  A    between atoms: C_9  and  C_10
REMARK                            x       y       z     vdW  Elec       q    Type
REMARK                         _______ _______ _______ _____ _____    ______ ____
ROOT
ATOM      1  O   UNL     1      48.950   6.288  14.558  0.00  0.00    +0.000 OA
ATOM      2  C   UNL     1      47.968   5.731  15.040  0.00  0.00    +0.000 C 
ATOM      3  N   UNL     1      46.748   5.722  14.416  0.00  0.00    +0.000 N 
ATOM      4  H   UNL     1      45.933   5.392  14.922  0.00  0.00    +0.000 HD
ENDROOT
BRANCH   2   5
ATOM      5  C   UNL     1      48.052   4.989  16.303  0.00  0.00    +0.000 A 
ATOM      6  C   UNL     1      47.799   3.625  16.319  0.00  0.00    +0.000 A 
ATOM      7  S   UNL     1      47.958   2.918  17.863  0.00  0.00    +0.000 S 
ATOM      8  C   UNL     1      48.410   4.406  18.556  0.00  0.00    +0.000 A 
ATOM      9  N   UNL     1      48.737   4.492  19.874  0.00  0.00    +0.000 NA
ATOM     10  C   UNL     1      49.097   5.672  20.258  0.00  0.00    +0.000 A 
ATOM     11  N   UNL     1      49.143   6.777  19.447  0.00  0.00    +0.000 N 
ATOM     12  C   UNL     1      48.741   6.754  18.132  0.00  0.00    +0.000 A 
ATOM     13  O   UNL     1      48.648   7.789  17.478  0.00  0.00    +0.000 OA
ATOM     14  C   UNL     1      48.394   5.436  17.633  0.00  0.00    +0.000 A 
ATOM     15  H   UNL     1      49.393   7.679  19.819  0.00  0.00    +0.000 HD
ENDBRANCH   2   5
BRANCH   3  16
ATOM     16  C   UNL     1      46.502   6.428  13.186  0.00  0.00    +0.000 C 
BRANCH  16  17
ATOM     17  C   UNL     1      45.902   5.538  12.140  0.00  0.00    +0.000 A 
ATOM     18  C   UNL     1      45.637   6.008  10.853  0.00  0.00    +0.000 A 
ATOM     19  C   UNL     1      45.140   5.138   9.886  0.00  0.00    +0.000 A 
ATOM     20  C   UNL     1      44.897   3.812  10.237  0.00  0.00    +0.000 A 
ATOM     21  N   UNL     1      45.105   3.341  11.493  0.00  0.00    +0.000 NA
ATOM     22  C   UNL     1      45.590   4.212  12.410  0.00  0.00    +0.000 A 
BRANCH  20  23
ATOM     23  C   UNL     1      44.467   2.810   9.191  0.00  0.00    +0.000 C 
BRANCH  23  24
ATOM     24  C   UNL     1      45.610   2.357   8.320  0.00  0.00    +0.000 A 
ATOM     25  C   UNL     1      46.248   3.247   7.457  0.00  0.00    +0.000 A 
ATOM     26  N   UNL     1      47.257   2.880   6.631  0.00  0.00    +0.000 NA
ATOM     27  C   UNL     1      47.609   1.578   6.698  0.00  0.00    +0.000 A 
ATOM     28  C   UNL     1      46.997   0.688   7.561  0.00  0.00    +0.000 A 
ATOM     29  N   UNL     1      45.988   1.051   8.388  0.00  0.00    +0.000 NA
ENDBRANCH  23  24
ENDBRANCH  20  23
ENDBRANCH  16  17
ENDBRANCH   3  16
TORSDOF 5
ENDMDL
MODEL 4
REMARK VINA RESULT:    -7.325      3.413      4.660
REMARK INTER + INTRA:         -10.145
REMARK INTER:                  -9.491
REMARK INTRA:                  -0.654
REMARK UNBOUND:                -0.679
REMARK  Name = 
REMARK  5 active torsions:
REMARK  status: ('A' for Active; 'I' for Inactive)
REMARK    1  A    between atoms: C_2  and  C_18
REMARK    2  A    between atoms: N_3  and  C_4
REMARK    3  A    between atoms: C_4  and  C_5
REMARK    4  A    between atoms: C_8  and  C_9
REMARK    5  A    between atoms: C_9  and  C_10
REMARK                            x       y       z     vdW  Elec       q    Type
REMARK                         _______ _______ _______ _____ _____    ______ ____
ROOT
ATOM      1  O   UNL     1      47.278   7.246  13.886  0.00  0.00    +0.000 OA
ATOM      2  C   UNL     1      46.732   7.794  12.934  0.00  0.00    +0.000 C 
ATOM      3  N   UNL     1      45.508   7.399  12.462  0.00  0.00    +0.000 N 
ATOM      4  H   UNL     1      45.171   7.772  11.580  0.00  0.00    +0.000 HD
ENDROOT
BRANCH   2   5
ATOM      5  C   UNL     1      47.338   8.952  12.267  0.00  0.00    +0.000 A 
ATOM      6  C   UNL     1      46.587  10.102  12.065  0.00  0.00    +0.000 A 
ATOM      7  S   UNL     1      47.449  11.354  11.293  0.00  0.00    +0.000 S 
ATOM      8  C   UNL     1      48.869  10.415  11.237  0.00  0.00    +0.000 A 
ATOM      9  N   UNL     1      50.023  10.923  10.726  0.00  0.00    +0.000 NA
ATOM     10  C   UNL     1      51.030  10.116  10.780  0.00  0.00    +0.000 A 
ATOM     11  N   UNL     1      50.983   8.841  11.283  0.00  0.00    +0.000 N 
ATOM     12  C   UNL     1      49.821   8.258  11.732  0.00  0.00    +0.000 A 
ATOM     13  O   UNL     1      49.781   7.069  12.031  0.00  0.00    +0.000 OA
ATOM     14  C   UNL     1      48.674   9.148  11.757  0.00  0.00    +0.000 A 
ATOM     15  H   UNL     1      51.797   8.247  11.258  0.00  0.00    +0.000 HD
ENDBRANCH   2   5
BRANCH   3  16
ATOM     16  C   UNL     1      44.802   6.263  12.994  0.00  0.00    +0.000 C 
BRANCH  16  17
ATOM     17  C   UNL     1      44.664   5.166  11.983  0.00  0.00    +0.000 A 
ATOM     18  C   UNL     1      43.843   5.311  10.863  0.00  0.00    +0.000 A 
ATOM     19  C   UNL     1      43.787   4.298   9.909  0.00  0.00    +0.000 A 
ATOM     20  C   UNL     1      44.542   3.146  10.108  0.00  0.00    +0.000 A 
ATOM     21  N   UNL     1      45.314   2.962  11.209  0.00  0.00    +0.000 NA
ATOM     22  C   UNL     1      45.348   3.965  12.118  0.00  0.00    +0.000 A 
BRANCH  20  23
ATOM     23  C   UNL     1      44.599   2.074   9.044  0.00  0.00    +0.000 C 
BRANCH  23  24
ATOM     24  C   UNL     1      45.820   2.191   8.170  0.00  0.00    +0.000 A 
ATOM     25  C   UNL     1      46.593   1.071   7.867  0.00  0.00    +0.000 A 
ATOM     26  N   UNL     1      47.717   1.130   7.114  0.00  0.00    +0.000 NA
ATOM     27  C   UNL     1      48.045   2.362   6.668  0.00  0.00    +0.000 A 
ATOM     28  C   UNL     1      47.279   3.479   6.946  0.00  0.00    +0.000 A 
ATOM     29  N   UNL     1      46.155   3.424   7.698  0.00  0.00    +0.000 NA
ENDBRANCH  23  24
ENDBRANCH  20  23
ENDBRANCH  16  17
ENDBRANCH   3  16
TORSDOF 5
ENDMDL
MODEL 5
REMARK VINA RESULT:    -7.151      3.952      9.042
REMARK INTER + INTRA:          -9.919
REMARK INTER:                  -9.462
REMARK INTRA:                  -0.457
REMARK UNBOUND:                -0.679
REMARK  Name = 
REMARK  5 active torsions:
REMARK  status: ('A' for Active; 'I' for Inactive)
REMARK    1  A    between atoms: C_2  and  C_18
REMARK    2  A    between atoms: N_3  and  C_4
REMARK    3  A    between atoms: C_4  and  C_5
REMARK    4  A    between atoms: C_8  and  C_9
REMARK    5  A    between atoms: C_9  and  C_10
REMARK                            x       y       z     vdW  Elec       q    Type
REMARK                         _______ _______ _______ _____ _____    ______ ____
ROOT
ATOM      1  O   UNL     1      47.228   3.118  14.022  0.00  0.00    +0.000 OA
ATOM      2  C   UNL     1      46.801   4.164  14.501  0.00  0.00    +0.000 C 
ATOM      3  N   UNL     1      46.806   4.411  15.849  0.00  0.00    +0.000 N 
ATOM      4  H   UNL     1      46.300   5.214  16.209  0.00  0.00    +0.000 HD
ENDROOT
BRANCH   2   5
ATOM      5  C   UNL     1      46.303   5.249  13.648  0.00  0.00    +0.000 A 
ATOM      6  C   UNL     1      47.096   6.365  13.419  0.00  0.00    +0.000 A 
ATOM      7  S   UNL     1      46.371   7.518  12.393  0.00  0.00    +0.000 S 
ATOM      8  C   UNL     1      44.988   6.547  12.188  0.00  0.00    +0.000 A 
ATOM      9  N   UNL     1      43.973   6.940  11.372  0.00  0.00    +0.000 NA
ATOM     10  C   UNL     1      43.004   6.090  11.280  0.00  0.00    +0.000 A 
ATOM     11  N   UNL     1      42.950   4.892  11.945  0.00  0.00    +0.000 N 
ATOM     12  C   UNL     1      43.912   4.493  12.843  0.00  0.00    +0.000 A 
ATOM     13  O   UNL     1      43.759   3.491  13.535  0.00  0.00    +0.000 OA
ATOM     14  C   UNL     1      45.058   5.381  12.929  0.00  0.00    +0.000 A 
ATOM     15  H   UNL     1      42.145   4.292  11.862  0.00  0.00    +0.000 HD
ENDBRANCH   2   5
BRANCH   3  16
ATOM     16  C   UNL     1      47.237   3.434  16.814  0.00  0.00    +0.000 C 
BRANCH  16  17
ATOM     17  C   UNL     1      48.686   3.593  17.161  0.00  0.00    +0.000 A 
ATOM     18  C   UNL     1      49.551   2.497  17.187  0.00  0.00    +0.000 A 
ATOM     19  C   UNL     1      50.904   2.688  17.450  0.00  0.00    +0.000 A 
ATOM     20  C   UNL     1      51.364   3.978  17.704  0.00  0.00    +0.000 A 
ATOM     21  N   UNL     1      50.537   5.054  17.728  0.00  0.00    +0.000 NA
ATOM     22  C   UNL     1      49.226   4.835  17.467  0.00  0.00    +0.000 A 
BRANCH  20  23
ATOM     23  C   UNL     1      52.841   4.243  17.880  0.00  0.00    +0.000 C 
BRANCH  23  24
ATOM     24  C   UNL     1      53.587   3.040  18.395  0.00  0.00    +0.000 A 
ATOM     25  C   UNL     1      53.894   2.915  19.750  0.00  0.00    +0.000 A 
ATOM     26  N   UNL     1      54.592   1.870  20.255  0.00  0.00    +0.000 NA
ATOM     27  C   UNL     1      54.976   0.944  19.350  0.00  0.00    +0.000 A 
ATOM     28  C   UNL     1      54.664   1.047  18.007  0.00  0.00    +0.000 A 
ATOM     29  N   UNL     1      53.968   2.090  17.498  0.00  0.00    +0.000 NA
ENDBRANCH  23  24
ENDBRANCH  20  23
ENDBRANCH  16  17
ENDBRANCH   3  16
TORSDOF 5
ENDMDL
MODEL 6
REMARK VINA RESULT:    -7.110      3.679      7.946
REMARK INTER + INTRA:          -9.867
REMARK INTER:                  -9.151
REMARK INTRA:                  -0.716
REMARK UNBOUND:                -0.679
REMARK  Name = 
REMARK  5 active torsions:
REMARK  status: ('A' for Active; 'I' for Inactive)
REMARK    1  A    between atoms: C_2  and  C_18
REMARK    2  A    between atoms: N_3  and  C_4
REMARK    3  A    between atoms: C_4  and  C_5
REMARK    4  A    between atoms: C_8  and  C_9
REMARK    5  A    between atoms: C_9  and  C_10
REMARK                            x       y       z     vdW  Elec       q    Type
REMARK                         _______ _______ _______ _____ _____    ______ ____
ROOT
ATOM      1  O   UNL     1      47.849   6.905  11.554  0.00  0.00    +0.000 OA
ATOM      2  C   UNL     1      46.968   6.858  12.408  0.00  0.00    +0.000 C 
ATOM      3  N   UNL     1      47.148   7.347  13.675  0.00  0.00    +0.000 N 
ATOM      4  H   UNL     1      46.455   7.144  14.389  0.00  0.00    +0.000 HD
ENDROOT
BRANCH   2   5
ATOM      5  C   UNL     1      45.638   6.318  12.107  0.00  0.00    +0.000 A 
ATOM      6  C   UNL     1      44.663   7.147  11.569  0.00  0.00    +0.000 A 
ATOM      7  S   UNL     1      43.184   6.354  11.265  0.00  0.00    +0.000 S 
ATOM      8  C   UNL     1      43.809   4.866  11.805  0.00  0.00    +0.000 A 
ATOM      9  N   UNL     1      43.053   3.735  11.765  0.00  0.00    +0.000 NA
ATOM     10  C   UNL     1      43.664   2.671  12.170  0.00  0.00    +0.000 A 
ATOM     11  N   UNL     1      44.957   2.639  12.626  0.00  0.00    +0.000 N 
ATOM     12  C   UNL     1      45.729   3.769  12.762  0.00  0.00    +0.000 A 
ATOM     13  O   UNL     1      46.823   3.728  13.315  0.00  0.00    +0.000 OA
ATOM     14  C   UNL     1      45.112   4.982  12.255  0.00  0.00    +0.000 A 
ATOM     15  H   UNL     1      45.362   1.782  12.967  0.00  0.00    +0.000 HD
ENDBRANCH   2   5
BRANCH   3  16
ATOM     16  C   UNL     1      48.404   7.882  14.129  0.00  0.00    +0.000 C 
BRANCH  16  17
ATOM     17  C   UNL     1      49.027   7.025  15.189  0.00  0.00    +0.000 A 
ATOM     18  C   UNL     1      50.328   7.258  15.638  0.00  0.00    +0.000 A 
ATOM     19  C   UNL     1      50.853   6.484  16.669  0.00  0.00    +0.000 A 
ATOM     20  C   UNL     1      50.068   5.474  17.219  0.00  0.00    +0.000 A 
ATOM     21  N   UNL     1      48.817   5.198  16.770  0.00  0.00    +0.000 NA
ATOM     22  C   UNL     1      48.334   5.969  15.767  0.00  0.00    +0.000 A 
BRANCH  20  23
ATOM     23  C   UNL     1      50.556   4.688  18.413  0.00  0.00    +0.000 C 
BRANCH  23  24
ATOM     24  C   UNL     1      51.194   3.380  18.024  0.00  0.00    +0.000 A 
ATOM     25  C   UNL     1      50.471   2.410  17.330  0.00  0.00    +0.000 A 
ATOM     26  N   UNL     1      50.989   1.207  16.988  0.00  0.00    +0.000 NA
ATOM     27  C   UNL     1      52.270   1.004  17.366  0.00  0.00    +0.000 A 
ATOM     28  C   UNL     1      53.004   1.963  18.040  0.00  0.00    +0.000 A 
ATOM     29  N   UNL     1      52.489   3.167  18.384  0.00  0.00    +0.000 NA
ENDBRANCH  23  24
ENDBRANCH  20  23
ENDBRANCH  16  17
ENDBRANCH   3  16
TORSDOF 5
ENDMDL
MODEL 7
REMARK VINA RESULT:    -7.019      2.316      3.124
REMARK INTER + INTRA:          -9.749
REMARK INTER:                  -8.851
REMARK INTRA:                  -0.898
REMARK UNBOUND:                -0.679
REMARK  Name = 
REMARK  5 active torsions:
REMARK  status: ('A' for Active; 'I' for Inactive)
REMARK    1  A    between atoms: C_2  and  C_18
REMARK    2  A    between atoms: N_3  and  C_4
REMARK    3  A    between atoms: C_4  and  C_5
REMARK    4  A    between atoms: C_8  and  C_9
REMARK    5  A    between atoms: C_9  and  C_10
REMARK                            x       y       z     vdW  Elec       q    Type
REMARK                         _______ _______ _______ _____ _____    ______ ____
ROOT
ATOM      1  O   UNL     1      49.706   6.976  14.219  0.00  0.00    +0.000 OA
ATOM      2  C   UNL     1      48.777   7.127  15.007  0.00  0.00    +0.000 C 
ATOM      3  N   UNL     1      47.559   7.621  14.622  0.00  0.00    +0.000 N 
ATOM      4  H   UNL     1      46.879   7.878  15.331  0.00  0.00    +0.000 HD
ENDROOT
BRANCH   2   5
ATOM      5  C   UNL     1      48.898   6.734  16.416  0.00  0.00    +0.000 A 
ATOM      6  C   UNL     1      49.299   5.445  16.740  0.00  0.00    +0.000 A 
ATOM      7  S   UNL     1      49.404   5.164  18.418  0.00  0.00    +0.000 S 
ATOM      8  C   UNL     1      48.954   6.768  18.769  0.00  0.00    +0.000 A 
ATOM      9  N   UNL     1      48.894   7.211  20.055  0.00  0.00    +0.000 NA
ATOM     10  C   UNL     1      48.577   8.458  20.174  0.00  0.00    +0.000 A 
ATOM     11  N   UNL     1      48.298   9.296  19.126  0.00  0.00    +0.000 N 
ATOM     12  C   UNL     1      48.265   8.871  17.818  0.00  0.00    +0.000 A 
ATOM     13  O   UNL     1      47.863   9.606  16.921  0.00  0.00    +0.000 OA
ATOM     14  C   UNL     1      48.683   7.494  17.624  0.00  0.00    +0.000 A 
ATOM     15  H   UNL     1      48.016  10.250  19.289  0.00  0.00    +0.000 HD
ENDBRANCH   2   5
BRANCH   3  16
ATOM     16  C   UNL     1      47.295   8.076  13.282  0.00  0.00    +0.000 C 
BRANCH  16  17
ATOM     17  C   UNL     1      46.351   7.165  12.558  0.00  0.00    +0.000 A 
ATOM     18  C   UNL     1      45.234   7.665  11.885  0.00  0.00    +0.000 A 
ATOM     19  C   UNL     1      44.413   6.799  11.168  0.00  0.00    +0.000 A 
ATOM     20  C   UNL     1      44.716   5.439  11.157  0.00  0.00    +0.000 A 
ATOM     21  N   UNL     1      45.769   4.923  11.840  0.00  0.00    +0.000 NA
ATOM     22  C   UNL     1      46.550   5.791  12.526  0.00  0.00    +0.000 A 
BRANCH  20  23
ATOM     23  C   UNL     1      43.919   4.484  10.301  0.00  0.00    +0.000 C 
BRANCH  23  24
ATOM     24  C   UNL     1      44.783   3.707   9.343  0.00  0.00    +0.000 A 
ATOM     25  C   UNL     1      44.955   2.330   9.490  0.00  0.00    +0.000 A 
ATOM     26  N   UNL     1      45.748   1.594   8.676  0.00  0.00    +0.000 NA
ATOM     27  C   UNL     1      46.370   2.288   7.698  0.00  0.00    +0.000 A 
ATOM     28  C   UNL     1      46.195   3.649   7.530  0.00  0.00    +0.000 A 
ATOM     29  N   UNL     1      45.404   4.389   8.342  0.00  0.00    +0.000 NA
ENDBRANCH  23  24
ENDBRANCH  20  23
ENDBRANCH  16  17
ENDBRANCH   3  16
TORSDOF 5
ENDMDL
MODEL 8
REMARK VINA RESULT:    -6.894      3.904      8.556
REMARK INTER + INTRA:          -9.588
REMARK INTER:                  -8.757
REMARK INTRA:                  -0.831
REMARK UNBOUND:                -0.679
REMARK  Name = 
REMARK  5 active torsions:
REMARK  status: ('A' for Active; 'I' for Inactive)
REMARK    1  A    between atoms: C_2  and  C_18
REMARK    2  A    between atoms: N_3  and  C_4
REMARK    3  A    between atoms: C_4  and  C_5
REMARK    4  A    between atoms: C_8  and  C_9
REMARK    5  A    between atoms: C_9  and  C_10
REMARK                            x       y       z     vdW  Elec       q    Type
REMARK                         _______ _______ _______ _____ _____    ______ ____
ROOT
ATOM      1  O   UNL     1      47.353   3.082  14.180  0.00  0.00    +0.000 OA
ATOM      2  C   UNL     1      46.907   4.137  14.622  0.00  0.00    +0.000 C 
ATOM      3  N   UNL     1      46.806   4.386  15.966  0.00  0.00    +0.000 N 
ATOM      4  H   UNL     1      46.287   5.198  16.284  0.00  0.00    +0.000 HD
ENDROOT
BRANCH   2   5
ATOM      5  C   UNL     1      46.497   5.228  13.731  0.00  0.00    +0.000 A 
ATOM      6  C   UNL     1      47.367   6.281  13.485  0.00  0.00    +0.000 A 
ATOM      7  S   UNL     1      46.739   7.451  12.416  0.00  0.00    +0.000 S 
ATOM      8  C   UNL     1      45.296   6.569  12.213  0.00  0.00    +0.000 A 
ATOM      9  N   UNL     1      44.324   7.006  11.368  0.00  0.00    +0.000 NA
ATOM     10  C   UNL     1      43.301   6.222  11.283  0.00  0.00    +0.000 A 
ATOM     11  N   UNL     1      43.155   5.049  11.979  0.00  0.00    +0.000 N 
ATOM     12  C   UNL     1      44.073   4.613  12.905  0.00  0.00    +0.000 A 
ATOM     13  O   UNL     1      43.842   3.643  13.621  0.00  0.00    +0.000 OA
ATOM     14  C   UNL     1      45.275   5.423  12.987  0.00  0.00    +0.000 A 
ATOM     15  H   UNL     1      42.312   4.503  11.899  0.00  0.00    +0.000 HD
ENDBRANCH   2   5
BRANCH   3  16
ATOM     16  C   UNL     1      47.142   3.404  16.963  0.00  0.00    +0.000 C 
BRANCH  16  17
ATOM     17  C   UNL     1      48.544   3.574  17.466  0.00  0.00    +0.000 A 
ATOM     18  C   UNL     1      49.562   2.698  17.087  0.00  0.00    +0.000 A 
ATOM     19  C   UNL     1      50.866   2.921  17.520  0.00  0.00    +0.000 A 
ATOM     20  C   UNL     1      51.122   4.013  18.346  0.00  0.00    +0.000 A 
ATOM     21  N   UNL     1      50.142   4.855  18.764  0.00  0.00    +0.000 NA
ATOM     22  C   UNL     1      48.885   4.611  18.325  0.00  0.00    +0.000 A 
BRANCH  20  23
ATOM     23  C   UNL     1      52.538   4.357  18.744  0.00  0.00    +0.000 C 
BRANCH  23  24
ATOM     24  C   UNL     1      53.329   4.954  17.609  0.00  0.00    +0.000 A 
ATOM     25  C   UNL     1      54.589   4.456  17.277  0.00  0.00    +0.000 A 
ATOM     26  N   UNL     1      55.352   4.980  16.288  0.00  0.00    +0.000 NA
ATOM     27  C   UNL     1      54.807   6.029  15.635  0.00  0.00    +0.000 A 
ATOM     28  C   UNL     1      53.552   6.521  15.943  0.00  0.00    +0.000 A 
ATOM     29  N   UNL     1      52.786   6.001  16.931  0.00  0.00    +0.000 NA
ENDBRANCH  23  24
ENDBRANCH  20  23
ENDBRANCH  16  17
ENDBRANCH   3  16
TORSDOF 5
ENDMDL
MODEL 9
REMARK VINA RESULT:    -6.814      2.862      4.087
REMARK INTER + INTRA:          -9.484
REMARK INTER:                  -8.309
REMARK INTRA:                  -1.175
REMARK UNBOUND:                -0.679
REMARK  Name = 
REMARK  5 active torsions:
REMARK  status: ('A' for Active; 'I' for Inactive)
REMARK    1  A    between atoms: C_2  and  C_18
REMARK    2  A    between atoms: N_3  and  C_4
REMARK    3  A    between atoms: C_4  and  C_5
REMARK    4  A    between atoms: C_8  and  C_9
REMARK    5  A    between atoms: C_9  and  C_10
REMARK                            x       y       z     vdW  Elec       q    Type
REMARK                         _______ _______ _______ _____ _____    ______ ____
ROOT
ATOM      1  O   UNL     1      48.100   9.198  16.479  0.00  0.00    +0.000 OA
ATOM      2  C   UNL     1      48.699   8.140  16.306  0.00  0.00    +0.000 C 
ATOM      3  N   UNL     1      49.208   7.775  15.088  0.00  0.00    +0.000 N 
ATOM      4  H   UNL     1      49.550   6.828  14.956  0.00  0.00    +0.000 HD
ENDROOT
BRANCH   2   5
ATOM      5  C   UNL     1      48.954   7.215  17.416  0.00  0.00    +0.000 A 
ATOM      6  C   UNL     1      49.487   7.695  18.604  0.00  0.00    +0.000 A 
ATOM      7  S   UNL     1      49.703   6.491  19.792  0.00  0.00    +0.000 S 
ATOM      8  C   UNL     1      49.053   5.292  18.772  0.00  0.00    +0.000 A 
ATOM      9  N   UNL     1      48.908   4.011  19.205  0.00  0.00    +0.000 NA
ATOM     10  C   UNL     1      48.368   3.216  18.341  0.00  0.00    +0.000 A 
ATOM     11  N   UNL     1      47.975   3.582  17.080  0.00  0.00    +0.000 N 
ATOM     12  C   UNL     1      48.180   4.844  16.572  0.00  0.00    +0.000 A 
ATOM     13  O   UNL     1      47.959   5.097  15.392  0.00  0.00    +0.000 OA
ATOM     14  C   UNL     1      48.720   5.795  17.527  0.00  0.00    +0.000 A 
ATOM     15  H   UNL     1      47.598   2.902  16.439  0.00  0.00    +0.000 HD
ENDBRANCH   2   5
BRANCH   3  16
ATOM     16  C   UNL     1      49.015   8.563  13.899  0.00  0.00    +0.000 C 
BRANCH  16  17
ATOM     17  C   UNL     1      47.796   8.139  13.138  0.00  0.00    +0.000 A 
ATOM     18  C   UNL     1      47.851   7.114  12.192  0.00  0.00    +0.000 A 
ATOM     19  C   UNL     1      46.687   6.701  11.549  0.00  0.00    +0.000 A 
ATOM     20  C   UNL     1      45.488   7.340  11.854  0.00  0.00    +0.000 A 
ATOM     21  N   UNL     1      45.415   8.368  12.737  0.00  0.00    +0.000 NA
ATOM     22  C   UNL     1      46.564   8.746  13.347  0.00  0.00    +0.000 A 
BRANCH  20  23
ATOM     23  C   UNL     1      44.187   6.847  11.266  0.00  0.00    +0.000 C 
BRANCH  23  24
ATOM     24  C   UNL     1      43.925   5.396  11.575  0.00  0.00    +0.000 A 
ATOM     25  C   UNL     1      43.689   4.974  12.883  0.00  0.00    +0.000 A 
ATOM     26  N   UNL     1      43.483   3.677  13.215  0.00  0.00    +0.000 NA
ATOM     27  C   UNL     1      43.519   2.807  12.183  0.00  0.00    +0.000 A 
ATOM     28  C   UNL     1      43.735   3.214  10.878  0.00  0.00    +0.000 A 
ATOM     29  N   UNL     1      43.942   4.508  10.543  0.00  0.00    +0.000 NA
ENDBRANCH  23  24
ENDBRANCH  20  23
ENDBRANCH  16  17
ENDBRANCH   3  16
TORSDOF 5
ENDMDL
