MODEL 1
REMARK VINA RESULT:    -8.348      0.000      0.000
REMARK INTER + INTRA:         -12.436
REMARK INTER:                 -11.276
REMARK INTRA:                  -1.159
REMARK UNBOUND:                -1.159
REMARK  Name = 
REMARK  6 active torsions:
REMARK  status: ('A' for Active; 'I' for Inactive)
REMARK    1  A    between atoms: C_2  and  C_5
REMARK    2  A    between atoms: C_9  and  N_10
REMARK    3  A    between atoms: N_10  and  C_11
REMARK    4  A    between atoms: C_11  and  C_12
REMARK    5  A    between atoms: C_17  and  C_18
REMARK    6  A    between atoms: C_22  and  C_23
REMARK                            x       y       z     vdW  Elec       q    Type
REMARK                         _______ _______ _______ _____ _____    ______ ____
ROOT
ATOM      1  C   UNL     1      45.014   5.321  11.833  0.00  0.00    +0.000 A 
ATOM      2  C   UNL     1      45.199   4.512  12.953  0.00  0.00    +0.000 A 
ATOM      3  C   UNL     1      46.243   4.776  13.838  0.00  0.00    +0.000 A 
ATOM      4  C   UNL     1      47.111   5.857  13.622  0.00  0.00    +0.000 A 
ATOM      5 CL   UNL     1      48.244   6.153  14.905  0.00  0.00    +0.000 Cl
ATOM      6  C   UNL     1      47.003   6.667  12.469  0.00  0.00    +0.000 A 
ATOM      7  C   UNL     1      45.919   6.372  11.600  0.00  0.00    +0.000 A 
ENDROOT
BRANCH   6   8
ATOM      8  C   UNL     1      47.937   7.776  12.104  0.00  0.00    +0.000 A 
ATOM      9  C   UNL     1      47.519   9.116  12.103  0.00  0.00    +0.000 A 
ATOM     10  C   UNL     1      48.398  10.118  11.721  0.00  0.00    +0.000 A 
ATOM     11  N   UNL     1      49.678   9.898  11.368  0.00  0.00    +0.000 NA
ATOM     12  C   UNL     1      50.111   8.609  11.368  0.00  0.00    +0.000 A 
ATOM     13  C   UNL     1      49.261   7.546  11.694  0.00  0.00    +0.000 A 
BRANCH  12  14
ATOM     14  C   UNL     1      51.561   8.297  11.017  0.00  0.00    +0.000 C 
ATOM     15  F   UNL     1      52.395   8.204  12.092  0.00  0.00    +0.000 F 
ATOM     16  F   UNL     1      51.692   7.117  10.343  0.00  0.00    +0.000 F 
ATOM     17  F   UNL     1      52.113   9.244  10.202  0.00  0.00    +0.000 F 
ENDBRANCH  12  14
ENDBRANCH   6   8
BRANCH   1  18
ATOM     18  C   UNL     1      43.852   5.081  10.883  0.00  0.00    +0.000 C 
BRANCH  18  19
ATOM     19  N   UNL     1      44.327   5.028   9.506  0.00  0.00    +0.000 N 
ATOM     20  H   UNL     1      44.809   5.866   9.196  0.00  0.00    +0.000 HD
BRANCH  19  25
ATOM     21  C   UNL     1      46.372   2.589   7.532  0.00  0.00    +0.000 A 
ATOM     22  C   UNL     1      45.953   1.431   8.163  0.00  0.00    +0.000 A 
ATOM     23  N   UNL     1      45.048   1.416   9.164  0.00  0.00    +0.000 NA
ATOM     24  C   UNL     1      44.542   2.617   9.545  0.00  0.00    +0.000 A 
ATOM     25  C   UNL     1      44.861   3.852   8.976  0.00  0.00    +0.000 A 
ATOM     26  C   UNL     1      45.826   3.811   7.964  0.00  0.00    +0.000 A 
BRANCH  21  28
ATOM     27  F   UNL     1      47.003   3.224   5.310  0.00  0.00    +0.000 F 
ATOM     28  C   UNL     1      47.374   2.531   6.421  0.00  0.00    +0.000 C 
ATOM     29  F   UNL     1      47.617   1.258   6.005  0.00  0.00    +0.000 F 
ATOM     30  F   UNL     1      48.583   3.040   6.789  0.00  0.00    +0.000 F 
ENDBRANCH  21  28
ENDBRANCH  19  25
ENDBRANCH  18  19
ENDBRANCH   1  18
TORSDOF 6
ENDMDL
MODEL 2
REMARK VINA RESULT:    -8.161      3.749      4.752
REMARK INTER + INTRA:         -12.183
REMARK INTER:                 -11.334
REMARK INTRA:                  -0.849
REMARK UNBOUND:                -1.159
REMARK  Name = 
REMARK  6 active torsions:
REMARK  status: ('A' for Active; 'I' for Inactive)
REMARK    1  A    between atoms: C_2  and  C_5
REMARK    2  A    between atoms: C_9  and  N_10
REMARK    3  A    between atoms: N_10  and  C_11
REMARK    4  A    between atoms: C_11  and  C_12
REMARK    5  A    between atoms: C_17  and  C_18
REMARK    6  A    between atoms: C_22  and  C_23
REMARK                            x       y       z     vdW  Elec       q    Type
REMARK                         _______ _______ _______ _____ _____    ______ ____
ROOT
ATOM      1  C   UNL     1      45.421   5.877  12.052  0.00  0.00    +0.000 A 
ATOM      2  C   UNL     1      46.092   6.683  11.133  0.00  0.00    +0.000 A 
ATOM      3  C   UNL     1      47.367   7.162  11.429  0.00  0.00    +0.000 A 
ATOM      4  C   UNL     1      47.993   6.836  12.642  0.00  0.00    +0.000 A 
ATOM      5 CL   UNL     1      49.641   7.365  12.779  0.00  0.00    +0.000 Cl
ATOM      6  C   UNL     1      47.328   6.076  13.631  0.00  0.00    +0.000 A 
ATOM      7  C   UNL     1      46.037   5.597  13.284  0.00  0.00    +0.000 A 
ENDROOT
BRANCH   6   8
ATOM      8  C   UNL     1      47.873   5.761  14.987  0.00  0.00    +0.000 A 
ATOM      9  C   UNL     1      48.605   6.709  15.720  0.00  0.00    +0.000 A 
ATOM     10  C   UNL     1      49.132   6.374  16.958  0.00  0.00    +0.000 A 
ATOM     11  N   UNL     1      48.960   5.175  17.546  0.00  0.00    +0.000 NA
ATOM     12  C   UNL     1      48.248   4.242  16.861  0.00  0.00    +0.000 A 
ATOM     13  C   UNL     1      47.733   4.498  15.585  0.00  0.00    +0.000 A 
BRANCH  12  14
ATOM     14  C   UNL     1      47.984   2.878  17.489  0.00  0.00    +0.000 C 
ATOM     15  F   UNL     1      46.664   2.556  17.606  0.00  0.00    +0.000 F 
ATOM     16  F   UNL     1      48.554   1.859  16.782  0.00  0.00    +0.000 F 
ATOM     17  F   UNL     1      48.502   2.780  18.750  0.00  0.00    +0.000 F 
ENDBRANCH  12  14
ENDBRANCH   6   8
BRANCH   1  18
ATOM     18  C   UNL     1      44.051   5.303  11.728  0.00  0.00    +0.000 C 
BRANCH  18  19
ATOM     19  N   UNL     1      43.884   5.175  10.286  0.00  0.00    +0.000 N 
ATOM     20  H   UNL     1      43.961   6.049   9.775  0.00  0.00    +0.000 HD
BRANCH  19  25
ATOM     21  C   UNL     1      45.848   3.031   7.926  0.00  0.00    +0.000 A 
ATOM     22  C   UNL     1      45.508   1.798   8.456  0.00  0.00    +0.000 A 
ATOM     23  N   UNL     1      44.678   1.646   9.509  0.00  0.00    +0.000 NA
ATOM     24  C   UNL     1      44.167   2.782  10.051  0.00  0.00    +0.000 A 
ATOM     25  C   UNL     1      44.410   4.081   9.597  0.00  0.00    +0.000 A 
ATOM     26  C   UNL     1      45.302   4.180   8.523  0.00  0.00    +0.000 A 
BRANCH  21  28
ATOM     27  F   UNL     1      46.438   2.293   5.724  0.00  0.00    +0.000 F 
ATOM     28  C   UNL     1      46.769   3.125   6.749  0.00  0.00    +0.000 C 
ATOM     29  F   UNL     1      48.058   2.828   7.071  0.00  0.00    +0.000 F 
ATOM     30  F   UNL     1      46.798   4.378   6.215  0.00  0.00    +0.000 F 
ENDBRANCH  21  28
ENDBRANCH  19  25
ENDBRANCH  18  19
ENDBRANCH   1  18
TORSDOF 6
ENDMDL
MODEL 3
REMARK VINA RESULT:    -8.058      1.743      2.515
REMARK INTER + INTRA:         -12.044
REMARK INTER:                 -11.195
REMARK INTRA:                  -0.849
REMARK UNBOUND:                -1.159
REMARK  Name = 
REMARK  6 active torsions:
REMARK  status: ('A' for Active; 'I' for Inactive)
REMARK    1  A    between atoms: C_2  and  C_5
REMARK    2  A    between atoms: C_9  and  N_10
REMARK    3  A    between atoms: N_10  and  C_11
REMARK    4  A    between atoms: C_11  and  C_12
REMARK    5  A    between atoms: C_17  and  C_18
REMARK    6  A    between atoms: C_22  and  C_23
REMARK                            x       y       z     vdW  Elec       q    Type
REMARK                         _______ _______ _______ _____ _____    ______ ____
ROOT
ATOM      1  C   UNL     1      44.571   4.429  12.248  0.00  0.00    +0.000 A 
ATOM      2  C   UNL     1      43.529   5.341  12.086  0.00  0.00    +0.000 A 
ATOM      3  C   UNL     1      43.777   6.708  12.204  0.00  0.00    +0.000 A 
ATOM      4  C   UNL     1      45.070   7.183  12.474  0.00  0.00    +0.000 A 
ATOM      5 CL   UNL     1      45.241   8.910  12.414  0.00  0.00    +0.000 Cl
ATOM      6  C   UNL     1      46.144   6.296  12.709  0.00  0.00    +0.000 A 
ATOM      7  C   UNL     1      45.852   4.913  12.568  0.00  0.00    +0.000 A 
ENDROOT
BRANCH   6   8
ATOM      8  C   UNL     1      47.529   6.703  13.099  0.00  0.00    +0.000 A 
ATOM      9  C   UNL     1      47.986   6.572  14.420  0.00  0.00    +0.000 A 
ATOM     10  C   UNL     1      49.262   6.996  14.760  0.00  0.00    +0.000 A 
ATOM     11  N   UNL     1      50.139   7.513  13.878  0.00  0.00    +0.000 NA
ATOM     12  C   UNL     1      49.724   7.643  12.591  0.00  0.00    +0.000 A 
ATOM     13  C   UNL     1      48.431   7.283  12.192  0.00  0.00    +0.000 A 
BRANCH  12  14
ATOM     14  C   UNL     1      50.683   8.185  11.537  0.00  0.00    +0.000 C 
ATOM     15  F   UNL     1      50.404   9.452  11.116  0.00  0.00    +0.000 F 
ATOM     16  F   UNL     1      51.976   8.216  11.974  0.00  0.00    +0.000 F 
ATOM     17  F   UNL     1      50.700   7.415  10.408  0.00  0.00    +0.000 F 
ENDBRANCH  12  14
ENDBRANCH   6   8
BRANCH   1  18
ATOM     18  C   UNL     1      44.333   2.938  12.075  0.00  0.00    +0.000 C 
BRANCH  18  19
ATOM     19  N   UNL     1      43.897   2.649  10.715  0.00  0.00    +0.000 N 
ATOM     20  H   UNL     1      42.926   2.880  10.528  0.00  0.00    +0.000 HD
BRANCH  19  25
ATOM     21  C   UNL     1      46.250   2.175   7.840  0.00  0.00    +0.000 A 
ATOM     22  C   UNL     1      46.230   3.473   7.358  0.00  0.00    +0.000 A 
ATOM     23  N   UNL     1      45.514   4.465   7.927  0.00  0.00    +0.000 NA
ATOM     24  C   UNL     1      44.789   4.139   9.027  0.00  0.00    +0.000 A 
ATOM     25  C   UNL     1      44.741   2.878   9.626  0.00  0.00    +0.000 A 
ATOM     26  C   UNL     1      45.477   1.881   8.977  0.00  0.00    +0.000 A 
BRANCH  21  28
ATOM     27  F   UNL     1      48.413   1.370   7.199  0.00  0.00    +0.000 F 
ATOM     28  C   UNL     1      47.075   1.125   7.163  0.00  0.00    +0.000 C 
ATOM     29  F   UNL     1      46.755   0.979   5.848  0.00  0.00    +0.000 F 
ATOM     30  F   UNL     1      46.907  -0.105   7.725  0.00  0.00    +0.000 F 
ENDBRANCH  21  28
ENDBRANCH  19  25
ENDBRANCH  18  19
ENDBRANCH   1  18
TORSDOF 6
ENDMDL
MODEL 4
REMARK VINA RESULT:    -7.740      3.468      4.706
REMARK INTER + INTRA:         -11.615
REMARK INTER:                 -10.790
REMARK INTRA:                  -0.825
REMARK UNBOUND:                -1.159
REMARK  Name = 
REMARK  6 active torsions:
REMARK  status: ('A' for Active; 'I' for Inactive)
REMARK    1  A    between atoms: C_2  and  C_5
REMARK    2  A    between atoms: C_9  and  N_10
REMARK    3  A    between atoms: N_10  and  C_11
REMARK    4  A    between atoms: C_11  and  C_12
REMARK    5  A    between atoms: C_17  and  C_18
REMARK    6  A    between atoms: C_22  and  C_23
REMARK                            x       y       z     vdW  Elec       q    Type
REMARK                         _______ _______ _______ _____ _____    ______ ____
ROOT
ATOM      1  C   UNL     1      45.818   6.019  12.035  0.00  0.00    +0.000 A 
ATOM      2  C   UNL     1      46.622   7.012  11.476  0.00  0.00    +0.000 A 
ATOM      3  C   UNL     1      47.809   7.383  12.106  0.00  0.00    +0.000 A 
ATOM      4  C   UNL     1      48.215   6.759  13.296  0.00  0.00    +0.000 A 
ATOM      5 CL   UNL     1      49.797   7.210  13.854  0.00  0.00    +0.000 Cl
ATOM      6  C   UNL     1      47.405   5.793  13.933  0.00  0.00    +0.000 A 
ATOM      7  C   UNL     1      46.210   5.436  13.253  0.00  0.00    +0.000 A 
ENDROOT
BRANCH   6   8
ATOM      8  C   UNL     1      47.705   5.148  15.248  0.00  0.00    +0.000 A 
ATOM      9  C   UNL     1      47.326   3.823  15.518  0.00  0.00    +0.000 A 
ATOM     10  C   UNL     1      47.583   3.266  16.761  0.00  0.00    +0.000 A 
ATOM     11  N   UNL     1      48.221   3.913  17.755  0.00  0.00    +0.000 NA
ATOM     12  C   UNL     1      48.606   5.194  17.517  0.00  0.00    +0.000 A 
ATOM     13  C   UNL     1      48.332   5.833  16.302  0.00  0.00    +0.000 A 
BRANCH  12  14
ATOM     14  C   UNL     1      49.368   5.968  18.587  0.00  0.00    +0.000 C 
ATOM     15  F   UNL     1      50.172   5.199  19.374  0.00  0.00    +0.000 F 
ATOM     16  F   UNL     1      50.177   6.931  18.057  0.00  0.00    +0.000 F 
ATOM     17  F   UNL     1      48.532   6.627  19.443  0.00  0.00    +0.000 F 
ENDBRANCH  12  14
ENDBRANCH   6   8
BRANCH   1  18
ATOM     18  C   UNL     1      44.545   5.565  11.339  0.00  0.00    +0.000 C 
BRANCH  18  19
ATOM     19  N   UNL     1      44.768   5.445   9.904  0.00  0.00    +0.000 N 
ATOM     20  H   UNL     1      45.310   6.202   9.498  0.00  0.00    +0.000 HD
BRANCH  19  25
ATOM     21  C   UNL     1      46.176   2.711   7.766  0.00  0.00    +0.000 A 
ATOM     22  C   UNL     1      45.564   1.640   8.394  0.00  0.00    +0.000 A 
ATOM     23  N   UNL     1      44.725   1.774   9.443  0.00  0.00    +0.000 NA
ATOM     24  C   UNL     1      44.492   3.040   9.877  0.00  0.00    +0.000 A 
ATOM     25  C   UNL     1      45.026   4.204   9.319  0.00  0.00    +0.000 A 
ATOM     26  C   UNL     1      45.912   4.002   8.255  0.00  0.00    +0.000 A 
BRANCH  21  28
ATOM     27  F   UNL     1      48.387   2.812   6.850  0.00  0.00    +0.000 F 
ATOM     28  C   UNL     1      47.090   2.489   6.600  0.00  0.00    +0.000 C 
ATOM     29  F   UNL     1      46.725   3.215   5.508  0.00  0.00    +0.000 F 
ATOM     30  F   UNL     1      47.102   1.188   6.195  0.00  0.00    +0.000 F 
ENDBRANCH  21  28
ENDBRANCH  19  25
ENDBRANCH  18  19
ENDBRANCH   1  18
TORSDOF 6
ENDMDL
MODEL 5
REMARK VINA RESULT:    -7.545      4.320      8.212
REMARK INTER + INTRA:         -11.351
REMARK INTER:                 -10.074
REMARK INTRA:                  -1.277
REMARK UNBOUND:                -1.159
REMARK  Name = 
REMARK  6 active torsions:
REMARK  status: ('A' for Active; 'I' for Inactive)
REMARK    1  A    between atoms: C_2  and  C_5
REMARK    2  A    between atoms: C_9  and  N_10
REMARK    3  A    between atoms: N_10  and  C_11
REMARK    4  A    between atoms: C_11  and  C_12
REMARK    5  A    between atoms: C_17  and  C_18
REMARK    6  A    between atoms: C_22  and  C_23
REMARK                            x       y       z     vdW  Elec       q    Type
REMARK                         _______ _______ _______ _____ _____    ______ ____
ROOT
ATOM      1  C   UNL     1      47.819   7.484  13.306  0.00  0.00    +0.000 A 
ATOM      2  C   UNL     1      47.438   8.763  12.902  0.00  0.00    +0.000 A 
ATOM      3  C   UNL     1      46.248   8.945  12.199  0.00  0.00    +0.000 A 
ATOM      4  C   UNL     1      45.418   7.855  11.899  0.00  0.00    +0.000 A 
ATOM      5 CL   UNL     1      43.894   8.273  11.177  0.00  0.00    +0.000 Cl
ATOM      6  C   UNL     1      45.791   6.533  12.231  0.00  0.00    +0.000 A 
ATOM      7  C   UNL     1      47.003   6.393  12.957  0.00  0.00    +0.000 A 
ENDROOT
BRANCH   6   8
ATOM      8  C   UNL     1      45.022   5.303  11.868  0.00  0.00    +0.000 A 
ATOM      9  C   UNL     1      44.033   4.780  12.716  0.00  0.00    +0.000 A 
ATOM     10  C   UNL     1      43.365   3.615  12.370  0.00  0.00    +0.000 A 
ATOM     11  N   UNL     1      43.580   2.941  11.224  0.00  0.00    +0.000 NA
ATOM     12  C   UNL     1      44.527   3.430  10.381  0.00  0.00    +0.000 A 
ATOM     13  C   UNL     1      45.273   4.573  10.695  0.00  0.00    +0.000 A 
BRANCH  12  14
ATOM     14  C   UNL     1      44.789   2.736   9.050  0.00  0.00    +0.000 C 
ATOM     15  F   UNL     1      46.109   2.549   8.761  0.00  0.00    +0.000 F 
ATOM     16  F   UNL     1      44.216   1.498   8.986  0.00  0.00    +0.000 F 
ATOM     17  F   UNL     1      44.274   3.430   7.993  0.00  0.00    +0.000 F 
ENDBRANCH  12  14
ENDBRANCH   6   8
BRANCH   1  18
ATOM     18  C   UNL     1      49.087   7.269  14.116  0.00  0.00    +0.000 C 
BRANCH  18  19
ATOM     19  N   UNL     1      48.872   7.657  15.504  0.00  0.00    +0.000 N 
ATOM     20  H   UNL     1      48.324   8.503  15.623  0.00  0.00    +0.000 HD
BRANCH  19  25
ATOM     21  C   UNL     1      48.296   4.415  17.287  0.00  0.00    +0.000 A 
ATOM     22  C   UNL     1      48.348   4.896  18.584  0.00  0.00    +0.000 A 
ATOM     23  N   UNL     1      48.542   6.196  18.887  0.00  0.00    +0.000 NA
ATOM     24  C   UNL     1      48.688   7.049  17.840  0.00  0.00    +0.000 A 
ATOM     25  C   UNL     1      48.633   6.698  16.489  0.00  0.00    +0.000 A 
ATOM     26  C   UNL     1      48.460   5.332  16.235  0.00  0.00    +0.000 A 
BRANCH  21  28
ATOM     27  F   UNL     1      49.122   2.167  17.362  0.00  0.00    +0.000 F 
ATOM     28  C   UNL     1      48.068   2.958  17.024  0.00  0.00    +0.000 C 
ATOM     29  F   UNL     1      47.811   2.700  15.712  0.00  0.00    +0.000 F 
ATOM     30  F   UNL     1      47.001   2.470  17.715  0.00  0.00    +0.000 F 
ENDBRANCH  21  28
ENDBRANCH  19  25
ENDBRANCH  18  19
ENDBRANCH   1  18
TORSDOF 6
ENDMDL
MODEL 6
REMARK VINA RESULT:    -7.288      4.339      8.391
REMARK INTER + INTRA:         -11.004
REMARK INTER:                  -9.989
REMARK INTRA:                  -1.015
REMARK UNBOUND:                -1.159
REMARK  Name = 
REMARK  6 active torsions:
REMARK  status: ('A' for Active; 'I' for Inactive)
REMARK    1  A    between atoms: C_2  and  C_5
REMARK    2  A    between atoms: C_9  and  N_10
REMARK    3  A    between atoms: N_10  and  C_11
REMARK    4  A    between atoms: C_11  and  C_12
REMARK    5  A    between atoms: C_17  and  C_18
REMARK    6  A    between atoms: C_22  and  C_23
REMARK                            x       y       z     vdW  Elec       q    Type
REMARK                         _______ _______ _______ _____ _____    ______ ____
ROOT
ATOM      1  C   UNL     1      47.635   7.547  13.751  0.00  0.00    +0.000 A 
ATOM      2  C   UNL     1      47.374   8.848  13.324  0.00  0.00    +0.000 A 
ATOM      3  C   UNL     1      46.294   9.100  12.479  0.00  0.00    +0.000 A 
ATOM      4  C   UNL     1      45.454   8.058  12.058  0.00  0.00    +0.000 A 
ATOM      5 CL   UNL     1      44.059   8.563  11.155  0.00  0.00    +0.000 Cl
ATOM      6  C   UNL     1      45.715   6.715  12.412  0.00  0.00    +0.000 A 
ATOM      7  C   UNL     1      46.816   6.504  13.283  0.00  0.00    +0.000 A 
ENDROOT
BRANCH   6   8
ATOM      8  C   UNL     1      44.937   5.530  11.934  0.00  0.00    +0.000 A 
ATOM      9  C   UNL     1      43.941   4.939  12.726  0.00  0.00    +0.000 A 
ATOM     10  C   UNL     1      43.266   3.817  12.271  0.00  0.00    +0.000 A 
ATOM     11  N   UNL     1      43.479   3.250  11.069  0.00  0.00    +0.000 NA
ATOM     12  C   UNL     1      44.433   3.809  10.278  0.00  0.00    +0.000 A 
ATOM     13  C   UNL     1      45.187   4.911  10.698  0.00  0.00    +0.000 A 
BRANCH  12  14
ATOM     14  C   UNL     1      44.695   3.239   8.888  0.00  0.00    +0.000 C 
ATOM     15  F   UNL     1      44.261   4.027   7.864  0.00  0.00    +0.000 F 
ATOM     16  F   UNL     1      46.022   3.023   8.655  0.00  0.00    +0.000 F 
ATOM     17  F   UNL     1      44.092   2.026   8.704  0.00  0.00    +0.000 F 
ENDBRANCH  12  14
ENDBRANCH   6   8
BRANCH   1  18
ATOM     18  C   UNL     1      48.776   7.258  14.712  0.00  0.00    +0.000 C 
BRANCH  18  19
ATOM     19  N   UNL     1      48.259   6.742  15.973  0.00  0.00    +0.000 N 
ATOM     20  H   UNL     1      47.280   6.952  16.142  0.00  0.00    +0.000 HD
BRANCH  19  25
ATOM     21  C   UNL     1      50.193   3.943  17.537  0.00  0.00    +0.000 A 
ATOM     22  C   UNL     1      49.195   2.984  17.519  0.00  0.00    +0.000 A 
ATOM     23  N   UNL     1      47.961   3.206  17.019  0.00  0.00    +0.000 NA
ATOM     24  C   UNL     1      47.723   4.444  16.513  0.00  0.00    +0.000 A 
ATOM     25  C   UNL     1      48.648   5.489  16.449  0.00  0.00    +0.000 A 
ATOM     26  C   UNL     1      49.899   5.212  17.011  0.00  0.00    +0.000 A 
BRANCH  21  28
ATOM     27  F   UNL     1      51.846   2.298  18.086  0.00  0.00    +0.000 F 
ATOM     28  C   UNL     1      51.544   3.624  18.101  0.00  0.00    +0.000 C 
ATOM     29  F   UNL     1      51.674   4.024  19.396  0.00  0.00    +0.000 F 
ATOM     30  F   UNL     1      52.547   4.242  17.418  0.00  0.00    +0.000 F 
ENDBRANCH  21  28
ENDBRANCH  19  25
ENDBRANCH  18  19
ENDBRANCH   1  18
TORSDOF 6
ENDMDL
MODEL 7
REMARK VINA RESULT:    -7.052      5.167      8.990
REMARK INTER + INTRA:         -10.685
REMARK INTER:                  -9.763
REMARK INTRA:                  -0.922
REMARK UNBOUND:                -1.159
REMARK  Name = 
REMARK  6 active torsions:
REMARK  status: ('A' for Active; 'I' for Inactive)
REMARK    1  A    between atoms: C_2  and  C_5
REMARK    2  A    between atoms: C_9  and  N_10
REMARK    3  A    between atoms: N_10  and  C_11
REMARK    4  A    between atoms: C_11  and  C_12
REMARK    5  A    between atoms: C_17  and  C_18
REMARK    6  A    between atoms: C_22  and  C_23
REMARK                            x       y       z     vdW  Elec       q    Type
REMARK                         _______ _______ _______ _____ _____    ______ ____
ROOT
ATOM      1  C   UNL     1      47.520   4.756  15.407  0.00  0.00    +0.000 A 
ATOM      2  C   UNL     1      48.296   5.885  15.148  0.00  0.00    +0.000 A 
ATOM      3  C   UNL     1      48.038   6.663  14.020  0.00  0.00    +0.000 A 
ATOM      4  C   UNL     1      46.996   6.330  13.142  0.00  0.00    +0.000 A 
ATOM      5 CL   UNL     1      46.695   7.495  11.889  0.00  0.00    +0.000 Cl
ATOM      6  C   UNL     1      46.223   5.161  13.327  0.00  0.00    +0.000 A 
ATOM      7  C   UNL     1      46.511   4.404  14.494  0.00  0.00    +0.000 A 
ENDROOT
BRANCH   6   8
ATOM      8  C   UNL     1      45.161   4.673  12.395  0.00  0.00    +0.000 A 
ATOM      9  C   UNL     1      43.812   5.013  12.580  0.00  0.00    +0.000 A 
ATOM     10  C   UNL     1      42.845   4.512  11.721  0.00  0.00    +0.000 A 
ATOM     11  N   UNL     1      43.117   3.720  10.667  0.00  0.00    +0.000 NA
ATOM     12  C   UNL     1      44.417   3.383  10.461  0.00  0.00    +0.000 A 
ATOM     13  C   UNL     1      45.436   3.813  11.319  0.00  0.00    +0.000 A 
BRANCH  12  14
ATOM     14  C   UNL     1      44.796   2.522   9.261  0.00  0.00    +0.000 C 
ATOM     15  F   UNL     1      46.127   2.244   9.163  0.00  0.00    +0.000 F 
ATOM     16  F   UNL     1      44.163   1.312   9.266  0.00  0.00    +0.000 F 
ATOM     17  F   UNL     1      44.452   3.107   8.075  0.00  0.00    +0.000 F 
ENDBRANCH  12  14
ENDBRANCH   6   8
BRANCH   1  18
ATOM     18  C   UNL     1      47.752   3.923  16.657  0.00  0.00    +0.000 C 
BRANCH  18  19
ATOM     19  N   UNL     1      48.987   4.331  17.315  0.00  0.00    +0.000 N 
ATOM     20  H   UNL     1      48.850   4.880  18.159  0.00  0.00    +0.000 HD
BRANCH  19  25
ATOM     21  C   UNL     1      52.345   2.854  18.067  0.00  0.00    +0.000 A 
ATOM     22  C   UNL     1      52.099   1.571  17.608  0.00  0.00    +0.000 A 
ATOM     23  N   UNL     1      50.923   1.189  17.067  0.00  0.00    +0.000 NA
ATOM     24  C   UNL     1      49.955   2.138  16.983  0.00  0.00    +0.000 A 
ATOM     25  C   UNL     1      50.082   3.469  17.386  0.00  0.00    +0.000 A 
ATOM     26  C   UNL     1      51.311   3.801  17.967  0.00  0.00    +0.000 A 
BRANCH  21  28
ATOM     27  F   UNL     1      53.771   4.507  19.054  0.00  0.00    +0.000 F 
ATOM     28  C   UNL     1      53.678   3.212  18.648  0.00  0.00    +0.000 C 
ATOM     29  F   UNL     1      54.698   3.020  17.767  0.00  0.00    +0.000 F 
ATOM     30  F   UNL     1      53.984   2.458  19.741  0.00  0.00    +0.000 F 
ENDBRANCH  21  28
ENDBRANCH  19  25
ENDBRANCH  18  19
ENDBRANCH   1  18
TORSDOF 6
ENDMDL
MODEL 8
REMARK VINA RESULT:    -7.051      2.524      3.815
REMARK INTER + INTRA:         -10.683
REMARK INTER:                  -9.548
REMARK INTRA:                  -1.135
REMARK UNBOUND:                -1.159
REMARK  Name = 
REMARK  6 active torsions:
REMARK  status: ('A' for Active; 'I' for Inactive)
REMARK    1  A    between atoms: C_2  and  C_5
REMARK    2  A    between atoms: C_9  and  N_10
REMARK    3  A    between atoms: N_10  and  C_11
REMARK    4  A    between atoms: C_11  and  C_12
REMARK    5  A    between atoms: C_17  and  C_18
REMARK    6  A    between atoms: C_22  and  C_23
REMARK                            x       y       z     vdW  Elec       q    Type
REMARK                         _______ _______ _______ _____ _____    ______ ____
ROOT
ATOM      1  C   UNL     1      47.486   6.844  13.100  0.00  0.00    +0.000 A 
ATOM      2  C   UNL     1      46.640   7.941  12.943  0.00  0.00    +0.000 A 
ATOM      3  C   UNL     1      47.110   9.098  12.322  0.00  0.00    +0.000 A 
ATOM      4  C   UNL     1      48.426   9.171  11.842  0.00  0.00    +0.000 A 
ATOM      5 CL   UNL     1      48.797  10.609  10.941  0.00  0.00    +0.000 Cl
ATOM      6  C   UNL     1      49.339   8.109  12.034  0.00  0.00    +0.000 A 
ATOM      7  C   UNL     1      48.817   6.946  12.659  0.00  0.00    +0.000 A 
ENDROOT
BRANCH   6   8
ATOM      8  C   UNL     1      50.783   8.132  11.647  0.00  0.00    +0.000 A 
ATOM      9  C   UNL     1      51.719   8.901  12.356  0.00  0.00    +0.000 A 
ATOM     10  C   UNL     1      53.044   8.934  11.948  0.00  0.00    +0.000 A 
ATOM     11  N   UNL     1      53.524   8.232  10.903  0.00  0.00    +0.000 NA
ATOM     12  C   UNL     1      52.639   7.473  10.204  0.00  0.00    +0.000 A 
ATOM     13  C   UNL     1      51.279   7.436  10.532  0.00  0.00    +0.000 A 
BRANCH  12  14
ATOM     14  C   UNL     1      53.127   6.624   9.036  0.00  0.00    +0.000 C 
ATOM     15  F   UNL     1      54.305   7.038   8.490  0.00  0.00    +0.000 F 
ATOM     16  F   UNL     1      53.318   5.318   9.384  0.00  0.00    +0.000 F 
ATOM     17  F   UNL     1      52.230   6.597   8.005  0.00  0.00    +0.000 F 
ENDBRANCH  12  14
ENDBRANCH   6   8
BRANCH   1  18
ATOM     18  C   UNL     1      46.979   5.556  13.729  0.00  0.00    +0.000 C 
BRANCH  18  19
ATOM     19  N   UNL     1      45.532   5.460  13.591  0.00  0.00    +0.000 N 
ATOM     20  H   UNL     1      45.032   6.316  13.813  0.00  0.00    +0.000 HD
BRANCH  19  25
ATOM     21  C   UNL     1      44.823   3.957  10.235  0.00  0.00    +0.000 A 
ATOM     22  C   UNL     1      43.812   3.093  10.620  0.00  0.00    +0.000 A 
ATOM     23  N   UNL     1      43.360   2.997  11.888  0.00  0.00    +0.000 NA
ATOM     24  C   UNL     1      43.947   3.807  12.806  0.00  0.00    +0.000 A 
ATOM     25  C   UNL     1      44.956   4.737  12.545  0.00  0.00    +0.000 A 
ATOM     26  C   UNL     1      45.407   4.771  11.221  0.00  0.00    +0.000 A 
BRANCH  21  28
ATOM     27  F   UNL     1      45.961   2.918   8.401  0.00  0.00    +0.000 F 
ATOM     28  C   UNL     1      45.270   4.017   8.807  0.00  0.00    +0.000 C 
ATOM     29  F   UNL     1      46.080   5.083   8.560  0.00  0.00    +0.000 F 
ATOM     30  F   UNL     1      44.223   4.138   7.944  0.00  0.00    +0.000 F 
ENDBRANCH  21  28
ENDBRANCH  19  25
ENDBRANCH  18  19
ENDBRANCH   1  18
TORSDOF 6
ENDMDL
MODEL 9
REMARK VINA RESULT:    -7.008      4.634      8.791
REMARK INTER + INTRA:         -10.625
REMARK INTER:                  -9.659
REMARK INTRA:                  -0.967
REMARK UNBOUND:                -1.159
REMARK  Name = 
REMARK  6 active torsions:
REMARK  status: ('A' for Active; 'I' for Inactive)
REMARK    1  A    between atoms: C_2  and  C_5
REMARK    2  A    between atoms: C_9  and  N_10
REMARK    3  A    between atoms: N_10  and  C_11
REMARK    4  A    between atoms: C_11  and  C_12
REMARK    5  A    between atoms: C_17  and  C_18
REMARK    6  A    between atoms: C_22  and  C_23
REMARK                            x       y       z     vdW  Elec       q    Type
REMARK                         _______ _______ _______ _____ _____    ______ ____
ROOT
ATOM      1  C   UNL     1      47.529   7.338  13.512  0.00  0.00    +0.000 A 
ATOM      2  C   UNL     1      47.117   8.652  13.293  0.00  0.00    +0.000 A 
ATOM      3  C   UNL     1      45.985   8.907  12.521  0.00  0.00    +0.000 A 
ATOM      4  C   UNL     1      45.242   7.853  11.967  0.00  0.00    +0.000 A 
ATOM      5 CL   UNL     1      43.767   8.331  11.184  0.00  0.00    +0.000 Cl
ATOM      6  C   UNL     1      45.655   6.509  12.108  0.00  0.00    +0.000 A 
ATOM      7  C   UNL     1      46.806   6.293  12.911  0.00  0.00    +0.000 A 
ENDROOT
BRANCH   6   8
ATOM      8  C   UNL     1      44.987   5.331  11.474  0.00  0.00    +0.000 A 
ATOM      9  C   UNL     1      43.870   4.718  12.062  0.00  0.00    +0.000 A 
ATOM     10  C   UNL     1      43.297   3.602  11.471  0.00  0.00    +0.000 A 
ATOM     11  N   UNL     1      43.729   3.062  10.315  0.00  0.00    +0.000 NA
ATOM     12  C   UNL     1      44.804   3.642   9.720  0.00  0.00    +0.000 A 
ATOM     13  C   UNL     1      45.461   4.739  10.291  0.00  0.00    +0.000 A 
BRANCH  12  14
ATOM     14  C   UNL     1      45.317   3.103   8.390  0.00  0.00    +0.000 C 
ATOM     15  F   UNL     1      46.534   3.590   8.014  0.00  0.00    +0.000 F 
ATOM     16  F   UNL     1      45.446   1.744   8.392  0.00  0.00    +0.000 F 
ATOM     17  F   UNL     1      44.470   3.385   7.356  0.00  0.00    +0.000 F 
ENDBRANCH  12  14
ENDBRANCH   6   8
BRANCH   1  18
ATOM     18  C   UNL     1      48.731   7.036  14.392  0.00  0.00    +0.000 C 
BRANCH  18  19
ATOM     19  N   UNL     1      48.365   7.126  15.799  0.00  0.00    +0.000 N 
ATOM     20  H   UNL     1      47.593   7.757  15.992  0.00  0.00    +0.000 HD
BRANCH  19  25
ATOM     21  C   UNL     1      48.661   4.835  18.747  0.00  0.00    +0.000 A 
ATOM     22  C   UNL     1      48.160   3.689  18.152  0.00  0.00    +0.000 A 
ATOM     23  N   UNL     1      47.758   3.636  16.865  0.00  0.00    +0.000 NA
ATOM     24  C   UNL     1      47.866   4.783  16.146  0.00  0.00    +0.000 A 
ATOM     25  C   UNL     1      48.375   5.995  16.617  0.00  0.00    +0.000 A 
ATOM     26  C   UNL     1      48.747   6.001  17.966  0.00  0.00    +0.000 A 
BRANCH  21  28
ATOM     27  F   UNL     1      50.442   4.697  20.342  0.00  0.00    +0.000 F 
ATOM     28  C   UNL     1      49.097   4.820  20.179  0.00  0.00    +0.000 C 
ATOM     29  F   UNL     1      48.539   3.797  20.883  0.00  0.00    +0.000 F 
ATOM     30  F   UNL     1      48.746   5.959  20.838  0.00  0.00    +0.000 F 
ENDBRANCH  21  28
ENDBRANCH  19  25
ENDBRANCH  18  19
ENDBRANCH   1  18
TORSDOF 6
ENDMDL
