MODEL 1
REMARK VINA RESULT:    -7.688      0.000      0.000
REMARK INTER + INTRA:         -11.682
REMARK INTER:                 -10.609
REMARK INTRA:                  -1.073
REMARK UNBOUND:                -1.073
REMARK  Name = 
REMARK  7 active torsions:
REMARK  status: ('A' for Active; 'I' for Inactive)
REMARK    1  A    between atoms: C_2  and  C_19
REMARK    2  A    between atoms: N_3  and  C_4
REMARK    3  A    between atoms: C_4  and  C_5
REMARK    4  A    between atoms: C_8  and  C_9
REMARK    5  A    between atoms: C_9  and  O_10
REMARK    6  A    between atoms: C_9  and  C_11
REMARK    7  A    between atoms: C_11  and  C_12
REMARK                            x       y       z     vdW  Elec       q    Type
REMARK                         _______ _______ _______ _____ _____    ______ ____
ROOT
ATOM      1  C   UNL     1      47.098   7.398  13.236  0.00  0.00    +0.000 C 
ENDROOT
BRANCH   1   2
ATOM      2  C   UNL     1      46.408   6.412  12.332  0.00  0.00    +0.000 A 
ATOM      3  C   UNL     1      46.376   6.621  10.948  0.00  0.00    +0.000 A 
ATOM      4  C   UNL     1      45.741   5.707  10.104  0.00  0.00    +0.000 A 
ATOM      5  C   UNL     1      45.110   4.570  10.627  0.00  0.00    +0.000 A 
ATOM      6  C   UNL     1      45.122   4.380  12.019  0.00  0.00    +0.000 A 
ATOM      7  C   UNL     1      45.758   5.293  12.862  0.00  0.00    +0.000 A 
BRANCH   5   8
ATOM      8  C   UNL     1      44.447   3.573   9.695  0.00  0.00    +0.000 C 
BRANCH   8   9
ATOM      9  O   UNL     1      43.723   4.294   8.707  0.00  0.00    +0.000 OA
ATOM     10  H   UNL     1      42.836   4.475   9.060  0.00  0.00    +0.000 HD
ENDBRANCH   8   9
BRANCH   8  11
ATOM     11  C   UNL     1      45.471   2.615   9.062  0.00  0.00    +0.000 C 
BRANCH  11  12
ATOM     12  C   UNL     1      45.729   2.816   7.553  0.00  0.00    +0.000 C 
ATOM     13  C   UNL     1      46.310   1.536   6.948  0.00  0.00    +0.000 C 
ATOM     14  C   UNL     1      47.803   1.727   7.106  0.00  0.00    +0.000 C 
ATOM     15  N   UNL     1      48.010   3.134   6.766  0.00  0.00    +0.000 NA
ATOM     16  C   UNL     1      46.809   3.857   7.222  0.00  0.00    +0.000 C 
ATOM     17  H   UNL     1      48.065   3.222   5.750  0.00  0.00    +0.000 HD
ENDBRANCH  11  12
ENDBRANCH   8  11
ENDBRANCH   5   8
ENDBRANCH   1   2
BRANCH   1  20
ATOM     18  O   UNL     1      49.701   6.935  14.194  0.00  0.00    +0.000 OA
ATOM     19  C   UNL     1      48.743   6.659  14.912  0.00  0.00    +0.000 C 
ATOM     20  N   UNL     1      47.445   6.787  14.492  0.00  0.00    +0.000 N 
ATOM     21  H   UNL     1      46.699   6.729  15.175  0.00  0.00    +0.000 HD
BRANCH  19  22
ATOM     22  C   UNL     1      48.933   6.119  16.263  0.00  0.00    +0.000 A 
ATOM     23  C   UNL     1      49.631   6.860  17.209  0.00  0.00    +0.000 A 
ATOM     24  S   UNL     1      49.761   6.083  18.722  0.00  0.00    +0.000 S 
ATOM     25  C   UNL     1      48.852   4.751  18.179  0.00  0.00    +0.000 A 
ATOM     26  N   UNL     1      48.559   3.719  19.014  0.00  0.00    +0.000 NA
ATOM     27  C   UNL     1      47.824   2.798  18.485  0.00  0.00    +0.000 A 
ATOM     28  N   UNL     1      47.369   2.808  17.192  0.00  0.00    +0.000 N 
ATOM     29  C   UNL     1      47.713   3.785  16.287  0.00  0.00    +0.000 A 
ATOM     30  O   UNL     1      47.411   3.684  15.103  0.00  0.00    +0.000 OA
ATOM     31  C   UNL     1      48.486   4.878  16.850  0.00  0.00    +0.000 A 
ATOM     32  H   UNL     1      46.829   2.038  16.829  0.00  0.00    +0.000 HD
ENDBRANCH  19  22
ENDBRANCH   1  20
TORSDOF 7
ENDMDL
MODEL 2
REMARK VINA RESULT:    -7.149      2.270      3.865
REMARK INTER + INTRA:         -10.940
REMARK INTER:                  -9.777
REMARK INTRA:                  -1.163
REMARK UNBOUND:                -1.073
REMARK  Name = 
REMARK  7 active torsions:
REMARK  status: ('A' for Active; 'I' for Inactive)
REMARK    1  A    between atoms: C_2  and  C_19
REMARK    2  A    between atoms: N_3  and  C_4
REMARK    3  A    between atoms: C_4  and  C_5
REMARK    4  A    between atoms: C_8  and  C_9
REMARK    5  A    between atoms: C_9  and  O_10
REMARK    6  A    between atoms: C_9  and  C_11
REMARK    7  A    between atoms: C_11  and  C_12
REMARK                            x       y       z     vdW  Elec       q    Type
REMARK                         _______ _______ _______ _____ _____    ______ ____
ROOT
ATOM      1  C   UNL     1      46.399   4.776  14.358  0.00  0.00    +0.000 C 
ENDROOT
BRANCH   1   2
ATOM      2  C   UNL     1      45.953   4.514  12.945  0.00  0.00    +0.000 A 
ATOM      3  C   UNL     1      45.910   5.555  12.010  0.00  0.00    +0.000 A 
ATOM      4  C   UNL     1      45.501   5.317  10.696  0.00  0.00    +0.000 A 
ATOM      5  C   UNL     1      45.109   4.034  10.291  0.00  0.00    +0.000 A 
ATOM      6  C   UNL     1      45.128   2.998  11.241  0.00  0.00    +0.000 A 
ATOM      7  C   UNL     1      45.538   3.236  12.554  0.00  0.00    +0.000 A 
BRANCH   5   8
ATOM      8  C   UNL     1      44.692   3.785   8.854  0.00  0.00    +0.000 C 
BRANCH   8   9
ATOM      9  O   UNL     1      43.640   4.686   8.529  0.00  0.00    +0.000 OA
ATOM     10  H   UNL     1      43.954   5.588   8.710  0.00  0.00    +0.000 HD
ENDBRANCH   8   9
BRANCH   8  11
ATOM     11  C   UNL     1      45.878   3.922   7.883  0.00  0.00    +0.000 C 
BRANCH  11  12
ATOM     12  C   UNL     1      45.980   2.831   6.797  0.00  0.00    +0.000 C 
ATOM     13  C   UNL     1      46.837   1.668   7.304  0.00  0.00    +0.000 C 
ATOM     14  C   UNL     1      48.235   2.058   6.874  0.00  0.00    +0.000 C 
ATOM     15  N   UNL     1      48.044   2.600   5.529  0.00  0.00    +0.000 NA
ATOM     16  C   UNL     1      46.726   3.261   5.526  0.00  0.00    +0.000 C 
ATOM     17  H   UNL     1      48.012   1.826   4.864  0.00  0.00    +0.000 HD
ENDBRANCH  11  12
ENDBRANCH   8  11
ENDBRANCH   5   8
ENDBRANCH   1   2
BRANCH   1  20
ATOM     18  O   UNL     1      48.651   5.196  15.991  0.00  0.00    +0.000 OA
ATOM     19  C   UNL     1      48.308   6.079  15.210  0.00  0.00    +0.000 C 
ATOM     20  N   UNL     1      47.183   5.983  14.433  0.00  0.00    +0.000 N 
ATOM     21  H   UNL     1      47.048   6.643  13.678  0.00  0.00    +0.000 HD
BRANCH  19  22
ATOM     22  C   UNL     1      49.064   7.332  15.096  0.00  0.00    +0.000 A 
ATOM     23  C   UNL     1      49.308   8.095  16.230  0.00  0.00    +0.000 A 
ATOM     24  S   UNL     1      50.195   9.518  15.917  0.00  0.00    +0.000 S 
ATOM     25  C   UNL     1      50.322   9.141  14.263  0.00  0.00    +0.000 A 
ATOM     26  N   UNL     1      51.010   9.950  13.413  0.00  0.00    +0.000 NA
ATOM     27  C   UNL     1      51.066   9.519  12.197  0.00  0.00    +0.000 A 
ATOM     28  N   UNL     1      50.483   8.362  11.749  0.00  0.00    +0.000 N 
ATOM     29  C   UNL     1      49.707   7.558  12.552  0.00  0.00    +0.000 A 
ATOM     30  O   UNL     1      49.081   6.614  12.083  0.00  0.00    +0.000 OA
ATOM     31  C   UNL     1      49.665   7.964  13.946  0.00  0.00    +0.000 A 
ATOM     32  H   UNL     1      50.534   8.102  10.777  0.00  0.00    +0.000 HD
ENDBRANCH  19  22
ENDBRANCH   1  20
TORSDOF 7
ENDMDL
MODEL 3
REMARK VINA RESULT:    -7.076      3.305      4.895
REMARK INTER + INTRA:         -10.838
REMARK INTER:                  -9.535
REMARK INTRA:                  -1.303
REMARK UNBOUND:                -1.073
REMARK  Name = 
REMARK  7 active torsions:
REMARK  status: ('A' for Active; 'I' for Inactive)
REMARK    1  A    between atoms: C_2  and  C_19
REMARK    2  A    between atoms: N_3  and  C_4
REMARK    3  A    between atoms: C_4  and  C_5
REMARK    4  A    between atoms: C_8  and  C_9
REMARK    5  A    between atoms: C_9  and  O_10
REMARK    6  A    between atoms: C_9  and  C_11
REMARK    7  A    between atoms: C_11  and  C_12
REMARK                            x       y       z     vdW  Elec       q    Type
REMARK                         _______ _______ _______ _____ _____    ______ ____
ROOT
ATOM      1  C   UNL     1      49.443   6.272  17.577  0.00  0.00    +0.000 C 
ENDROOT
BRANCH   1   2
ATOM      2  C   UNL     1      48.601   5.844  16.406  0.00  0.00    +0.000 A 
ATOM      3  C   UNL     1      47.865   4.654  16.460  0.00  0.00    +0.000 A 
ATOM      4  C   UNL     1      47.078   4.254  15.377  0.00  0.00    +0.000 A 
ATOM      5  C   UNL     1      47.022   5.026  14.209  0.00  0.00    +0.000 A 
ATOM      6  C   UNL     1      47.784   6.205  14.151  0.00  0.00    +0.000 A 
ATOM      7  C   UNL     1      48.569   6.606  15.233  0.00  0.00    +0.000 A 
BRANCH   5   8
ATOM      8  C   UNL     1      46.142   4.591  13.052  0.00  0.00    +0.000 C 
BRANCH   8   9
ATOM      9  O   UNL     1      45.984   3.179  13.115  0.00  0.00    +0.000 OA
ATOM     10  H   UNL     1      45.790   2.861  12.217  0.00  0.00    +0.000 HD
ENDBRANCH   8   9
BRANCH   8  11
ATOM     11  C   UNL     1      44.785   5.316  13.062  0.00  0.00    +0.000 C 
BRANCH  11  12
ATOM     12  C   UNL     1      44.424   6.073  11.766  0.00  0.00    +0.000 C 
ATOM     13  C   UNL     1      43.208   5.422  11.103  0.00  0.00    +0.000 C 
ATOM     14  C   UNL     1      43.829   4.390  10.185  0.00  0.00    +0.000 C 
ATOM     15  N   UNL     1      44.982   5.085   9.613  0.00  0.00    +0.000 NA
ATOM     16  C   UNL     1      45.486   5.992  10.660  0.00  0.00    +0.000 C 
ATOM     17  H   UNL     1      44.666   5.654   8.827  0.00  0.00    +0.000 HD
ENDBRANCH  11  12
ENDBRANCH   8  11
ENDBRANCH   5   8
ENDBRANCH   1   2
BRANCH   1  20
ATOM     18  O   UNL     1      52.029   6.054  16.492  0.00  0.00    +0.000 OA
ATOM     19  C   UNL     1      51.684   5.272  17.374  0.00  0.00    +0.000 C 
ATOM     20  N   UNL     1      50.420   5.265  17.903  0.00  0.00    +0.000 N 
ATOM     21  H   UNL     1      50.242   4.736  18.748  0.00  0.00    +0.000 HD
BRANCH  19  22
ATOM     22  C   UNL     1      52.602   4.248  17.887  0.00  0.00    +0.000 A 
ATOM     23  C   UNL     1      53.790   4.631  18.496  0.00  0.00    +0.000 A 
ATOM     24  S   UNL     1      54.737   3.316  19.029  0.00  0.00    +0.000 S 
ATOM     25  C   UNL     1      53.572   2.192  18.504  0.00  0.00    +0.000 A 
ATOM     26  N   UNL     1      53.752   0.858  18.697  0.00  0.00    +0.000 NA
ATOM     27  C   UNL     1      52.769   0.125  18.293  0.00  0.00    +0.000 A 
ATOM     28  N   UNL     1      51.630   0.602  17.698  0.00  0.00    +0.000 N 
ATOM     29  C   UNL     1      51.443   1.933  17.404  0.00  0.00    +0.000 A 
ATOM     30  O   UNL     1      50.482   2.304  16.739  0.00  0.00    +0.000 OA
ATOM     31  C   UNL     1      52.492   2.809  17.896  0.00  0.00    +0.000 A 
ATOM     32  H   UNL     1      50.916  -0.030  17.370  0.00  0.00    +0.000 HD
ENDBRANCH  19  22
ENDBRANCH   1  20
TORSDOF 7
ENDMDL
MODEL 4
REMARK VINA RESULT:    -7.056      4.371      8.918
REMARK INTER + INTRA:         -10.811
REMARK INTER:                  -9.867
REMARK INTRA:                  -0.944
REMARK UNBOUND:                -1.073
REMARK  Name = 
REMARK  7 active torsions:
REMARK  status: ('A' for Active; 'I' for Inactive)
REMARK    1  A    between atoms: C_2  and  C_19
REMARK    2  A    between atoms: N_3  and  C_4
REMARK    3  A    between atoms: C_4  and  C_5
REMARK    4  A    between atoms: C_8  and  C_9
REMARK    5  A    between atoms: C_9  and  O_10
REMARK    6  A    between atoms: C_9  and  C_11
REMARK    7  A    between atoms: C_11  and  C_12
REMARK                            x       y       z     vdW  Elec       q    Type
REMARK                         _______ _______ _______ _____ _____    ______ ____
ROOT
ATOM      1  C   UNL     1      47.143   3.371  16.872  0.00  0.00    +0.000 C 
ENDROOT
BRANCH   1   2
ATOM      2  C   UNL     1      48.607   3.366  17.220  0.00  0.00    +0.000 A 
ATOM      3  C   UNL     1      49.218   4.516  17.734  0.00  0.00    +0.000 A 
ATOM      4  C   UNL     1      50.576   4.515  18.063  0.00  0.00    +0.000 A 
ATOM      5  C   UNL     1      51.357   3.368  17.870  0.00  0.00    +0.000 A 
ATOM      6  C   UNL     1      50.745   2.225  17.328  0.00  0.00    +0.000 A 
ATOM      7  C   UNL     1      49.388   2.226  17.001  0.00  0.00    +0.000 A 
BRANCH   5   8
ATOM      8  C   UNL     1      52.824   3.375  18.257  0.00  0.00    +0.000 C 
BRANCH   8   9
ATOM      9  O   UNL     1      52.930   3.004  19.626  0.00  0.00    +0.000 OA
ATOM     10  H   UNL     1      52.663   3.769  20.163  0.00  0.00    +0.000 HD
ENDBRANCH   8   9
BRANCH   8  11
ATOM     11  C   UNL     1      53.658   2.451  17.353  0.00  0.00    +0.000 C 
BRANCH  11  12
ATOM     12  C   UNL     1      54.360   1.275  18.066  0.00  0.00    +0.000 C 
ATOM     13  C   UNL     1      55.635   0.893  17.310  0.00  0.00    +0.000 C 
ATOM     14  C   UNL     1      55.151  -0.151  16.326  0.00  0.00    +0.000 C 
ATOM     15  N   UNL     1      54.216  -0.957  17.109  0.00  0.00    +0.000 NA
ATOM     16  C   UNL     1      53.568  -0.040  18.063  0.00  0.00    +0.000 C 
ATOM     17  H   UNL     1      54.745  -1.648  17.643  0.00  0.00    +0.000 HD
ENDBRANCH  11  12
ENDBRANCH   8  11
ENDBRANCH   5   8
ENDBRANCH   1   2
BRANCH   1  20
ATOM     18  O   UNL     1      47.309   3.100  14.077  0.00  0.00    +0.000 OA
ATOM     19  C   UNL     1      46.894   4.155  14.550  0.00  0.00    +0.000 C 
ATOM     20  N   UNL     1      46.851   4.393  15.899  0.00  0.00    +0.000 N 
ATOM     21  H   UNL     1      46.331   5.192  16.242  0.00  0.00    +0.000 HD
BRANCH  19  22
ATOM     22  C   UNL     1      46.461   5.260  13.687  0.00  0.00    +0.000 A 
ATOM     23  C   UNL     1      47.314   6.332  13.460  0.00  0.00    +0.000 A 
ATOM     24  S   UNL     1      46.652   7.526  12.439  0.00  0.00    +0.000 S 
ATOM     25  C   UNL     1      45.220   6.631  12.228  0.00  0.00    +0.000 A 
ATOM     26  N   UNL     1      44.226   7.085  11.419  0.00  0.00    +0.000 NA
ATOM     27  C   UNL     1      43.218   6.284  11.314  0.00  0.00    +0.000 A 
ATOM     28  N   UNL     1      43.107   5.079  11.958  0.00  0.00    +0.000 N 
ATOM     29  C   UNL     1      44.046   4.621  12.852  0.00  0.00    +0.000 A 
ATOM     30  O   UNL     1      43.844   3.612  13.520  0.00  0.00    +0.000 OA
ATOM     31  C   UNL     1      45.231   5.454  12.957  0.00  0.00    +0.000 A 
ATOM     32  H   UNL     1      42.275   4.518  11.861  0.00  0.00    +0.000 HD
ENDBRANCH  19  22
ENDBRANCH   1  20
TORSDOF 7
ENDMDL
MODEL 5
REMARK VINA RESULT:    -6.881      2.366      3.295
REMARK INTER + INTRA:         -10.569
REMARK INTER:                  -9.565
REMARK INTRA:                  -1.004
REMARK UNBOUND:                -1.073
REMARK  Name = 
REMARK  7 active torsions:
REMARK  status: ('A' for Active; 'I' for Inactive)
REMARK    1  A    between atoms: C_2  and  C_19
REMARK    2  A    between atoms: N_3  and  C_4
REMARK    3  A    between atoms: C_4  and  C_5
REMARK    4  A    between atoms: C_8  and  C_9
REMARK    5  A    between atoms: C_9  and  O_10
REMARK    6  A    between atoms: C_9  and  C_11
REMARK    7  A    between atoms: C_11  and  C_12
REMARK                            x       y       z     vdW  Elec       q    Type
REMARK                         _______ _______ _______ _____ _____    ______ ____
ROOT
ATOM      1  C   UNL     1      48.507   6.817  14.054  0.00  0.00    +0.000 C 
ENDROOT
BRANCH   1   2
ATOM      2  C   UNL     1      47.418   6.192  13.223  0.00  0.00    +0.000 A 
ATOM      3  C   UNL     1      46.845   4.974  13.606  0.00  0.00    +0.000 A 
ATOM      4  C   UNL     1      45.832   4.392  12.840  0.00  0.00    +0.000 A 
ATOM      5  C   UNL     1      45.380   5.007  11.665  0.00  0.00    +0.000 A 
ATOM      6  C   UNL     1      45.979   6.216  11.272  0.00  0.00    +0.000 A 
ATOM      7  C   UNL     1      46.990   6.799  12.037  0.00  0.00    +0.000 A 
BRANCH   5   8
ATOM      8  C   UNL     1      44.261   4.376  10.859  0.00  0.00    +0.000 C 
BRANCH   8   9
ATOM      9  O   UNL     1      43.474   5.416  10.292  0.00  0.00    +0.000 OA
ATOM     10  H   UNL     1      43.076   5.919  11.021  0.00  0.00    +0.000 HD
ENDBRANCH   8   9
BRANCH   8  11
ATOM     11  C   UNL     1      44.802   3.420   9.781  0.00  0.00    +0.000 C 
BRANCH  11  12
ATOM     12  C   UNL     1      44.897   4.007   8.356  0.00  0.00    +0.000 C 
ATOM     13  C   UNL     1      45.025   2.875   7.334  0.00  0.00    +0.000 C 
ATOM     14  C   UNL     1      46.522   2.680   7.223  0.00  0.00    +0.000 C 
ATOM     15  N   UNL     1      47.049   4.045   7.223  0.00  0.00    +0.000 NA
ATOM     16  C   UNL     1      46.159   4.838   8.089  0.00  0.00    +0.000 C 
ATOM     17  H   UNL     1      46.987   4.420   6.275  0.00  0.00    +0.000 HD
ENDBRANCH  11  12
ENDBRANCH   8  11
ENDBRANCH   5   8
ENDBRANCH   1   2
BRANCH   1  20
ATOM     18  O   UNL     1      50.055   5.859  16.198  0.00  0.00    +0.000 OA
ATOM     19  C   UNL     1      48.984   6.412  16.436  0.00  0.00    +0.000 C 
ATOM     20  N   UNL     1      48.139   6.841  15.447  0.00  0.00    +0.000 N 
ATOM     21  H   UNL     1      47.368   7.453  15.689  0.00  0.00    +0.000 HD
BRANCH  19  22
ATOM     22  C   UNL     1      48.514   6.603  17.813  0.00  0.00    +0.000 A 
ATOM     23  C   UNL     1      48.501   5.528  18.692  0.00  0.00    +0.000 A 
ATOM     24  S   UNL     1      47.923   5.926  20.247  0.00  0.00    +0.000 S 
ATOM     25  C   UNL     1      47.713   7.557  19.812  0.00  0.00    +0.000 A 
ATOM     26  N   UNL     1      47.269   8.470  20.718  0.00  0.00    +0.000 NA
ATOM     27  C   UNL     1      47.201   9.678  20.267  0.00  0.00    +0.000 A 
ATOM     28  N   UNL     1      47.521  10.054  18.988  0.00  0.00    +0.000 N 
ATOM     29  C   UNL     1      47.889   9.154  18.015  0.00  0.00    +0.000 A 
ATOM     30  O   UNL     1      48.022   9.505  16.848  0.00  0.00    +0.000 OA
ATOM     31  C   UNL     1      48.043   7.789  18.488  0.00  0.00    +0.000 A 
ATOM     32  H   UNL     1      47.409  11.010  18.688  0.00  0.00    +0.000 HD
ENDBRANCH  19  22
ENDBRANCH   1  20
TORSDOF 7
ENDMDL
MODEL 6
REMARK VINA RESULT:    -6.833      1.514      2.066
REMARK INTER + INTRA:         -10.503
REMARK INTER:                  -9.600
REMARK INTRA:                  -0.903
REMARK UNBOUND:                -1.073
REMARK  Name = 
REMARK  7 active torsions:
REMARK  status: ('A' for Active; 'I' for Inactive)
REMARK    1  A    between atoms: C_2  and  C_19
REMARK    2  A    between atoms: N_3  and  C_4
REMARK    3  A    between atoms: C_4  and  C_5
REMARK    4  A    between atoms: C_8  and  C_9
REMARK    5  A    between atoms: C_9  and  O_10
REMARK    6  A    between atoms: C_9  and  C_11
REMARK    7  A    between atoms: C_11  and  C_12
REMARK                            x       y       z     vdW  Elec       q    Type
REMARK                         _______ _______ _______ _____ _____    ______ ____
ROOT
ATOM      1  C   UNL     1      48.338   7.509  13.835  0.00  0.00    +0.000 C 
ENDROOT
BRANCH   1   2
ATOM      2  C   UNL     1      47.248   6.747  13.130  0.00  0.00    +0.000 A 
ATOM      3  C   UNL     1      46.786   5.530  13.646  0.00  0.00    +0.000 A 
ATOM      4  C   UNL     1      45.771   4.821  12.999  0.00  0.00    +0.000 A 
ATOM      5  C   UNL     1      45.207   5.304  11.811  0.00  0.00    +0.000 A 
ATOM      6  C   UNL     1      45.694   6.512  11.283  0.00  0.00    +0.000 A 
ATOM      7  C   UNL     1      46.706   7.221  11.931  0.00  0.00    +0.000 A 
BRANCH   5   8
ATOM      8  C   UNL     1      44.088   4.535  11.134  0.00  0.00    +0.000 C 
BRANCH   8   9
ATOM      9  O   UNL     1      43.459   5.394  10.191  0.00  0.00    +0.000 OA
ATOM     10  H   UNL     1      43.421   4.926   9.341  0.00  0.00    +0.000 HD
ENDBRANCH   8   9
BRANCH   8  11
ATOM     11  C   UNL     1      44.600   3.244  10.473  0.00  0.00    +0.000 C 
BRANCH  11  12
ATOM     12  C   UNL     1      44.547   3.218   8.930  0.00  0.00    +0.000 C 
ATOM     13  C   UNL     1      44.676   1.778   8.428  0.00  0.00    +0.000 C 
ATOM     14  C   UNL     1      46.170   1.606   8.259  0.00  0.00    +0.000 C 
ATOM     15  N   UNL     1      46.600   2.874   7.671  0.00  0.00    +0.000 NA
ATOM     16  C   UNL     1      45.725   3.916   8.237  0.00  0.00    +0.000 C 
ATOM     17  H   UNL     1      46.441   2.840   6.663  0.00  0.00    +0.000 HD
ENDBRANCH  11  12
ENDBRANCH   8  11
ENDBRANCH   5   8
ENDBRANCH   1   2
BRANCH   1  20
ATOM     18  O   UNL     1      50.399   6.669  15.553  0.00  0.00    +0.000 OA
ATOM     19  C   UNL     1      49.317   6.992  16.034  0.00  0.00    +0.000 C 
ATOM     20  N   UNL     1      48.240   7.342  15.262  0.00  0.00    +0.000 N 
ATOM     21  H   UNL     1      47.439   7.777  15.703  0.00  0.00    +0.000 HD
BRANCH  19  22
ATOM     22  C   UNL     1      49.090   6.971  17.484  0.00  0.00    +0.000 A 
ATOM     23  C   UNL     1      48.945   8.167  18.176  0.00  0.00    +0.000 A 
ATOM     24  S   UNL     1      48.692   7.960  19.850  0.00  0.00    +0.000 S 
ATOM     25  C   UNL     1      48.723   6.265  19.701  0.00  0.00    +0.000 A 
ATOM     26  N   UNL     1      48.526   5.465  20.784  0.00  0.00    +0.000 NA
ATOM     27  C   UNL     1      48.528   4.201  20.519  0.00  0.00    +0.000 A 
ATOM     28  N   UNL     1      48.726   3.663  19.273  0.00  0.00    +0.000 N 
ATOM     29  C   UNL     1      49.015   4.428  18.167  0.00  0.00    +0.000 A 
ATOM     30  O   UNL     1      49.331   3.907  17.104  0.00  0.00    +0.000 OA
ATOM     31  C   UNL     1      48.960   5.861  18.398  0.00  0.00    +0.000 A 
ATOM     32  H   UNL     1      48.753   2.664  19.142  0.00  0.00    +0.000 HD
ENDBRANCH  19  22
ENDBRANCH   1  20
TORSDOF 7
ENDMDL
MODEL 7
REMARK VINA RESULT:    -6.755      3.878      8.834
REMARK INTER + INTRA:         -10.395
REMARK INTER:                  -9.224
REMARK INTRA:                  -1.171
REMARK UNBOUND:                -1.073
REMARK  Name = 
REMARK  7 active torsions:
REMARK  status: ('A' for Active; 'I' for Inactive)
REMARK    1  A    between atoms: C_2  and  C_19
REMARK    2  A    between atoms: N_3  and  C_4
REMARK    3  A    between atoms: C_4  and  C_5
REMARK    4  A    between atoms: C_8  and  C_9
REMARK    5  A    between atoms: C_9  and  O_10
REMARK    6  A    between atoms: C_9  and  C_11
REMARK    7  A    between atoms: C_11  and  C_12
REMARK                            x       y       z     vdW  Elec       q    Type
REMARK                         _______ _______ _______ _____ _____    ______ ____
ROOT
ATOM      1  C   UNL     1      47.096   3.387  16.916  0.00  0.00    +0.000 C 
ENDROOT
BRANCH   1   2
ATOM      2  C   UNL     1      48.512   3.491  17.417  0.00  0.00    +0.000 A 
ATOM      3  C   UNL     1      49.493   2.605  16.958  0.00  0.00    +0.000 A 
ATOM      4  C   UNL     1      50.809   2.700  17.416  0.00  0.00    +0.000 A 
ATOM      5  C   UNL     1      51.170   3.673  18.357  0.00  0.00    +0.000 A 
ATOM      6  C   UNL     1      50.174   4.542  18.835  0.00  0.00    +0.000 A 
ATOM      7  C   UNL     1      48.860   4.448  18.376  0.00  0.00    +0.000 A 
BRANCH   5   8
ATOM      8  C   UNL     1      52.609   3.780  18.826  0.00  0.00    +0.000 C 
BRANCH   8   9
ATOM      9  O   UNL     1      53.076   2.475  19.144  0.00  0.00    +0.000 OA
ATOM     10  H   UNL     1      52.801   2.273  20.053  0.00  0.00    +0.000 HD
ENDBRANCH   8   9
BRANCH   8  11
ATOM     11  C   UNL     1      53.503   4.463  17.776  0.00  0.00    +0.000 C 
BRANCH  11  12
ATOM     12  C   UNL     1      53.368   5.998  17.683  0.00  0.00    +0.000 C 
ATOM     13  C   UNL     1      52.832   6.392  16.305  0.00  0.00    +0.000 C 
ATOM     14  C   UNL     1      54.092   6.574  15.485  0.00  0.00    +0.000 C 
ATOM     15  N   UNL     1      55.003   7.263  16.399  0.00  0.00    +0.000 NA
ATOM     16  C   UNL     1      54.698   6.762  17.751  0.00  0.00    +0.000 C 
ATOM     17  H   UNL     1      54.796   8.262  16.377  0.00  0.00    +0.000 HD
ENDBRANCH  11  12
ENDBRANCH   8  11
ENDBRANCH   5   8
ENDBRANCH   1   2
BRANCH   1  20
ATOM     18  O   UNL     1      47.319   3.060  14.131  0.00  0.00    +0.000 OA
ATOM     19  C   UNL     1      46.900   4.126  14.575  0.00  0.00    +0.000 C 
ATOM     20  N   UNL     1      46.830   4.391  15.918  0.00  0.00    +0.000 N 
ATOM     21  H   UNL     1      46.308   5.199  16.234  0.00  0.00    +0.000 HD
BRANCH  19  22
ATOM     22  C   UNL     1      46.492   5.216  13.681  0.00  0.00    +0.000 A 
ATOM     23  C   UNL     1      47.376   6.253  13.411  0.00  0.00    +0.000 A 
ATOM     24  S   UNL     1      46.739   7.435  12.358  0.00  0.00    +0.000 S 
ATOM     25  C   UNL     1      45.278   6.580  12.193  0.00  0.00    +0.000 A 
ATOM     26  N   UNL     1      44.288   7.039  11.380  0.00  0.00    +0.000 NA
ATOM     27  C   UNL     1      43.254   6.268  11.313  0.00  0.00    +0.000 A 
ATOM     28  N   UNL     1      43.113   5.088  11.996  0.00  0.00    +0.000 N 
ATOM     29  C   UNL     1      44.048   4.629  12.894  0.00  0.00    +0.000 A 
ATOM     30  O   UNL     1      43.822   3.649  13.596  0.00  0.00    +0.000 OA
ATOM     31  C   UNL     1      45.260   5.427  12.959  0.00  0.00    +0.000 A 
ATOM     32  H   UNL     1      42.262   4.551  11.928  0.00  0.00    +0.000 HD
ENDBRANCH  19  22
ENDBRANCH   1  20
TORSDOF 7
ENDMDL
MODEL 8
REMARK VINA RESULT:    -6.644      4.291      8.381
REMARK INTER + INTRA:         -10.242
REMARK INTER:                  -9.386
REMARK INTRA:                  -0.856
REMARK UNBOUND:                -1.073
REMARK  Name = 
REMARK  7 active torsions:
REMARK  status: ('A' for Active; 'I' for Inactive)
REMARK    1  A    between atoms: C_2  and  C_19
REMARK    2  A    between atoms: N_3  and  C_4
REMARK    3  A    between atoms: C_4  and  C_5
REMARK    4  A    between atoms: C_8  and  C_9
REMARK    5  A    between atoms: C_9  and  O_10
REMARK    6  A    between atoms: C_9  and  C_11
REMARK    7  A    between atoms: C_11  and  C_12
REMARK                            x       y       z     vdW  Elec       q    Type
REMARK                         _______ _______ _______ _____ _____    ______ ____
ROOT
ATOM      1  C   UNL     1      43.602   3.260  11.737  0.00  0.00    +0.000 C 
ENDROOT
BRANCH   1   2
ATOM      2  C   UNL     1      44.211   4.617  11.972  0.00  0.00    +0.000 A 
ATOM      3  C   UNL     1      45.431   4.738  12.649  0.00  0.00    +0.000 A 
ATOM      4  C   UNL     1      46.003   5.994  12.865  0.00  0.00    +0.000 A 
ATOM      5  C   UNL     1      45.360   7.158  12.424  0.00  0.00    +0.000 A 
ATOM      6  C   UNL     1      44.123   7.032  11.770  0.00  0.00    +0.000 A 
ATOM      7  C   UNL     1      43.552   5.777  11.552  0.00  0.00    +0.000 A 
BRANCH   5   8
ATOM      8  C   UNL     1      46.007   8.513  12.644  0.00  0.00    +0.000 C 
BRANCH   8   9
ATOM      9  O   UNL     1      44.986   9.454  12.952  0.00  0.00    +0.000 OA
ATOM     10  H   UNL     1      44.755   9.920  12.132  0.00  0.00    +0.000 HD
ENDBRANCH   8   9
BRANCH   8  11
ATOM     11  C   UNL     1      47.082   8.461  13.744  0.00  0.00    +0.000 C 
BRANCH  11  12
ATOM     12  C   UNL     1      48.461   9.036  13.357  0.00  0.00    +0.000 C 
ATOM     13  C   UNL     1      48.796   8.659  11.911  0.00  0.00    +0.000 C 
ATOM     14  C   UNL     1      49.522   7.339  12.059  0.00  0.00    +0.000 C 
ATOM     15  N   UNL     1      50.380   7.545  13.225  0.00  0.00    +0.000 NA
ATOM     16  C   UNL     1      49.644   8.441  14.135  0.00  0.00    +0.000 C 
ATOM     17  H   UNL     1      51.230   8.025  12.927  0.00  0.00    +0.000 HD
ENDBRANCH  11  12
ENDBRANCH   8  11
ENDBRANCH   5   8
ENDBRANCH   1   2
BRANCH   1  20
ATOM     18  O   UNL     1      43.856   3.823   8.993  0.00  0.00    +0.000 OA
ATOM     19  C   UNL     1      44.498   2.892   9.473  0.00  0.00    +0.000 C 
ATOM     20  N   UNL     1      44.375   2.509  10.783  0.00  0.00    +0.000 N 
ATOM     21  H   UNL     1      45.055   1.868  11.174  0.00  0.00    +0.000 HD
BRANCH  19  22
ATOM     22  C   UNL     1      45.410   2.090   8.649  0.00  0.00    +0.000 A 
ATOM     23  C   UNL     1      45.355   0.704   8.712  0.00  0.00    +0.000 A 
ATOM     24  S   UNL     1      46.484  -0.070   7.694  0.00  0.00    +0.000 S 
ATOM     25  C   UNL     1      47.054   1.420   7.101  0.00  0.00    +0.000 A 
ATOM     26  N   UNL     1      48.024   1.468   6.149  0.00  0.00    +0.000 NA
ATOM     27  C   UNL     1      48.327   2.660   5.757  0.00  0.00    +0.000 A 
ATOM     28  N   UNL     1      47.761   3.811   6.243  0.00  0.00    +0.000 N 
ATOM     29  C   UNL     1      46.842   3.815   7.267  0.00  0.00    +0.000 A 
ATOM     30  O   UNL     1      46.469   4.866   7.776  0.00  0.00    +0.000 OA
ATOM     31  C   UNL     1      46.419   2.495   7.699  0.00  0.00    +0.000 A 
ATOM     32  H   UNL     1      48.070   4.714   5.921  0.00  0.00    +0.000 HD
ENDBRANCH  19  22
ENDBRANCH   1  20
TORSDOF 7
ENDMDL
MODEL 9
REMARK VINA RESULT:    -6.372      3.997      8.710
REMARK INTER + INTRA:          -9.867
REMARK INTER:                  -8.465
REMARK INTRA:                  -1.402
REMARK UNBOUND:                -1.073
REMARK  Name = 
REMARK  7 active torsions:
REMARK  status: ('A' for Active; 'I' for Inactive)
REMARK    1  A    between atoms: C_2  and  C_19
REMARK    2  A    between atoms: N_3  and  C_4
REMARK    3  A    between atoms: C_4  and  C_5
REMARK    4  A    between atoms: C_8  and  C_9
REMARK    5  A    between atoms: C_9  and  O_10
REMARK    6  A    between atoms: C_9  and  C_11
REMARK    7  A    between atoms: C_11  and  C_12
REMARK                            x       y       z     vdW  Elec       q    Type
REMARK                         _______ _______ _______ _____ _____    ______ ____
ROOT
ATOM      1  C   UNL     1      47.277   3.333  16.788  0.00  0.00    +0.000 C 
ENDROOT
BRANCH   1   2
ATOM      2  C   UNL     1      48.698   3.454  17.271  0.00  0.00    +0.000 A 
ATOM      3  C   UNL     1      49.627   2.442  17.002  0.00  0.00    +0.000 A 
ATOM      4  C   UNL     1      50.947   2.552  17.444  0.00  0.00    +0.000 A 
ATOM      5  C   UNL     1      51.365   3.668  18.180  0.00  0.00    +0.000 A 
ATOM      6  C   UNL     1      50.421   4.668  18.471  0.00  0.00    +0.000 A 
ATOM      7  C   UNL     1      49.102   4.560  18.028  0.00  0.00    +0.000 A 
BRANCH   5   8
ATOM      8  C   UNL     1      52.809   3.785  18.631  0.00  0.00    +0.000 C 
BRANCH   8   9
ATOM      9  O   UNL     1      53.118   2.658  19.442  0.00  0.00    +0.000 OA
ATOM     10  H   UNL     1      53.841   2.171  19.011  0.00  0.00    +0.000 HD
ENDBRANCH   8   9
BRANCH   8  11
ATOM     11  C   UNL     1      53.772   3.908  17.438  0.00  0.00    +0.000 C 
BRANCH  11  12
ATOM     12  C   UNL     1      54.448   5.285  17.266  0.00  0.00    +0.000 C 
ATOM     13  C   UNL     1      53.426   6.401  17.496  0.00  0.00    +0.000 C 
ATOM     14  C   UNL     1      52.861   6.640  16.111  0.00  0.00    +0.000 C 
ATOM     15  N   UNL     1      54.036   6.572  15.242  0.00  0.00    +0.000 NA
ATOM     16  C   UNL     1      54.946   5.580  15.844  0.00  0.00    +0.000 C 
ATOM     17  H   UNL     1      54.504   7.479  15.252  0.00  0.00    +0.000 HD
ENDBRANCH  11  12
ENDBRANCH   8  11
ENDBRANCH   5   8
ENDBRANCH   1   2
BRANCH   1  20
ATOM     18  O   UNL     1      47.225   3.068  13.988  0.00  0.00    +0.000 OA
ATOM     19  C   UNL     1      46.899   4.140  14.492  0.00  0.00    +0.000 C 
ATOM     20  N   UNL     1      46.967   4.373  15.841  0.00  0.00    +0.000 N 
ATOM     21  H   UNL     1      46.515   5.195  16.222  0.00  0.00    +0.000 HD
BRANCH  19  22
ATOM     22  C   UNL     1      46.462   5.270  13.664  0.00  0.00    +0.000 A 
ATOM     23  C   UNL     1      45.268   5.186  12.959  0.00  0.00    +0.000 A 
ATOM     24  S   UNL     1      44.914   6.583  12.048  0.00  0.00    +0.000 S 
ATOM     25  C   UNL     1      46.321   7.367  12.600  0.00  0.00    +0.000 A 
ATOM     26  N   UNL     1      46.606   8.640  12.218  0.00  0.00    +0.000 NA
ATOM     27  C   UNL     1      47.678   9.127  12.748  0.00  0.00    +0.000 A 
ATOM     28  N   UNL     1      48.500   8.450  13.612  0.00  0.00    +0.000 N 
ATOM     29  C   UNL     1      48.299   7.134  13.957  0.00  0.00    +0.000 A 
ATOM     30  O   UNL     1      49.133   6.518  14.611  0.00  0.00    +0.000 OA
ATOM     31  C   UNL     1      47.070   6.559  13.438  0.00  0.00    +0.000 A 
ATOM     32  H   UNL     1      49.344   8.877  13.961  0.00  0.00    +0.000 HD
ENDBRANCH  19  22
ENDBRANCH   1  20
TORSDOF 7
ENDMDL
