MODEL 1
REMARK VINA RESULT:    -9.365      0.000      0.000
REMARK INTER + INTRA:         -12.550
REMARK INTER:                 -12.102
REMARK INTRA:                  -0.448
REMARK UNBOUND:                -0.448
REMARK  Name = 
REMARK  5 active torsions:
REMARK  status: ('A' for Active; 'I' for Inactive)
REMARK    1  A    between atoms: C_8  and  C_9
REMARK    2  A    between atoms: N_11  and  C_12
REMARK    3  A    between atoms: C_12  and  C_13
REMARK    4  A    between atoms: C_16  and  O_17
REMARK    5  A    between atoms: O_17  and  C_18
REMARK                            x       y       z     vdW  Elec       q    Type
REMARK                         _______ _______ _______ _____ _____    ______ ____
ROOT
ATOM      1  C   UNL     1      46.473   4.260  14.154  0.00  0.00    +0.000 C 
ATOM      2  O   UNL     1      46.775   3.123  13.790  0.00  0.00    +0.000 OA
ATOM      3  N   UNL     1      45.249   4.801  13.865  0.00  0.00    +0.000 N 
ATOM      4  H   UNL     1      45.036   5.756  14.136  0.00  0.00    +0.000 HD
ENDROOT
BRANCH   1  12
ATOM      5  N   UNL     1      50.384   7.026  18.204  0.00  0.00    +0.000 N 
ATOM      6  C   UNL     1      49.404   6.117  17.915  0.00  0.00    +0.000 A 
ATOM      7  N   UNL     1      49.010   5.333  18.888  0.00  0.00    +0.000 NA
ATOM      8  N   UNL     1      48.042   4.388  18.627  0.00  0.00    +0.000 N 
ATOM      9  C   UNL     1      47.428   4.140  17.410  0.00  0.00    +0.000 A 
ATOM     10  O   UNL     1      46.602   3.241  17.284  0.00  0.00    +0.000 OA
ATOM     11  C   UNL     1      47.831   5.020  16.323  0.00  0.00    +0.000 A 
ATOM     12  C   UNL     1      47.414   5.079  14.935  0.00  0.00    +0.000 A 
ATOM     13  C   UNL     1      48.082   6.120  14.295  0.00  0.00    +0.000 A 
ATOM     14  S   UNL     1      49.168   6.968  15.300  0.00  0.00    +0.000 S 
ATOM     15  C   UNL     1      48.786   5.974  16.613  0.00  0.00    +0.000 A 
ATOM     16  H   UNL     1      50.505   7.198  19.195  0.00  0.00    +0.000 HD
ATOM     17  H   UNL     1      50.438   7.846  17.614  0.00  0.00    +0.000 HD
ATOM     18  H   UNL     1      47.787   3.788  19.405  0.00  0.00    +0.000 HD
ENDBRANCH   1  12
BRANCH   3  19
ATOM     19  C   UNL     1      44.234   4.073  13.147  0.00  0.00    +0.000 C 
BRANCH  19  20
ATOM     20  C   UNL     1      44.433   4.141  11.663  0.00  0.00    +0.000 A 
ATOM     21  C   UNL     1      45.239   5.121  11.066  0.00  0.00    +0.000 A 
ATOM     22  C   UNL     1      45.438   5.105   9.687  0.00  0.00    +0.000 A 
ATOM     23  C   UNL     1      44.818   4.111   8.949  0.00  0.00    +0.000 A 
ATOM     24  N   UNL     1      43.977   3.197   9.486  0.00  0.00    +0.000 NA
ATOM     25  C   UNL     1      43.811   3.227  10.823  0.00  0.00    +0.000 A 
BRANCH  23  26
ATOM     26  O   UNL     1      45.113   4.040   7.591  0.00  0.00    +0.000 OA
BRANCH  26  27
ATOM     27  C   UNL     1      46.061   3.109   7.218  0.00  0.00    +0.000 A 
ATOM     28  C   UNL     1      46.841   3.393   6.104  0.00  0.00    +0.000 A 
ATOM     29  C   UNL     1      47.770   2.444   5.710  0.00  0.00    +0.000 A 
ATOM     30  N   UNL     1      47.971   1.270   6.349  0.00  0.00    +0.000 NA
ATOM     31  C   UNL     1      47.219   1.040   7.445  0.00  0.00    +0.000 A 
ATOM     32  C   UNL     1      46.283   1.932   7.932  0.00  0.00    +0.000 A 
ENDBRANCH  26  27
ENDBRANCH  23  26
ENDBRANCH  19  20
ENDBRANCH   3  19
TORSDOF 5
ENDMDL
MODEL 2
REMARK VINA RESULT:    -8.910      2.078      2.908
REMARK INTER + INTRA:         -11.963
REMARK INTER:                 -11.039
REMARK INTRA:                  -0.924
REMARK UNBOUND:                -0.448
REMARK  Name = 
REMARK  5 active torsions:
REMARK  status: ('A' for Active; 'I' for Inactive)
REMARK    1  A    between atoms: C_8  and  C_9
REMARK    2  A    between atoms: N_11  and  C_12
REMARK    3  A    between atoms: C_12  and  C_13
REMARK    4  A    between atoms: C_16  and  O_17
REMARK    5  A    between atoms: O_17  and  C_18
REMARK                            x       y       z     vdW  Elec       q    Type
REMARK                         _______ _______ _______ _____ _____    ______ ____
ROOT
ATOM      1  C   UNL     1      46.830   4.901  14.235  0.00  0.00    +0.000 C 
ATOM      2  O   UNL     1      46.876   3.676  14.357  0.00  0.00    +0.000 OA
ATOM      3  N   UNL     1      45.747   5.523  13.674  0.00  0.00    +0.000 N 
ATOM      4  H   UNL     1      45.749   6.530  13.542  0.00  0.00    +0.000 HD
ENDROOT
BRANCH   1  12
ATOM      5  N   UNL     1      51.406   9.039  15.368  0.00  0.00    +0.000 N 
ATOM      6  C   UNL     1      50.527   8.427  14.517  0.00  0.00    +0.000 A 
ATOM      7  N   UNL     1      50.500   8.852  13.279  0.00  0.00    +0.000 NA
ATOM      8  N   UNL     1      49.609   8.277  12.400  0.00  0.00    +0.000 N 
ATOM      9  C   UNL     1      48.687   7.282  12.682  0.00  0.00    +0.000 A 
ATOM     10  O   UNL     1      47.911   6.869  11.825  0.00  0.00    +0.000 OA
ATOM     11  C   UNL     1      48.722   6.776  14.046  0.00  0.00    +0.000 A 
ATOM     12  C   UNL     1      47.936   5.749  14.707  0.00  0.00    +0.000 A 
ATOM     13  C   UNL     1      48.365   5.616  16.025  0.00  0.00    +0.000 A 
ATOM     14  S   UNL     1      49.626   6.680  16.455  0.00  0.00    +0.000 S 
ATOM     15  C   UNL     1      49.638   7.351  14.904  0.00  0.00    +0.000 A 
ATOM     16  H   UNL     1      52.141   9.555  14.898  0.00  0.00    +0.000 HD
ATOM     17  H   UNL     1      51.700   8.512  16.180  0.00  0.00    +0.000 HD
ATOM     18  H   UNL     1      49.607   8.655  11.458  0.00  0.00    +0.000 HD
ENDBRANCH   1  12
BRANCH   3  19
ATOM     19  C   UNL     1      44.589   4.796  13.220  0.00  0.00    +0.000 C 
BRANCH  19  20
ATOM     20  C   UNL     1      44.609   4.574  11.737  0.00  0.00    +0.000 A 
ATOM     21  C   UNL     1      45.392   5.358  10.879  0.00  0.00    +0.000 A 
ATOM     22  C   UNL     1      45.419   5.072   9.515  0.00  0.00    +0.000 A 
ATOM     23  C   UNL     1      44.656   4.013   9.054  0.00  0.00    +0.000 A 
ATOM     24  N   UNL     1      43.834   3.285   9.846  0.00  0.00    +0.000 NA
ATOM     25  C   UNL     1      43.835   3.574  11.162  0.00  0.00    +0.000 A 
BRANCH  23  26
ATOM     26  O   UNL     1      44.776   3.669   7.711  0.00  0.00    +0.000 OA
BRANCH  26  27
ATOM     27  C   UNL     1      45.849   2.867   7.379  0.00  0.00    +0.000 A 
ATOM     28  C   UNL     1      46.680   3.293   6.350  0.00  0.00    +0.000 A 
ATOM     29  C   UNL     1      47.738   2.472   5.995  0.00  0.00    +0.000 A 
ATOM     30  N   UNL     1      48.015   1.292   6.593  0.00  0.00    +0.000 NA
ATOM     31  C   UNL     1      47.207   0.923   7.608  0.00  0.00    +0.000 A 
ATOM     32  C   UNL     1      46.142   1.681   8.053  0.00  0.00    +0.000 A 
ENDBRANCH  26  27
ENDBRANCH  23  26
ENDBRANCH  19  20
ENDBRANCH   3  19
TORSDOF 5
ENDMDL
MODEL 3
REMARK VINA RESULT:    -8.833      1.665      2.375
REMARK INTER + INTRA:         -11.863
REMARK INTER:                 -11.142
REMARK INTRA:                  -0.720
REMARK UNBOUND:                -0.448
REMARK  Name = 
REMARK  5 active torsions:
REMARK  status: ('A' for Active; 'I' for Inactive)
REMARK    1  A    between atoms: C_8  and  C_9
REMARK    2  A    between atoms: N_11  and  C_12
REMARK    3  A    between atoms: C_12  and  C_13
REMARK    4  A    between atoms: C_16  and  O_17
REMARK    5  A    between atoms: O_17  and  C_18
REMARK                            x       y       z     vdW  Elec       q    Type
REMARK                         _______ _______ _______ _____ _____    ______ ____
ROOT
ATOM      1  C   UNL     1      47.779   6.898  13.738  0.00  0.00    +0.000 C 
ATOM      2  O   UNL     1      48.485   7.302  12.813  0.00  0.00    +0.000 OA
ATOM      3  N   UNL     1      46.414   6.869  13.635  0.00  0.00    +0.000 N 
ATOM      4  H   UNL     1      45.849   6.575  14.426  0.00  0.00    +0.000 HD
ENDROOT
BRANCH   1  12
ATOM      5  N   UNL     1      49.815   3.948  18.886  0.00  0.00    +0.000 N 
ATOM      6  C   UNL     1      48.944   4.067  17.838  0.00  0.00    +0.000 A 
ATOM      7  N   UNL     1      48.039   3.129  17.703  0.00  0.00    +0.000 NA
ATOM      8  N   UNL     1      47.162   3.201  16.644  0.00  0.00    +0.000 N 
ATOM      9  C   UNL     1      47.133   4.169  15.653  0.00  0.00    +0.000 A 
ATOM     10  O   UNL     1      46.326   4.113  14.729  0.00  0.00    +0.000 OA
ATOM     11  C   UNL     1      48.112   5.236  15.801  0.00  0.00    +0.000 A 
ATOM     12  C   UNL     1      48.380   6.409  14.990  0.00  0.00    +0.000 A 
ATOM     13  C   UNL     1      49.415   7.142  15.565  0.00  0.00    +0.000 A 
ATOM     14  S   UNL     1      50.046   6.451  16.989  0.00  0.00    +0.000 S 
ATOM     15  C   UNL     1      48.966   5.155  16.882  0.00  0.00    +0.000 A 
ATOM     16  H   UNL     1      49.501   3.314  19.611  0.00  0.00    +0.000 HD
ATOM     17  H   UNL     1      50.253   4.798  19.216  0.00  0.00    +0.000 HD
ATOM     18  H   UNL     1      46.496   2.440  16.567  0.00  0.00    +0.000 HD
ENDBRANCH   1  12
BRANCH   3  19
ATOM     19  C   UNL     1      45.721   7.280  12.441  0.00  0.00    +0.000 C 
BRANCH  19  20
ATOM     20  C   UNL     1      45.476   6.133  11.507  0.00  0.00    +0.000 A 
ATOM     21  C   UNL     1      44.723   5.014  11.887  0.00  0.00    +0.000 A 
ATOM     22  C   UNL     1      44.475   4.001  10.962  0.00  0.00    +0.000 A 
ATOM     23  C   UNL     1      44.996   4.141   9.687  0.00  0.00    +0.000 A 
ATOM     24  N   UNL     1      45.787   5.173   9.312  0.00  0.00    +0.000 NA
ATOM     25  C   UNL     1      46.001   6.144  10.222  0.00  0.00    +0.000 A 
BRANCH  23  26
ATOM     26  O   UNL     1      44.650   3.179   8.743  0.00  0.00    +0.000 OA
BRANCH  26  27
ATOM     27  C   UNL     1      45.693   2.607   8.042  0.00  0.00    +0.000 A 
ATOM     28  C   UNL     1      46.012   1.285   8.325  0.00  0.00    +0.000 A 
ATOM     29  C   UNL     1      47.079   0.721   7.645  0.00  0.00    +0.000 A 
ATOM     30  N   UNL     1      47.817   1.372   6.719  0.00  0.00    +0.000 NA
ATOM     31  C   UNL     1      47.460   2.644   6.446  0.00  0.00    +0.000 A 
ATOM     32  C   UNL     1      46.399   3.288   7.051  0.00  0.00    +0.000 A 
ENDBRANCH  26  27
ENDBRANCH  23  26
ENDBRANCH  19  20
ENDBRANCH   3  19
TORSDOF 5
ENDMDL
MODEL 4
REMARK VINA RESULT:    -8.613      1.897      2.522
REMARK INTER + INTRA:         -11.578
REMARK INTER:                 -11.251
REMARK INTRA:                  -0.327
REMARK UNBOUND:                -0.448
REMARK  Name = 
REMARK  5 active torsions:
REMARK  status: ('A' for Active; 'I' for Inactive)
REMARK    1  A    between atoms: C_8  and  C_9
REMARK    2  A    between atoms: N_11  and  C_12
REMARK    3  A    between atoms: C_12  and  C_13
REMARK    4  A    between atoms: C_16  and  O_17
REMARK    5  A    between atoms: O_17  and  C_18
REMARK                            x       y       z     vdW  Elec       q    Type
REMARK                         _______ _______ _______ _____ _____    ______ ____
ROOT
ATOM      1  C   UNL     1      47.717   5.767  14.499  0.00  0.00    +0.000 C 
ATOM      2  O   UNL     1      48.705   6.214  13.915  0.00  0.00    +0.000 OA
ATOM      3  N   UNL     1      46.456   5.909  13.982  0.00  0.00    +0.000 N 
ATOM      4  H   UNL     1      45.651   5.573  14.501  0.00  0.00    +0.000 HD
ENDROOT
BRANCH   1  12
ATOM      5  N   UNL     1      48.459   3.603  20.340  0.00  0.00    +0.000 N 
ATOM      6  C   UNL     1      48.585   4.591  19.402  0.00  0.00    +0.000 A 
ATOM      7  N   UNL     1      49.063   5.742  19.808  0.00  0.00    +0.000 NA
ATOM      8  N   UNL     1      49.180   6.769  18.897  0.00  0.00    +0.000 N 
ATOM      9  C   UNL     1      48.820   6.739  17.559  0.00  0.00    +0.000 A 
ATOM     10  O   UNL     1      48.933   7.732  16.845  0.00  0.00    +0.000 OA
ATOM     11  C   UNL     1      48.314   5.460  17.083  0.00  0.00    +0.000 A 
ATOM     12  C   UNL     1      47.854   5.041  15.772  0.00  0.00    +0.000 A 
ATOM     13  C   UNL     1      47.485   3.699  15.819  0.00  0.00    +0.000 A 
ATOM     14  S   UNL     1      47.659   2.986  17.357  0.00  0.00    +0.000 S 
ATOM     15  C   UNL     1      48.226   4.439  18.007  0.00  0.00    +0.000 A 
ATOM     16  H   UNL     1      49.006   3.760  21.178  0.00  0.00    +0.000 HD
ATOM     17  H   UNL     1      48.451   2.649  20.002  0.00  0.00    +0.000 HD
ATOM     18  H   UNL     1      49.531   7.647  19.262  0.00  0.00    +0.000 HD
ENDBRANCH   1  12
BRANCH   3  19
ATOM     19  C   UNL     1      46.209   6.561  12.721  0.00  0.00    +0.000 C 
BRANCH  19  20
ATOM     20  C   UNL     1      45.743   5.599  11.670  0.00  0.00    +0.000 A 
ATOM     21  C   UNL     1      45.743   5.930  10.308  0.00  0.00    +0.000 A 
ATOM     22  C   UNL     1      45.356   4.979   9.366  0.00  0.00    +0.000 A 
ATOM     23  C   UNL     1      44.974   3.728   9.821  0.00  0.00    +0.000 A 
ATOM     24  N   UNL     1      44.893   3.402  11.131  0.00  0.00    +0.000 NA
ATOM     25  C   UNL     1      45.285   4.336  12.021  0.00  0.00    +0.000 A 
BRANCH  23  26
ATOM     26  O   UNL     1      44.695   2.755   8.866  0.00  0.00    +0.000 OA
BRANCH  26  27
ATOM     27  C   UNL     1      45.756   2.342   8.084  0.00  0.00    +0.000 A 
ATOM     28  C   UNL     1      46.157   1.016   8.189  0.00  0.00    +0.000 A 
ATOM     29  C   UNL     1      47.242   0.611   7.429  0.00  0.00    +0.000 A 
ATOM     30  N   UNL     1      47.923   1.421   6.587  0.00  0.00    +0.000 NA
ATOM     31  C   UNL     1      47.487   2.693   6.487  0.00  0.00    +0.000 A 
ATOM     32  C   UNL     1      46.402   3.188   7.184  0.00  0.00    +0.000 A 
ENDBRANCH  26  27
ENDBRANCH  23  26
ENDBRANCH  19  20
ENDBRANCH   3  19
TORSDOF 5
ENDMDL
MODEL 5
REMARK VINA RESULT:    -8.176      1.899      2.623
REMARK INTER + INTRA:         -11.014
REMARK INTER:                 -10.413
REMARK INTRA:                  -0.601
REMARK UNBOUND:                -0.448
REMARK  Name = 
REMARK  5 active torsions:
REMARK  status: ('A' for Active; 'I' for Inactive)
REMARK    1  A    between atoms: C_8  and  C_9
REMARK    2  A    between atoms: N_11  and  C_12
REMARK    3  A    between atoms: C_12  and  C_13
REMARK    4  A    between atoms: C_16  and  O_17
REMARK    5  A    between atoms: O_17  and  C_18
REMARK                            x       y       z     vdW  Elec       q    Type
REMARK                         _______ _______ _______ _____ _____    ______ ____
ROOT
ATOM      1  C   UNL     1      47.445   6.018  13.565  0.00  0.00    +0.000 C 
ATOM      2  O   UNL     1      47.500   4.794  13.692  0.00  0.00    +0.000 OA
ATOM      3  N   UNL     1      46.271   6.653  13.260  0.00  0.00    +0.000 N 
ATOM      4  H   UNL     1      46.257   7.658  13.115  0.00  0.00    +0.000 HD
ENDROOT
BRANCH   1  12
ATOM      5  N   UNL     1      52.658   9.064  15.269  0.00  0.00    +0.000 N 
ATOM      6  C   UNL     1      51.586   8.266  15.561  0.00  0.00    +0.000 A 
ATOM      7  N   UNL     1      51.501   7.804  16.784  0.00  0.00    +0.000 NA
ATOM      8  N   UNL     1      50.449   6.976  17.108  0.00  0.00    +0.000 N 
ATOM      9  C   UNL     1      49.444   6.538  16.261  0.00  0.00    +0.000 A 
ATOM     10  O   UNL     1      48.572   5.766  16.650  0.00  0.00    +0.000 OA
ATOM     11  C   UNL     1      49.504   7.065  14.905  0.00  0.00    +0.000 A 
ATOM     12  C   UNL     1      48.643   6.853  13.757  0.00  0.00    +0.000 A 
ATOM     13  C   UNL     1      49.113   7.602  12.682  0.00  0.00    +0.000 A 
ATOM     14  S   UNL     1      50.524   8.496  13.024  0.00  0.00    +0.000 S 
ATOM     15  C   UNL     1      50.554   7.910  14.609  0.00  0.00    +0.000 A 
ATOM     16  H   UNL     1      53.119   9.448  16.085  0.00  0.00    +0.000 HD
ATOM     17  H   UNL     1      52.555   9.703  14.491  0.00  0.00    +0.000 HD
ATOM     18  H   UNL     1      50.439   6.622  18.059  0.00  0.00    +0.000 HD
ENDBRANCH   1  12
BRANCH   3  19
ATOM     19  C   UNL     1      45.029   5.942  13.095  0.00  0.00    +0.000 C 
BRANCH  19  20
ATOM     20  C   UNL     1      44.971   5.202  11.792  0.00  0.00    +0.000 A 
ATOM     21  C   UNL     1      44.293   3.983  11.659  0.00  0.00    +0.000 A 
ATOM     22  C   UNL     1      44.219   3.366  10.412  0.00  0.00    +0.000 A 
ATOM     23  C   UNL     1      44.833   3.988   9.339  0.00  0.00    +0.000 A 
ATOM     24  N   UNL     1      45.556   5.126   9.449  0.00  0.00    +0.000 NA
ATOM     25  C   UNL     1      45.602   5.709  10.664  0.00  0.00    +0.000 A 
BRANCH  23  26
ATOM     26  O   UNL     1      44.659   3.419   8.080  0.00  0.00    +0.000 OA
BRANCH  26  27
ATOM     27  C   UNL     1      45.750   2.761   7.549  0.00  0.00    +0.000 A 
ATOM     28  C   UNL     1      46.090   1.531   8.096  0.00  0.00    +0.000 A 
ATOM     29  C   UNL     1      47.205   0.885   7.585  0.00  0.00    +0.000 A 
ATOM     30  N   UNL     1      47.970   1.374   6.584  0.00  0.00    +0.000 NA
ATOM     31  C   UNL     1      47.593   2.556   6.055  0.00  0.00    +0.000 A 
ATOM     32  C   UNL     1      46.486   3.266   6.478  0.00  0.00    +0.000 A 
ENDBRANCH  26  27
ENDBRANCH  23  26
ENDBRANCH  19  20
ENDBRANCH   3  19
TORSDOF 5
ENDMDL
MODEL 6
REMARK VINA RESULT:    -8.149      2.148      3.081
REMARK INTER + INTRA:         -10.979
REMARK INTER:                 -10.115
REMARK INTRA:                  -0.864
REMARK UNBOUND:                -0.448
REMARK  Name = 
REMARK  5 active torsions:
REMARK  status: ('A' for Active; 'I' for Inactive)
REMARK    1  A    between atoms: C_8  and  C_9
REMARK    2  A    between atoms: N_11  and  C_12
REMARK    3  A    between atoms: C_12  and  C_13
REMARK    4  A    between atoms: C_16  and  O_17
REMARK    5  A    between atoms: O_17  and  C_18
REMARK                            x       y       z     vdW  Elec       q    Type
REMARK                         _______ _______ _______ _____ _____    ______ ____
ROOT
ATOM      1  C   UNL     1      48.750   7.067  15.000  0.00  0.00    +0.000 C 
ATOM      2  O   UNL     1      49.676   6.947  14.197  0.00  0.00    +0.000 OA
ATOM      3  N   UNL     1      47.562   7.646  14.638  0.00  0.00    +0.000 N 
ATOM      4  H   UNL     1      46.828   7.776  15.327  0.00  0.00    +0.000 HD
ENDROOT
BRANCH   1  12
ATOM      5  N   UNL     1      49.074   4.039  20.484  0.00  0.00    +0.000 N 
ATOM      6  C   UNL     1      48.700   4.103  19.169  0.00  0.00    +0.000 A 
ATOM      7  N   UNL     1      48.140   3.035  18.656  0.00  0.00    +0.000 NA
ATOM      8  N   UNL     1      47.774   3.053  17.328  0.00  0.00    +0.000 N 
ATOM      9  C   UNL     1      47.953   4.092  16.430  0.00  0.00    +0.000 A 
ATOM     10  O   UNL     1      47.621   3.983  15.252  0.00  0.00    +0.000 OA
ATOM     11  C   UNL     1      48.547   5.298  16.989  0.00  0.00    +0.000 A 
ATOM     12  C   UNL     1      48.876   6.574  16.381  0.00  0.00    +0.000 A 
ATOM     13  C   UNL     1      49.414   7.421  17.346  0.00  0.00    +0.000 A 
ATOM     14  S   UNL     1      49.539   6.717  18.894  0.00  0.00    +0.000 S 
ATOM     15  C   UNL     1      48.885   5.266  18.327  0.00  0.00    +0.000 A 
ATOM     16  H   UNL     1      48.629   3.291  21.002  0.00  0.00    +0.000 HD
ATOM     17  H   UNL     1      49.156   4.918  20.979  0.00  0.00    +0.000 HD
ATOM     18  H   UNL     1      47.367   2.196  16.968  0.00  0.00    +0.000 HD
ENDBRANCH   1  12
BRANCH   3  19
ATOM     19  C   UNL     1      47.311   8.123  13.302  0.00  0.00    +0.000 C 
BRANCH  19  20
ATOM     20  C   UNL     1      46.365   7.233  12.553  0.00  0.00    +0.000 A 
ATOM     21  C   UNL     1      45.287   7.746  11.820  0.00  0.00    +0.000 A 
ATOM     22  C   UNL     1      44.471   6.880  11.093  0.00  0.00    +0.000 A 
ATOM     23  C   UNL     1      44.760   5.527  11.131  0.00  0.00    +0.000 A 
ATOM     24  N   UNL     1      45.747   4.994  11.888  0.00  0.00    +0.000 NA
ATOM     25  C   UNL     1      46.528   5.855  12.571  0.00  0.00    +0.000 A 
BRANCH  23  26
ATOM     26  O   UNL     1      44.008   4.686  10.316  0.00  0.00    +0.000 OA
BRANCH  26  27
ATOM     27  C   UNL     1      44.718   3.847   9.481  0.00  0.00    +0.000 A 
ATOM     28  C   UNL     1      45.474   4.430   8.472  0.00  0.00    +0.000 A 
ATOM     29  C   UNL     1      46.160   3.587   7.613  0.00  0.00    +0.000 A 
ATOM     30  N   UNL     1      46.147   2.238   7.705  0.00  0.00    +0.000 NA
ATOM     31  C   UNL     1      45.428   1.707   8.715  0.00  0.00    +0.000 A 
ATOM     32  C   UNL     1      44.729   2.461   9.636  0.00  0.00    +0.000 A 
ENDBRANCH  26  27
ENDBRANCH  23  26
ENDBRANCH  19  20
ENDBRANCH   3  19
TORSDOF 5
ENDMDL
MODEL 7
REMARK VINA RESULT:    -7.566      4.024      8.542
REMARK INTER + INTRA:         -10.226
REMARK INTER:                  -9.212
REMARK INTRA:                  -1.014
REMARK UNBOUND:                -0.448
REMARK  Name = 
REMARK  5 active torsions:
REMARK  status: ('A' for Active; 'I' for Inactive)
REMARK    1  A    between atoms: C_8  and  C_9
REMARK    2  A    between atoms: N_11  and  C_12
REMARK    3  A    between atoms: C_12  and  C_13
REMARK    4  A    between atoms: C_16  and  O_17
REMARK    5  A    between atoms: O_17  and  C_18
REMARK                            x       y       z     vdW  Elec       q    Type
REMARK                         _______ _______ _______ _____ _____    ______ ____
ROOT
ATOM      1  C   UNL     1      47.294   7.807  13.192  0.00  0.00    +0.000 C 
ATOM      2  O   UNL     1      48.039   8.449  12.451  0.00  0.00    +0.000 OA
ATOM      3  N   UNL     1      47.455   7.820  14.552  0.00  0.00    +0.000 N 
ATOM      4  H   UNL     1      46.859   7.248  15.142  0.00  0.00    +0.000 HD
ENDROOT
BRANCH   1  12
ATOM      5  N   UNL     1      42.918   3.658  11.467  0.00  0.00    +0.000 N 
ATOM      6  C   UNL     1      44.114   3.963  12.054  0.00  0.00    +0.000 A 
ATOM      7  N   UNL     1      44.774   2.979  12.613  0.00  0.00    +0.000 NA
ATOM      8  N   UNL     1      45.971   3.253  13.238  0.00  0.00    +0.000 N 
ATOM      9  C   UNL     1      46.574   4.493  13.371  0.00  0.00    +0.000 A 
ATOM     10  O   UNL     1      47.629   4.627  13.985  0.00  0.00    +0.000 OA
ATOM     11  C   UNL     1      45.871   5.595  12.731  0.00  0.00    +0.000 A 
ATOM     12  C   UNL     1      46.185   7.010  12.644  0.00  0.00    +0.000 A 
ATOM     13  C   UNL     1      45.202   7.656  11.900  0.00  0.00    +0.000 A 
ATOM     14  S   UNL     1      43.957   6.628  11.353  0.00  0.00    +0.000 S 
ATOM     15  C   UNL     1      44.685   5.294  12.092  0.00  0.00    +0.000 A 
ATOM     16  H   UNL     1      42.796   2.671  11.271  0.00  0.00    +0.000 HD
ATOM     17  H   UNL     1      42.589   4.285  10.744  0.00  0.00    +0.000 HD
ATOM     18  H   UNL     1      46.433   2.464  13.677  0.00  0.00    +0.000 HD
ENDBRANCH   1  12
BRANCH   3  19
ATOM     19  C   UNL     1      48.478   8.601  15.201  0.00  0.00    +0.000 C 
BRANCH  19  20
ATOM     20  C   UNL     1      49.384   7.754  16.044  0.00  0.00    +0.000 A 
ATOM     21  C   UNL     1      49.170   7.580  17.419  0.00  0.00    +0.000 A 
ATOM     22  C   UNL     1      50.008   6.736  18.146  0.00  0.00    +0.000 A 
ATOM     23  C   UNL     1      51.036   6.099  17.473  0.00  0.00    +0.000 A 
ATOM     24  N   UNL     1      51.312   6.304  16.164  0.00  0.00    +0.000 NA
ATOM     25  C   UNL     1      50.480   7.115  15.481  0.00  0.00    +0.000 A 
BRANCH  23  26
ATOM     26  O   UNL     1      51.796   5.176  18.185  0.00  0.00    +0.000 OA
BRANCH  26  27
ATOM     27  C   UNL     1      51.582   3.845  17.886  0.00  0.00    +0.000 A 
ATOM     28  C   UNL     1      52.657   2.975  18.012  0.00  0.00    +0.000 A 
ATOM     29  C   UNL     1      52.451   1.646  17.680  0.00  0.00    +0.000 A 
ATOM     30  N   UNL     1      51.269   1.146  17.253  0.00  0.00    +0.000 NA
ATOM     31  C   UNL     1      50.239   2.013  17.172  0.00  0.00    +0.000 A 
ATOM     32  C   UNL     1      50.336   3.350  17.502  0.00  0.00    +0.000 A 
ENDBRANCH  26  27
ENDBRANCH  23  26
ENDBRANCH  19  20
ENDBRANCH   3  19
TORSDOF 5
ENDMDL
MODEL 8
REMARK VINA RESULT:    -7.186      3.034      4.009
REMARK INTER + INTRA:          -9.735
REMARK INTER:                  -9.029
REMARK INTRA:                  -0.706
REMARK UNBOUND:                -0.448
REMARK  Name = 
REMARK  5 active torsions:
REMARK  status: ('A' for Active; 'I' for Inactive)
REMARK    1  A    between atoms: C_8  and  C_9
REMARK    2  A    between atoms: N_11  and  C_12
REMARK    3  A    between atoms: C_12  and  C_13
REMARK    4  A    between atoms: C_16  and  O_17
REMARK    5  A    between atoms: O_17  and  C_18
REMARK                            x       y       z     vdW  Elec       q    Type
REMARK                         _______ _______ _______ _____ _____    ______ ____
ROOT
ATOM      1  C   UNL     1      47.144   7.698  13.606  0.00  0.00    +0.000 C 
ATOM      2  O   UNL     1      46.680   8.721  13.101  0.00  0.00    +0.000 OA
ATOM      3  N   UNL     1      46.429   6.530  13.641  0.00  0.00    +0.000 N 
ATOM      4  H   UNL     1      46.812   5.711  14.103  0.00  0.00    +0.000 HD
ENDROOT
BRANCH   1  12
ATOM      5  N   UNL     1      53.202   8.122  15.178  0.00  0.00    +0.000 N 
ATOM      6  C   UNL     1      52.198   8.173  14.251  0.00  0.00    +0.000 A 
ATOM      7  N   UNL     1      52.531   8.503  13.028  0.00  0.00    +0.000 NA
ATOM      8  N   UNL     1      51.542   8.590  12.072  0.00  0.00    +0.000 N 
ATOM      9  C   UNL     1      50.185   8.387  12.260  0.00  0.00    +0.000 A 
ATOM     10  O   UNL     1      49.384   8.530  11.339  0.00  0.00    +0.000 OA
ATOM     11  C   UNL     1      49.798   7.991  13.606  0.00  0.00    +0.000 A 
ATOM     12  C   UNL     1      48.500   7.685  14.179  0.00  0.00    +0.000 A 
ATOM     13  C   UNL     1      48.657   7.336  15.518  0.00  0.00    +0.000 A 
ATOM     14  S   UNL     1      50.270   7.394  16.066  0.00  0.00    +0.000 S 
ATOM     15  C   UNL     1      50.808   7.888  14.541  0.00  0.00    +0.000 A 
ATOM     16  H   UNL     1      54.130   8.062  14.776  0.00  0.00    +0.000 HD
ATOM     17  H   UNL     1      53.046   7.540  15.991  0.00  0.00    +0.000 HD
ATOM     18  H   UNL     1      51.844   8.872  11.146  0.00  0.00    +0.000 HD
ENDBRANCH   1  12
BRANCH   3  19
ATOM     19  C   UNL     1      45.111   6.416  13.071  0.00  0.00    +0.000 C 
BRANCH  19  20
ATOM     20  C   UNL     1      45.057   5.393  11.975  0.00  0.00    +0.000 A 
ATOM     21  C   UNL     1      45.232   4.026  12.227  0.00  0.00    +0.000 A 
ATOM     22  C   UNL     1      45.113   3.111  11.182  0.00  0.00    +0.000 A 
ATOM     23  C   UNL     1      44.830   3.597   9.917  0.00  0.00    +0.000 A 
ATOM     24  N   UNL     1      44.729   4.915   9.630  0.00  0.00    +0.000 NA
ATOM     25  C   UNL     1      44.835   5.778  10.660  0.00  0.00    +0.000 A 
BRANCH  23  26
ATOM     26  O   UNL     1      44.606   2.667   8.906  0.00  0.00    +0.000 OA
BRANCH  26  27
ATOM     27  C   UNL     1      45.712   2.276   8.179  0.00  0.00    +0.000 A 
ATOM     28  C   UNL     1      46.041   0.926   8.182  0.00  0.00    +0.000 A 
ATOM     29  C   UNL     1      47.170   0.538   7.479  0.00  0.00    +0.000 A 
ATOM     30  N   UNL     1      47.959   1.387   6.784  0.00  0.00    +0.000 NA
ATOM     31  C   UNL     1      47.593   2.685   6.776  0.00  0.00    +0.000 A 
ATOM     32  C   UNL     1      46.474   3.168   7.425  0.00  0.00    +0.000 A 
ENDBRANCH  26  27
ENDBRANCH  23  26
ENDBRANCH  19  20
ENDBRANCH   3  19
TORSDOF 5
ENDMDL
MODEL 9
REMARK VINA RESULT:    -6.701      3.867      8.815
REMARK INTER + INTRA:          -9.108
REMARK INTER:                  -7.828
REMARK INTRA:                  -1.279
REMARK UNBOUND:                -0.448
REMARK  Name = 
REMARK  5 active torsions:
REMARK  status: ('A' for Active; 'I' for Inactive)
REMARK    1  A    between atoms: C_8  and  C_9
REMARK    2  A    between atoms: N_11  and  C_12
REMARK    3  A    between atoms: C_12  and  C_13
REMARK    4  A    between atoms: C_16  and  O_17
REMARK    5  A    between atoms: O_17  and  C_18
REMARK                            x       y       z     vdW  Elec       q    Type
REMARK                         _______ _______ _______ _____ _____    ______ ____
ROOT
ATOM      1  C   UNL     1      46.260   7.970  12.585  0.00  0.00    +0.000 C 
ATOM      2  O   UNL     1      45.777   8.909  13.221  0.00  0.00    +0.000 OA
ATOM      3  N   UNL     1      47.582   7.955  12.227  0.00  0.00    +0.000 N 
ATOM      4  H   UNL     1      47.949   7.194  11.665  0.00  0.00    +0.000 HD
ENDROOT
BRANCH   1  12
ATOM      5  N   UNL     1      43.309   2.518  11.632  0.00  0.00    +0.000 N 
ATOM      6  C   UNL     1      44.364   3.241  12.116  0.00  0.00    +0.000 A 
ATOM      7  N   UNL     1      45.291   2.583  12.767  0.00  0.00    +0.000 NA
ATOM      8  N   UNL     1      46.356   3.282  13.292  0.00  0.00    +0.000 N 
ATOM      9  C   UNL     1      46.562   4.651  13.233  0.00  0.00    +0.000 A 
ATOM     10  O   UNL     1      47.534   5.174  13.772  0.00  0.00    +0.000 OA
ATOM     11  C   UNL     1      45.558   5.396  12.488  0.00  0.00    +0.000 A 
ATOM     12  C   UNL     1      45.435   6.813  12.201  0.00  0.00    +0.000 A 
ATOM     13  C   UNL     1      44.299   7.031  11.426  0.00  0.00    +0.000 A 
ATOM     14  S   UNL     1      43.414   5.616  11.080  0.00  0.00    +0.000 S 
ATOM     15  C   UNL     1      44.512   4.672  11.952  0.00  0.00    +0.000 A 
ATOM     16  H   UNL     1      43.486   1.521  11.574  0.00  0.00    +0.000 HD
ATOM     17  H   UNL     1      42.803   2.912  10.850  0.00  0.00    +0.000 HD
ATOM     18  H   UNL     1      47.035   2.734  13.809  0.00  0.00    +0.000 HD
ENDBRANCH   1  12
BRANCH   3  19
ATOM     19  C   UNL     1      48.491   9.012  12.590  0.00  0.00    +0.000 C 
BRANCH  19  20
ATOM     20  C   UNL     1      49.071   8.814  13.958  0.00  0.00    +0.000 A 
ATOM     21  C   UNL     1      48.889   9.750  14.985  0.00  0.00    +0.000 A 
ATOM     22  C   UNL     1      49.399   9.489  16.256  0.00  0.00    +0.000 A 
ATOM     23  C   UNL     1      50.082   8.301  16.454  0.00  0.00    +0.000 A 
ATOM     24  N   UNL     1      50.338   7.413  15.465  0.00  0.00    +0.000 NA
ATOM     25  C   UNL     1      49.823   7.683  14.249  0.00  0.00    +0.000 A 
BRANCH  23  26
ATOM     26  O   UNL     1      50.491   8.003  17.750  0.00  0.00    +0.000 OA
BRANCH  26  27
ATOM     27  C   UNL     1      49.898   6.906  18.342  0.00  0.00    +0.000 A 
ATOM     28  C   UNL     1      50.730   5.894  18.804  0.00  0.00    +0.000 A 
ATOM     29  C   UNL     1      50.133   4.778  19.368  0.00  0.00    +0.000 A 
ATOM     30  N   UNL     1      48.797   4.621  19.505  0.00  0.00    +0.000 NA
ATOM     31  C   UNL     1      48.021   5.636  19.075  0.00  0.00    +0.000 A 
ATOM     32  C   UNL     1      48.519   6.799  18.520  0.00  0.00    +0.000 A 
ENDBRANCH  26  27
ENDBRANCH  23  26
ENDBRANCH  19  20
ENDBRANCH   3  19
TORSDOF 5
ENDMDL
