MODEL 1
REMARK VINA RESULT:    -8.039      0.000      0.000
REMARK INTER + INTRA:         -12.706
REMARK INTER:                 -11.564
REMARK INTRA:                  -1.142
REMARK UNBOUND:                -1.142
REMARK  Name = 
REMARK  8 active torsions:
REMARK  status: ('A' for Active; 'I' for Inactive)
REMARK    1  A    between atoms: N_1  and  C_2
REMARK    2  A    between atoms: C_2  and  C_3
REMARK    3  A    between atoms: C_2  and  C_19
REMARK    4  A    between atoms: C_3  and  C_4
REMARK    5  A    between atoms: C_7  and  C_8
REMARK    6  A    between atoms: C_8  and  O_9
REMARK    7  A    between atoms: O_9  and  C_10
REMARK    8  A    between atoms: C_10  and  C_11
REMARK                            x       y       z     vdW  Elec       q    Type
REMARK                         _______ _______ _______ _____ _____    ______ ____
ROOT
ATOM      1  C   UNL     1      47.521   7.550  13.286  0.00  0.00    +0.000 C 
ENDROOT
BRANCH   1   2
ATOM      2  C   UNL     1      46.446   6.793  12.539  0.00  0.00    +0.000 A 
ATOM      3  C   UNL     1      46.576   6.489  11.179  0.00  0.00    +0.000 A 
ATOM      4  C   UNL     1      45.595   5.736  10.525  0.00  0.00    +0.000 A 
ATOM      5  C   UNL     1      44.471   5.260  11.216  0.00  0.00    +0.000 A 
ATOM      6  C   UNL     1      44.346   5.555  12.577  0.00  0.00    +0.000 A 
ATOM      7  C   UNL     1      45.324   6.312  13.229  0.00  0.00    +0.000 A 
BRANCH   5   8
ATOM      8  C   UNL     1      43.430   4.441  10.498  0.00  0.00    +0.000 C 
BRANCH   8   9
ATOM      9  O   UNL     1      44.018   3.933   9.307  0.00  0.00    +0.000 OA
BRANCH   9  10
ATOM     10  C   UNL     1      44.566   2.627   9.487  0.00  0.00    +0.000 C 
BRANCH  10  11
ATOM     11  C   UNL     1      45.624   2.345   8.442  0.00  0.00    +0.000 A 
ATOM     12  C   UNL     1      46.123   3.367   7.634  0.00  0.00    +0.000 A 
ATOM     13  C   UNL     1      47.111   3.074   6.699  0.00  0.00    +0.000 A 
ATOM     14  C   UNL     1      47.587   1.773   6.600  0.00  0.00    +0.000 A 
ATOM     15  C   UNL     1      47.051   0.816   7.446  0.00  0.00    +0.000 A 
ATOM     16  N   UNL     1      46.092   1.072   8.365  0.00  0.00    +0.000 NA
ENDBRANCH  10  11
ENDBRANCH   9  10
ENDBRANCH   8   9
ENDBRANCH   5   8
ENDBRANCH   1   2
BRANCH   1  17
ATOM     17  C   UNL     1      48.750   6.741  13.771  0.00  0.00    +0.000 C 
BRANCH  17  18
ATOM     18  C   UNL     1      48.657   6.527  15.277  0.00  0.00    +0.000 A 
ATOM     19  N   UNL     1      49.058   7.508  16.102  0.00  0.00    +0.000 NA
ATOM     20  S   UNL     1      48.821   7.031  17.675  0.00  0.00    +0.000 S 
ATOM     21  C   UNL     1      48.170   5.502  17.304  0.00  0.00    +0.000 A 
ATOM     22  N   UNL     1      47.755   4.596  18.231  0.00  0.00    +0.000 NA
ATOM     23  C   UNL     1      47.291   3.504  17.715  0.00  0.00    +0.000 A 
ATOM     24  N   UNL     1      47.203   3.244  16.366  0.00  0.00    +0.000 N 
ATOM     25  C   UNL     1      47.595   4.141  15.398  0.00  0.00    +0.000 A 
ATOM     26  O   UNL     1      47.478   3.904  14.202  0.00  0.00    +0.000 OA
ATOM     27  C   UNL     1      48.136   5.366  15.932  0.00  0.00    +0.000 A 
ATOM     28  H   UNL     1      46.820   2.372  16.032  0.00  0.00    +0.000 HD
ENDBRANCH  17  18
BRANCH  17  29
ATOM     29  N   UNL     1      50.030   7.412  13.467  0.00  0.00    +0.000 NA
ATOM     30  H   UNL     1      49.960   7.815  12.532  0.00  0.00    +0.000 HD
ATOM     31  H   UNL     1      50.735   6.678  13.367  0.00  0.00    +0.000 HD
ENDBRANCH  17  29
ENDBRANCH   1  17
TORSDOF 8
ENDMDL
MODEL 2
REMARK VINA RESULT:    -7.852      2.199      2.847
REMARK INTER + INTRA:         -12.437
REMARK INTER:                 -11.789
REMARK INTRA:                  -0.648
REMARK UNBOUND:                -1.142
REMARK  Name = 
REMARK  8 active torsions:
REMARK  status: ('A' for Active; 'I' for Inactive)
REMARK    1  A    between atoms: N_1  and  C_2
REMARK    2  A    between atoms: C_2  and  C_3
REMARK    3  A    between atoms: C_2  and  C_19
REMARK    4  A    between atoms: C_3  and  C_4
REMARK    5  A    between atoms: C_7  and  C_8
REMARK    6  A    between atoms: C_8  and  O_9
REMARK    7  A    between atoms: O_9  and  C_10
REMARK    8  A    between atoms: C_10  and  C_11
REMARK                            x       y       z     vdW  Elec       q    Type
REMARK                         _______ _______ _______ _____ _____    ______ ____
ROOT
ATOM      1  C   UNL     1      47.847   4.602  14.882  0.00  0.00    +0.000 C 
ENDROOT
BRANCH   1   2
ATOM      2  C   UNL     1      46.674   4.510  13.932  0.00  0.00    +0.000 A 
ATOM      3  C   UNL     1      45.891   5.629  13.627  0.00  0.00    +0.000 A 
ATOM      4  C   UNL     1      44.848   5.531  12.698  0.00  0.00    +0.000 A 
ATOM      5  C   UNL     1      44.575   4.320  12.046  0.00  0.00    +0.000 A 
ATOM      6  C   UNL     1      45.366   3.205  12.342  0.00  0.00    +0.000 A 
ATOM      7  C   UNL     1      46.404   3.301  13.274  0.00  0.00    +0.000 A 
BRANCH   5   8
ATOM      8  C   UNL     1      43.457   4.235  11.040  0.00  0.00    +0.000 C 
BRANCH   8   9
ATOM      9  O   UNL     1      43.854   3.327  10.020  0.00  0.00    +0.000 OA
BRANCH   9  10
ATOM     10  C   UNL     1      44.433   3.992   8.897  0.00  0.00    +0.000 C 
BRANCH  10  11
ATOM     11  C   UNL     1      45.468   3.111   8.231  0.00  0.00    +0.000 A 
ATOM     12  C   UNL     1      46.367   3.639   7.304  0.00  0.00    +0.000 A 
ATOM     13  C   UNL     1      47.320   2.803   6.728  0.00  0.00    +0.000 A 
ATOM     14  C   UNL     1      47.362   1.466   7.100  0.00  0.00    +0.000 A 
ATOM     15  C   UNL     1      46.445   1.020   8.037  0.00  0.00    +0.000 A 
ATOM     16  N   UNL     1      45.510   1.808   8.614  0.00  0.00    +0.000 NA
ENDBRANCH  10  11
ENDBRANCH   9  10
ENDBRANCH   8   9
ENDBRANCH   5   8
ENDBRANCH   1   2
BRANCH   1  17
ATOM     17  C   UNL     1      47.534   4.572  16.400  0.00  0.00    +0.000 C 
BRANCH  17  18
ATOM     18  C   UNL     1      48.837   4.600  17.189  0.00  0.00    +0.000 A 
ATOM     19  N   UNL     1      49.132   5.684  17.923  0.00  0.00    +0.000 NA
ATOM     20  S   UNL     1      50.579   5.443  18.700  0.00  0.00    +0.000 S 
ATOM     21  C   UNL     1      50.855   3.879  18.087  0.00  0.00    +0.000 A 
ATOM     22  N   UNL     1      51.940   3.114  18.384  0.00  0.00    +0.000 NA
ATOM     23  C   UNL     1      51.933   1.957  17.804  0.00  0.00    +0.000 A 
ATOM     24  N   UNL     1      50.943   1.502  16.964  0.00  0.00    +0.000 N 
ATOM     25  C   UNL     1      49.821   2.238  16.652  0.00  0.00    +0.000 A 
ATOM     26  O   UNL     1      48.934   1.802  15.928  0.00  0.00    +0.000 OA
ATOM     27  C   UNL     1      49.799   3.543  17.265  0.00  0.00    +0.000 A 
ATOM     28  H   UNL     1      50.996   0.582  16.552  0.00  0.00    +0.000 HD
ENDBRANCH  17  18
BRANCH  17  29
ATOM     29  N   UNL     1      46.765   3.375  16.799  0.00  0.00    +0.000 NA
ATOM     30  H   UNL     1      47.380   2.565  16.717  0.00  0.00    +0.000 HD
ATOM     31  H   UNL     1      46.057   3.222  16.078  0.00  0.00    +0.000 HD
ENDBRANCH  17  29
ENDBRANCH   1  17
TORSDOF 8
ENDMDL
MODEL 3
REMARK VINA RESULT:    -7.636      2.103      3.224
REMARK INTER + INTRA:         -12.125
REMARK INTER:                 -11.246
REMARK INTRA:                  -0.879
REMARK UNBOUND:                -1.142
REMARK  Name = 
REMARK  8 active torsions:
REMARK  status: ('A' for Active; 'I' for Inactive)
REMARK    1  A    between atoms: N_1  and  C_2
REMARK    2  A    between atoms: C_2  and  C_3
REMARK    3  A    between atoms: C_2  and  C_19
REMARK    4  A    between atoms: C_3  and  C_4
REMARK    5  A    between atoms: C_7  and  C_8
REMARK    6  A    between atoms: C_8  and  O_9
REMARK    7  A    between atoms: O_9  and  C_10
REMARK    8  A    between atoms: C_10  and  C_11
REMARK                            x       y       z     vdW  Elec       q    Type
REMARK                         _______ _______ _______ _____ _____    ______ ____
ROOT
ATOM      1  C   UNL     1      47.526   3.434  15.288  0.00  0.00    +0.000 C 
ENDROOT
BRANCH   1   2
ATOM      2  C   UNL     1      46.849   4.072  14.096  0.00  0.00    +0.000 A 
ATOM      3  C   UNL     1      47.059   5.417  13.769  0.00  0.00    +0.000 A 
ATOM      4  C   UNL     1      46.468   5.968  12.626  0.00  0.00    +0.000 A 
ATOM      5  C   UNL     1      45.669   5.186  11.779  0.00  0.00    +0.000 A 
ATOM      6  C   UNL     1      45.469   3.839  12.100  0.00  0.00    +0.000 A 
ATOM      7  C   UNL     1      46.054   3.291  13.245  0.00  0.00    +0.000 A 
BRANCH   5   8
ATOM      8  C   UNL     1      45.051   5.792  10.546  0.00  0.00    +0.000 C 
BRANCH   8   9
ATOM      9  O   UNL     1      45.710   5.243   9.412  0.00  0.00    +0.000 OA
BRANCH   9  10
ATOM     10  C   UNL     1      44.907   4.279   8.731  0.00  0.00    +0.000 C 
BRANCH  10  11
ATOM     11  C   UNL     1      45.775   3.214   8.096  0.00  0.00    +0.000 A 
ATOM     12  C   UNL     1      46.716   3.546   7.121  0.00  0.00    +0.000 A 
ATOM     13  C   UNL     1      47.512   2.543   6.575  0.00  0.00    +0.000 A 
ATOM     14  C   UNL     1      47.360   1.238   7.022  0.00  0.00    +0.000 A 
ATOM     15  C   UNL     1      46.413   0.990   8.003  0.00  0.00    +0.000 A 
ATOM     16  N   UNL     1      45.628   1.943   8.552  0.00  0.00    +0.000 NA
ENDBRANCH  10  11
ENDBRANCH   9  10
ENDBRANCH   8   9
ENDBRANCH   5   8
ENDBRANCH   1   2
BRANCH   1  17
ATOM     17  C   UNL     1      47.189   4.010  16.687  0.00  0.00    +0.000 C 
BRANCH  17  18
ATOM     18  C   UNL     1      48.417   4.707  17.260  0.00  0.00    +0.000 A 
ATOM     19  N   UNL     1      49.607   4.525  16.667  0.00  0.00    +0.000 NA
ATOM     20  S   UNL     1      50.759   5.415  17.466  0.00  0.00    +0.000 S 
ATOM     21  C   UNL     1      49.704   6.077  18.625  0.00  0.00    +0.000 A 
ATOM     22  N   UNL     1      50.081   6.939  19.608  0.00  0.00    +0.000 NA
ATOM     23  C   UNL     1      49.105   7.315  20.370  0.00  0.00    +0.000 A 
ATOM     24  N   UNL     1      47.797   6.910  20.234  0.00  0.00    +0.000 N 
ATOM     25  C   UNL     1      47.373   6.053  19.243  0.00  0.00    +0.000 A 
ATOM     26  O   UNL     1      46.197   5.730  19.118  0.00  0.00    +0.000 OA
ATOM     27  C   UNL     1      48.434   5.597  18.381  0.00  0.00    +0.000 A 
ATOM     28  H   UNL     1      47.083   7.251  20.860  0.00  0.00    +0.000 HD
ENDBRANCH  17  18
BRANCH  17  29
ATOM     29  N   UNL     1      46.747   2.972  17.640  0.00  0.00    +0.000 NA
ATOM     30  H   UNL     1      45.753   2.802  17.481  0.00  0.00    +0.000 HD
ATOM     31  H   UNL     1      46.780   3.391  18.572  0.00  0.00    +0.000 HD
ENDBRANCH  17  29
ENDBRANCH   1  17
TORSDOF 8
ENDMDL
MODEL 4
REMARK VINA RESULT:    -7.286      2.513      3.793
REMARK INTER + INTRA:         -11.623
REMARK INTER:                 -10.665
REMARK INTRA:                  -0.958
REMARK UNBOUND:                -1.142
REMARK  Name = 
REMARK  8 active torsions:
REMARK  status: ('A' for Active; 'I' for Inactive)
REMARK    1  A    between atoms: N_1  and  C_2
REMARK    2  A    between atoms: C_2  and  C_3
REMARK    3  A    between atoms: C_2  and  C_19
REMARK    4  A    between atoms: C_3  and  C_4
REMARK    5  A    between atoms: C_7  and  C_8
REMARK    6  A    between atoms: C_8  and  O_9
REMARK    7  A    between atoms: O_9  and  C_10
REMARK    8  A    between atoms: C_10  and  C_11
REMARK                            x       y       z     vdW  Elec       q    Type
REMARK                         _______ _______ _______ _____ _____    ______ ____
ROOT
ATOM      1  C   UNL     1      47.902   6.611  13.822  0.00  0.00    +0.000 C 
ENDROOT
BRANCH   1   2
ATOM      2  C   UNL     1      46.728   6.049  13.052  0.00  0.00    +0.000 A 
ATOM      3  C   UNL     1      46.425   6.488  11.758  0.00  0.00    +0.000 A 
ATOM      4  C   UNL     1      45.370   5.909  11.043  0.00  0.00    +0.000 A 
ATOM      5  C   UNL     1      44.606   4.872  11.598  0.00  0.00    +0.000 A 
ATOM      6  C   UNL     1      44.917   4.426  12.887  0.00  0.00    +0.000 A 
ATOM      7  C   UNL     1      45.967   5.008  13.603  0.00  0.00    +0.000 A 
BRANCH   5   8
ATOM      8  C   UNL     1      43.482   4.252  10.810  0.00  0.00    +0.000 C 
BRANCH   8   9
ATOM      9  O   UNL     1      44.000   3.860   9.545  0.00  0.00    +0.000 OA
BRANCH   9  10
ATOM     10  C   UNL     1      44.553   2.544   9.571  0.00  0.00    +0.000 C 
BRANCH  10  11
ATOM     11  C   UNL     1      45.560   2.367   8.454  0.00  0.00    +0.000 A 
ATOM     12  C   UNL     1      45.884   3.429   7.608  0.00  0.00    +0.000 A 
ATOM     13  C   UNL     1      46.831   3.235   6.606  0.00  0.00    +0.000 A 
ATOM     14  C   UNL     1      47.441   1.994   6.480  0.00  0.00    +0.000 A 
ATOM     15  C   UNL     1      47.076   0.994   7.367  0.00  0.00    +0.000 A 
ATOM     16  N   UNL     1      46.162   1.154   8.350  0.00  0.00    +0.000 NA
ENDBRANCH  10  11
ENDBRANCH   9  10
ENDBRANCH   8   9
ENDBRANCH   5   8
ENDBRANCH   1   2
BRANCH   1  17
ATOM     17  C   UNL     1      48.140   8.140  13.735  0.00  0.00    +0.000 C 
BRANCH  17  18
ATOM     18  C   UNL     1      49.593   8.449  14.076  0.00  0.00    +0.000 A 
ATOM     19  N   UNL     1      49.902   8.839  15.322  0.00  0.00    +0.000 NA
ATOM     20  S   UNL     1      51.542   9.077  15.431  0.00  0.00    +0.000 S 
ATOM     21  C   UNL     1      51.892   8.661  13.817  0.00  0.00    +0.000 A 
ATOM     22  N   UNL     1      53.140   8.658  13.275  0.00  0.00    +0.000 NA
ATOM     23  C   UNL     1      53.164   8.302  12.032  0.00  0.00    +0.000 A 
ATOM     24  N   UNL     1      52.059   7.948  11.291  0.00  0.00    +0.000 N 
ATOM     25  C   UNL     1      50.782   7.921  11.808  0.00  0.00    +0.000 A 
ATOM     26  O   UNL     1      49.815   7.571  11.142  0.00  0.00    +0.000 OA
ATOM     27  C   UNL     1      50.710   8.329  13.189  0.00  0.00    +0.000 A 
ATOM     28  H   UNL     1      52.151   7.670  10.326  0.00  0.00    +0.000 HD
ENDBRANCH  17  18
BRANCH  17  29
ATOM     29  N   UNL     1      47.267   8.906  14.648  0.00  0.00    +0.000 NA
ATOM     30  H   UNL     1      47.023   9.783  14.186  0.00  0.00    +0.000 HD
ATOM     31  H   UNL     1      47.846   9.197  15.439  0.00  0.00    +0.000 HD
ENDBRANCH  17  29
ENDBRANCH   1  17
TORSDOF 8
ENDMDL
MODEL 5
REMARK VINA RESULT:    -7.239      2.151      2.825
REMARK INTER + INTRA:         -11.555
REMARK INTER:                 -10.627
REMARK INTRA:                  -0.928
REMARK UNBOUND:                -1.142
REMARK  Name = 
REMARK  8 active torsions:
REMARK  status: ('A' for Active; 'I' for Inactive)
REMARK    1  A    between atoms: N_1  and  C_2
REMARK    2  A    between atoms: C_2  and  C_3
REMARK    3  A    between atoms: C_2  and  C_19
REMARK    4  A    between atoms: C_3  and  C_4
REMARK    5  A    between atoms: C_7  and  C_8
REMARK    6  A    between atoms: C_8  and  O_9
REMARK    7  A    between atoms: O_9  and  C_10
REMARK    8  A    between atoms: C_10  and  C_11
REMARK                            x       y       z     vdW  Elec       q    Type
REMARK                         _______ _______ _______ _____ _____    ______ ____
ROOT
ATOM      1  C   UNL     1      48.486   6.735  13.126  0.00  0.00    +0.000 C 
ENDROOT
BRANCH   1   2
ATOM      2  C   UNL     1      47.183   6.197  12.580  0.00  0.00    +0.000 A 
ATOM      3  C   UNL     1      46.675   6.623  11.347  0.00  0.00    +0.000 A 
ATOM      4  C   UNL     1      45.497   6.065  10.836  0.00  0.00    +0.000 A 
ATOM      5  C   UNL     1      44.810   5.064  11.537  0.00  0.00    +0.000 A 
ATOM      6  C   UNL     1      45.324   4.630  12.764  0.00  0.00    +0.000 A 
ATOM      7  C   UNL     1      46.497   5.191  13.277  0.00  0.00    +0.000 A 
BRANCH   5   8
ATOM      8  C   UNL     1      43.551   4.466  10.967  0.00  0.00    +0.000 C 
BRANCH   8   9
ATOM      9  O   UNL     1      43.831   4.042   9.638  0.00  0.00    +0.000 OA
BRANCH   9  10
ATOM     10  C   UNL     1      44.388   2.729   9.594  0.00  0.00    +0.000 C 
BRANCH  10  11
ATOM     11  C   UNL     1      45.470   2.643   8.540  0.00  0.00    +0.000 A 
ATOM     12  C   UNL     1      46.121   1.437   8.279  0.00  0.00    +0.000 A 
ATOM     13  C   UNL     1      47.096   1.391   7.286  0.00  0.00    +0.000 A 
ATOM     14  C   UNL     1      47.389   2.544   6.570  0.00  0.00    +0.000 A 
ATOM     15  C   UNL     1      46.690   3.700   6.878  0.00  0.00    +0.000 A 
ATOM     16  N   UNL     1      45.737   3.773   7.835  0.00  0.00    +0.000 NA
ENDBRANCH  10  11
ENDBRANCH   9  10
ENDBRANCH   8   9
ENDBRANCH   5   8
ENDBRANCH   1   2
BRANCH   1  17
ATOM     17  C   UNL     1      48.399   7.799  14.249  0.00  0.00    +0.000 C 
BRANCH  17  18
ATOM     18  C   UNL     1      48.695   7.145  15.594  0.00  0.00    +0.000 A 
ATOM     19  N   UNL     1      48.918   5.823  15.642  0.00  0.00    +0.000 NA
ATOM     20  S   UNL     1      49.244   5.379  17.208  0.00  0.00    +0.000 S 
ATOM     21  C   UNL     1      49.104   6.941  17.871  0.00  0.00    +0.000 A 
ATOM     22  N   UNL     1      49.278   7.238  19.187  0.00  0.00    +0.000 NA
ATOM     23  C   UNL     1      49.127   8.494  19.459  0.00  0.00    +0.000 A 
ATOM     24  N   UNL     1      48.824   9.469  18.537  0.00  0.00    +0.000 N 
ATOM     25  C   UNL     1      48.659   9.212  17.194  0.00  0.00    +0.000 A 
ATOM     26  O   UNL     1      48.422  10.099  16.384  0.00  0.00    +0.000 OA
ATOM     27  C   UNL     1      48.801   7.819  16.852  0.00  0.00    +0.000 A 
ATOM     28  H   UNL     1      48.730  10.434  18.817  0.00  0.00    +0.000 HD
ENDBRANCH  17  18
BRANCH  17  29
ATOM     29  N   UNL     1      47.074   8.446  14.320  0.00  0.00    +0.000 NA
ATOM     30  H   UNL     1      46.848   8.802  13.390  0.00  0.00    +0.000 HD
ATOM     31  H   UNL     1      47.184   9.290  14.887  0.00  0.00    +0.000 HD
ENDBRANCH  17  29
ENDBRANCH   1  17
TORSDOF 8
ENDMDL
MODEL 6
REMARK VINA RESULT:    -7.000      2.715      3.829
REMARK INTER + INTRA:         -11.211
REMARK INTER:                 -10.554
REMARK INTRA:                  -0.656
REMARK UNBOUND:                -1.142
REMARK  Name = 
REMARK  8 active torsions:
REMARK  status: ('A' for Active; 'I' for Inactive)
REMARK    1  A    between atoms: N_1  and  C_2
REMARK    2  A    between atoms: C_2  and  C_3
REMARK    3  A    between atoms: C_2  and  C_19
REMARK    4  A    between atoms: C_3  and  C_4
REMARK    5  A    between atoms: C_7  and  C_8
REMARK    6  A    between atoms: C_8  and  O_9
REMARK    7  A    between atoms: O_9  and  C_10
REMARK    8  A    between atoms: C_10  and  C_11
REMARK                            x       y       z     vdW  Elec       q    Type
REMARK                         _______ _______ _______ _____ _____    ______ ____
ROOT
ATOM      1  C   UNL     1      47.703   6.765  13.731  0.00  0.00    +0.000 C 
ENDROOT
BRANCH   1   2
ATOM      2  C   UNL     1      46.558   6.097  13.003  0.00  0.00    +0.000 A 
ATOM      3  C   UNL     1      46.197   6.476  11.705  0.00  0.00    +0.000 A 
ATOM      4  C   UNL     1      45.173   5.802  11.030  0.00  0.00    +0.000 A 
ATOM      5  C   UNL     1      44.497   4.730  11.631  0.00  0.00    +0.000 A 
ATOM      6  C   UNL     1      44.866   4.345  12.924  0.00  0.00    +0.000 A 
ATOM      7  C   UNL     1      45.886   5.021  13.600  0.00  0.00    +0.000 A 
BRANCH   5   8
ATOM      8  C   UNL     1      43.405   4.008  10.886  0.00  0.00    +0.000 C 
BRANCH   8   9
ATOM      9  O   UNL     1      43.927   3.609   9.624  0.00  0.00    +0.000 OA
BRANCH   9  10
ATOM     10  C   UNL     1      44.736   2.437   9.718  0.00  0.00    +0.000 C 
BRANCH  10  11
ATOM     11  C   UNL     1      45.648   2.321   8.516  0.00  0.00    +0.000 A 
ATOM     12  C   UNL     1      45.933   3.435   7.724  0.00  0.00    +0.000 A 
ATOM     13  C   UNL     1      46.795   3.295   6.640  0.00  0.00    +0.000 A 
ATOM     14  C   UNL     1      47.360   2.054   6.378  0.00  0.00    +0.000 A 
ATOM     15  C   UNL     1      47.039   1.001   7.218  0.00  0.00    +0.000 A 
ATOM     16  N   UNL     1      46.208   1.107   8.279  0.00  0.00    +0.000 NA
ENDBRANCH  10  11
ENDBRANCH   9  10
ENDBRANCH   8   9
ENDBRANCH   5   8
ENDBRANCH   1   2
BRANCH   1  17
ATOM     17  C   UNL     1      47.752   8.313  13.708  0.00  0.00    +0.000 C 
BRANCH  17  18
ATOM     18  C   UNL     1      49.031   8.772  13.018  0.00  0.00    +0.000 A 
ATOM     19  N   UNL     1      48.942   9.499  11.893  0.00  0.00    +0.000 NA
ATOM     20  S   UNL     1      50.469   9.891  11.372  0.00  0.00    +0.000 S 
ATOM     21  C   UNL     1      51.298   9.108  12.636  0.00  0.00    +0.000 A 
ATOM     22  N   UNL     1      52.652   9.079  12.768  0.00  0.00    +0.000 NA
ATOM     23  C   UNL     1      53.057   8.428  13.811  0.00  0.00    +0.000 A 
ATOM     24  N   UNL     1      52.233   7.812  14.725  0.00  0.00    +0.000 N 
ATOM     25  C   UNL     1      50.858   7.834  14.636  0.00  0.00    +0.000 A 
ATOM     26  O   UNL     1      50.141   7.308  15.478  0.00  0.00    +0.000 OA
ATOM     27  C   UNL     1      50.367   8.535  13.477  0.00  0.00    +0.000 A 
ATOM     28  H   UNL     1      52.616   7.329  15.523  0.00  0.00    +0.000 HD
ENDBRANCH  17  18
BRANCH  17  29
ATOM     29  N   UNL     1      47.705   8.906  15.060  0.00  0.00    +0.000 NA
ATOM     30  H   UNL     1      46.922   8.484  15.561  0.00  0.00    +0.000 HD
ATOM     31  H   UNL     1      47.428   9.884  14.948  0.00  0.00    +0.000 HD
ENDBRANCH  17  29
ENDBRANCH   1  17
TORSDOF 8
ENDMDL
MODEL 7
REMARK VINA RESULT:    -6.688      2.854      7.859
REMARK INTER + INTRA:         -10.762
REMARK INTER:                 -10.157
REMARK INTRA:                  -0.606
REMARK UNBOUND:                -1.142
REMARK  Name = 
REMARK  8 active torsions:
REMARK  status: ('A' for Active; 'I' for Inactive)
REMARK    1  A    between atoms: N_1  and  C_2
REMARK    2  A    between atoms: C_2  and  C_3
REMARK    3  A    between atoms: C_2  and  C_19
REMARK    4  A    between atoms: C_3  and  C_4
REMARK    5  A    between atoms: C_7  and  C_8
REMARK    6  A    between atoms: C_8  and  O_9
REMARK    7  A    between atoms: O_9  and  C_10
REMARK    8  A    between atoms: C_10  and  C_11
REMARK                            x       y       z     vdW  Elec       q    Type
REMARK                         _______ _______ _______ _____ _____    ______ ____
ROOT
ATOM      1  C   UNL     1      46.824   6.643  11.398  0.00  0.00    +0.000 C 
ENDROOT
BRANCH   1   2
ATOM      2  C   UNL     1      47.765   6.866  12.560  0.00  0.00    +0.000 A 
ATOM      3  C   UNL     1      47.520   6.303  13.818  0.00  0.00    +0.000 A 
ATOM      4  C   UNL     1      48.437   6.474  14.861  0.00  0.00    +0.000 A 
ATOM      5  C   UNL     1      49.623   7.198  14.667  0.00  0.00    +0.000 A 
ATOM      6  C   UNL     1      49.873   7.750  13.407  0.00  0.00    +0.000 A 
ATOM      7  C   UNL     1      48.954   7.584  12.367  0.00  0.00    +0.000 A 
BRANCH   5   8
ATOM      8  C   UNL     1      50.605   7.362  15.798  0.00  0.00    +0.000 C 
BRANCH   8   9
ATOM      9  O   UNL     1      51.134   6.078  16.107  0.00  0.00    +0.000 OA
BRANCH   9  10
ATOM     10  C   UNL     1      50.852   5.685  17.450  0.00  0.00    +0.000 C 
BRANCH  10  11
ATOM     11  C   UNL     1      49.677   4.732  17.491  0.00  0.00    +0.000 A 
ATOM     12  C   UNL     1      48.441   5.141  17.994  0.00  0.00    +0.000 A 
ATOM     13  C   UNL     1      47.377   4.244  17.995  0.00  0.00    +0.000 A 
ATOM     14  C   UNL     1      47.567   2.966  17.485  0.00  0.00    +0.000 A 
ATOM     15  C   UNL     1      48.818   2.640  16.991  0.00  0.00    +0.000 A 
ATOM     16  N   UNL     1      49.870   3.491  16.975  0.00  0.00    +0.000 NA
ENDBRANCH  10  11
ENDBRANCH   9  10
ENDBRANCH   8   9
ENDBRANCH   5   8
ENDBRANCH   1   2
BRANCH   1  17
ATOM     17  C   UNL     1      45.305   6.667  11.701  0.00  0.00    +0.000 C 
BRANCH  17  18
ATOM     18  C   UNL     1      44.746   5.252  11.614  0.00  0.00    +0.000 A 
ATOM     19  N   UNL     1      44.091   4.742  12.669  0.00  0.00    +0.000 NA
ATOM     20  S   UNL     1      43.564   3.212  12.299  0.00  0.00    +0.000 S 
ATOM     21  C   UNL     1      44.189   3.183  10.716  0.00  0.00    +0.000 A 
ATOM     22  N   UNL     1      44.065   2.135   9.857  0.00  0.00    +0.000 NA
ATOM     23  C   UNL     1      44.615   2.341   8.705  0.00  0.00    +0.000 A 
ATOM     24  N   UNL     1      45.270   3.495   8.339  0.00  0.00    +0.000 N 
ATOM     25  C   UNL     1      45.401   4.584   9.172  0.00  0.00    +0.000 A 
ATOM     26  O   UNL     1      45.958   5.616   8.816  0.00  0.00    +0.000 OA
ATOM     27  C   UNL     1      44.815   4.388  10.474  0.00  0.00    +0.000 A 
ATOM     28  H   UNL     1      45.669   3.594   7.417  0.00  0.00    +0.000 HD
ENDBRANCH  17  18
BRANCH  17  29
ATOM     29  N   UNL     1      44.551   7.531  10.770  0.00  0.00    +0.000 NA
ATOM     30  H   UNL     1      43.632   7.706  11.179  0.00  0.00    +0.000 HD
ATOM     31  H   UNL     1      44.348   6.969   9.940  0.00  0.00    +0.000 HD
ENDBRANCH  17  29
ENDBRANCH   1  17
TORSDOF 8
ENDMDL
MODEL 8
REMARK VINA RESULT:    -6.609      3.771      8.300
REMARK INTER + INTRA:         -10.649
REMARK INTER:                 -10.221
REMARK INTRA:                  -0.428
REMARK UNBOUND:                -1.142
REMARK  Name = 
REMARK  8 active torsions:
REMARK  status: ('A' for Active; 'I' for Inactive)
REMARK    1  A    between atoms: N_1  and  C_2
REMARK    2  A    between atoms: C_2  and  C_3
REMARK    3  A    between atoms: C_2  and  C_19
REMARK    4  A    between atoms: C_3  and  C_4
REMARK    5  A    between atoms: C_7  and  C_8
REMARK    6  A    between atoms: C_8  and  O_9
REMARK    7  A    between atoms: O_9  and  C_10
REMARK    8  A    between atoms: C_10  and  C_11
REMARK                            x       y       z     vdW  Elec       q    Type
REMARK                         _______ _______ _______ _____ _____    ______ ____
ROOT
ATOM      1  C   UNL     1      46.561   6.268  12.137  0.00  0.00    +0.000 C 
ENDROOT
BRANCH   1   2
ATOM      2  C   UNL     1      47.101   5.955  13.514  0.00  0.00    +0.000 A 
ATOM      3  C   UNL     1      46.728   4.793  14.200  0.00  0.00    +0.000 A 
ATOM      4  C   UNL     1      47.288   4.496  15.447  0.00  0.00    +0.000 A 
ATOM      5  C   UNL     1      48.241   5.345  16.030  0.00  0.00    +0.000 A 
ATOM      6  C   UNL     1      48.622   6.500  15.340  0.00  0.00    +0.000 A 
ATOM      7  C   UNL     1      48.058   6.799  14.096  0.00  0.00    +0.000 A 
BRANCH   5   8
ATOM      8  C   UNL     1      48.843   5.003  17.368  0.00  0.00    +0.000 C 
BRANCH   8   9
ATOM      9  O   UNL     1      50.082   4.345  17.135  0.00  0.00    +0.000 OA
BRANCH   9  10
ATOM     10  C   UNL     1      50.005   2.941  17.384  0.00  0.00    +0.000 C 
BRANCH  10  11
ATOM     11  C   UNL     1      51.382   2.369  17.643  0.00  0.00    +0.000 A 
ATOM     12  C   UNL     1      52.408   3.172  18.144  0.00  0.00    +0.000 A 
ATOM     13  C   UNL     1      53.655   2.606  18.391  0.00  0.00    +0.000 A 
ATOM     14  C   UNL     1      53.847   1.253  18.145  0.00  0.00    +0.000 A 
ATOM     15  C   UNL     1      52.776   0.520  17.662  0.00  0.00    +0.000 A 
ATOM     16  N   UNL     1      51.553   1.042  17.414  0.00  0.00    +0.000 NA
ENDBRANCH  10  11
ENDBRANCH   9  10
ENDBRANCH   8   9
ENDBRANCH   5   8
ENDBRANCH   1   2
BRANCH   1  17
ATOM     17  C   UNL     1      45.021   6.282  11.966  0.00  0.00    +0.000 C 
BRANCH  17  18
ATOM     18  C   UNL     1      44.535   4.883  11.608  0.00  0.00    +0.000 A 
ATOM     19  N   UNL     1      43.783   4.207  12.490  0.00  0.00    +0.000 NA
ATOM     20  S   UNL     1      43.367   2.736  11.841  0.00  0.00    +0.000 S 
ATOM     21  C   UNL     1      44.172   2.958  10.358  0.00  0.00    +0.000 A 
ATOM     22  N   UNL     1      44.193   2.047   9.348  0.00  0.00    +0.000 NA
ATOM     23  C   UNL     1      44.865   2.437   8.313  0.00  0.00    +0.000 A 
ATOM     24  N   UNL     1      45.509   3.648   8.200  0.00  0.00    +0.000 N 
ATOM     25  C   UNL     1      45.496   4.603   9.193  0.00  0.00    +0.000 A 
ATOM     26  O   UNL     1      46.048   5.689   9.060  0.00  0.00    +0.000 OA
ATOM     27  C   UNL     1      44.772   4.201  10.372  0.00  0.00    +0.000 A 
ATOM     28  H   UNL     1      46.008   3.892   7.358  0.00  0.00    +0.000 HD
ENDBRANCH  17  18
BRANCH  17  29
ATOM     29  N   UNL     1      44.572   7.221  10.918  0.00  0.00    +0.000 NA
ATOM     30  H   UNL     1      45.324   7.891  10.753  0.00  0.00    +0.000 HD
ATOM     31  H   UNL     1      43.823   7.786  11.325  0.00  0.00    +0.000 HD
ENDBRANCH  17  29
ENDBRANCH   1  17
TORSDOF 8
ENDMDL
MODEL 9
REMARK VINA RESULT:    -6.527      2.172      2.924
REMARK INTER + INTRA:         -10.531
REMARK INTER:                  -9.971
REMARK INTRA:                  -0.560
REMARK UNBOUND:                -1.142
REMARK  Name = 
REMARK  8 active torsions:
REMARK  status: ('A' for Active; 'I' for Inactive)
REMARK    1  A    between atoms: N_1  and  C_2
REMARK    2  A    between atoms: C_2  and  C_3
REMARK    3  A    between atoms: C_2  and  C_19
REMARK    4  A    between atoms: C_3  and  C_4
REMARK    5  A    between atoms: C_7  and  C_8
REMARK    6  A    between atoms: C_8  and  O_9
REMARK    7  A    between atoms: O_9  and  C_10
REMARK    8  A    between atoms: C_10  and  C_11
REMARK                            x       y       z     vdW  Elec       q    Type
REMARK                         _______ _______ _______ _____ _____    ______ ____
ROOT
ATOM      1  C   UNL     1      49.415   7.011  14.464  0.00  0.00    +0.000 C 
ENDROOT
BRANCH   1   2
ATOM      2  C   UNL     1      48.338   6.621  13.478  0.00  0.00    +0.000 A 
ATOM      3  C   UNL     1      47.502   5.522  13.705  0.00  0.00    +0.000 A 
ATOM      4  C   UNL     1      46.473   5.218  12.806  0.00  0.00    +0.000 A 
ATOM      5  C   UNL     1      46.249   6.010  11.670  0.00  0.00    +0.000 A 
ATOM      6  C   UNL     1      47.078   7.115  11.450  0.00  0.00    +0.000 A 
ATOM      7  C   UNL     1      48.109   7.416  12.345  0.00  0.00    +0.000 A 
BRANCH   5   8
ATOM      8  C   UNL     1      45.130   5.675  10.720  0.00  0.00    +0.000 C 
BRANCH   8   9
ATOM      9  O   UNL     1      44.937   4.267  10.751  0.00  0.00    +0.000 OA
BRANCH   9  10
ATOM     10  C   UNL     1      44.282   3.783   9.578  0.00  0.00    +0.000 C 
BRANCH  10  11
ATOM     11  C   UNL     1      45.271   3.101   8.658  0.00  0.00    +0.000 A 
ATOM     12  C   UNL     1      45.979   3.830   7.702  0.00  0.00    +0.000 A 
ATOM     13  C   UNL     1      46.897   3.172   6.888  0.00  0.00    +0.000 A 
ATOM     14  C   UNL     1      47.096   1.807   7.055  0.00  0.00    +0.000 A 
ATOM     15  C   UNL     1      46.365   1.157   8.036  0.00  0.00    +0.000 A 
ATOM     16  N   UNL     1      45.469   1.770   8.841  0.00  0.00    +0.000 NA
ENDBRANCH  10  11
ENDBRANCH   9  10
ENDBRANCH   8   9
ENDBRANCH   5   8
ENDBRANCH   1   2
BRANCH   1  17
ATOM     17  C   UNL     1      48.963   7.722  15.764  0.00  0.00    +0.000 C 
BRANCH  17  18
ATOM     18  C   UNL     1      48.777   6.690  16.871  0.00  0.00    +0.000 A 
ATOM     19  N   UNL     1      49.086   5.407  16.626  0.00  0.00    +0.000 NA
ATOM     20  S   UNL     1      48.824   4.509  17.997  0.00  0.00    +0.000 S 
ATOM     21  C   UNL     1      48.295   5.806  18.964  0.00  0.00    +0.000 A 
ATOM     22  N   UNL     1      47.919   5.694  20.267  0.00  0.00    +0.000 NA
ATOM     23  C   UNL     1      47.559   6.816  20.801  0.00  0.00    +0.000 A 
ATOM     24  N   UNL     1      47.545   8.030  20.153  0.00  0.00    +0.000 N 
ATOM     25  C   UNL     1      47.934   8.188  18.841  0.00  0.00    +0.000 A 
ATOM     26  O   UNL     1      47.947   9.282  18.291  0.00  0.00    +0.000 OA
ATOM     27  C   UNL     1      48.327   6.956  18.203  0.00  0.00    +0.000 A 
ATOM     28  H   UNL     1      47.261   8.870  20.634  0.00  0.00    +0.000 HD
ENDBRANCH  17  18
BRANCH  17  29
ATOM     29  N   UNL     1      47.699   8.467  15.597  0.00  0.00    +0.000 NA
ATOM     30  H   UNL     1      47.676   9.209  16.298  0.00  0.00    +0.000 HD
ATOM     31  H   UNL     1      46.943   7.839  15.877  0.00  0.00    +0.000 HD
ENDBRANCH  17  29
ENDBRANCH   1  17
TORSDOF 8
ENDMDL
