MODEL 1
REMARK VINA RESULT:    -8.045      0.000      0.000
REMARK INTER + INTRA:         -13.106
REMARK INTER:                 -11.808
REMARK INTRA:                  -1.298
REMARK UNBOUND:                -1.298
REMARK  Name = 
REMARK  9 active torsions:
REMARK  status: ('A' for Active; 'I' for Inactive)
REMARK    1  A    between atoms: C_1  and  O_2
REMARK    2  A    between atoms: O_2  and  C_3
REMARK    3  A    between atoms: C_10  and  C_11
REMARK    4  A    between atoms: N_13  and  C_14
REMARK    5  A    between atoms: C_14  and  C_15
REMARK    6  A    between atoms: C_18  and  C_19
REMARK    7  A    between atoms: C_19  and  C_20
REMARK    8  A    between atoms: C_20  and  C_21
REMARK    9  A    between atoms: C_21  and  C_22
REMARK                            x       y       z     vdW  Elec       q    Type
REMARK                         _______ _______ _______ _____ _____    ______ ____
ROOT
ATOM      1  C   UNL     1      48.110   7.349  13.385  0.00  0.00    +0.000 C 
ENDROOT
BRANCH   1   2
ATOM      2  C   UNL     1      47.060   6.463  12.758  0.00  0.00    +0.000 A 
ATOM      3  C   UNL     1      46.691   6.647  11.419  0.00  0.00    +0.000 A 
ATOM      4  C   UNL     1      45.658   5.893  10.850  0.00  0.00    +0.000 A 
ATOM      5  C   UNL     1      44.984   4.922  11.599  0.00  0.00    +0.000 A 
ATOM      6  C   UNL     1      45.382   4.706  12.924  0.00  0.00    +0.000 A 
ATOM      7  C   UNL     1      46.405   5.473  13.500  0.00  0.00    +0.000 A 
BRANCH   5   8
ATOM      8  C   UNL     1      43.818   4.158  11.010  0.00  0.00    +0.000 C 
BRANCH   8   9
ATOM      9  C   UNL     1      44.012   3.669   9.570  0.00  0.00    +0.000 C 
BRANCH   9  10
ATOM     10  C   UNL     1      44.663   2.285   9.475  0.00  0.00    +0.000 C 
BRANCH  10  11
ATOM     11  C   UNL     1      45.689   2.234   8.367  0.00  0.00    +0.000 A 
ATOM     12  C   UNL     1      45.921   3.352   7.563  0.00  0.00    +0.000 A 
ATOM     13  C   UNL     1      46.869   3.266   6.547  0.00  0.00    +0.000 A 
ATOM     14  C   UNL     1      47.558   2.076   6.355  0.00  0.00    +0.000 A 
ATOM     15  C   UNL     1      47.264   1.012   7.191  0.00  0.00    +0.000 A 
ATOM     16  N   UNL     1      46.346   1.062   8.185  0.00  0.00    +0.000 NA
ENDBRANCH  10  11
ENDBRANCH   9  10
ENDBRANCH   8   9
ENDBRANCH   5   8
ENDBRANCH   1   2
BRANCH   1  19
ATOM     17  C   UNL     1      49.066   7.040  15.626  0.00  0.00    +0.000 C 
ATOM     18  O   UNL     1      50.136   6.684  15.127  0.00  0.00    +0.000 OA
ATOM     19  N   UNL     1      48.004   7.380  14.831  0.00  0.00    +0.000 N 
ATOM     20  H   UNL     1      47.129   7.679  15.242  0.00  0.00    +0.000 HD
BRANCH  17  28
ATOM     21  C   UNL     1      48.957   4.669  18.135  0.00  0.00    +0.000 A 
ATOM     22  N   UNL     1      48.860   3.972  19.287  0.00  0.00    +0.000 NA
ATOM     23  C   UNL     1      48.697   4.651  20.425  0.00  0.00    +0.000 A 
ATOM     24  N   UNL     1      48.610   5.970  20.559  0.00  0.00    +0.000 NA
ATOM     25  C   UNL     1      48.690   6.624  19.386  0.00  0.00    +0.000 A 
ATOM     26  S   UNL     1      48.593   8.318  19.372  0.00  0.00    +0.000 S 
ATOM     27  C   UNL     1      48.762   8.358  17.683  0.00  0.00    +0.000 A 
ATOM     28  C   UNL     1      48.905   7.106  17.095  0.00  0.00    +0.000 A 
ATOM     29  C   UNL     1      48.858   6.069  18.122  0.00  0.00    +0.000 A 
BRANCH  21  31
ATOM     30  C   UNL     1      47.978   3.234  16.592  0.00  0.00    +0.000 C 
ATOM     31  O   UNL     1      49.148   3.960  16.966  0.00  0.00    +0.000 OA
ENDBRANCH  21  31
ENDBRANCH  17  28
ENDBRANCH   1  19
TORSDOF 8
ENDMDL
MODEL 2
REMARK VINA RESULT:    -7.904      1.454      2.408
REMARK INTER + INTRA:         -12.898
REMARK INTER:                 -11.627
REMARK INTRA:                  -1.271
REMARK UNBOUND:                -1.298
REMARK  Name = 
REMARK  9 active torsions:
REMARK  status: ('A' for Active; 'I' for Inactive)
REMARK    1  A    between atoms: C_1  and  O_2
REMARK    2  A    between atoms: O_2  and  C_3
REMARK    3  A    between atoms: C_10  and  C_11
REMARK    4  A    between atoms: N_13  and  C_14
REMARK    5  A    between atoms: C_14  and  C_15
REMARK    6  A    between atoms: C_18  and  C_19
REMARK    7  A    between atoms: C_19  and  C_20
REMARK    8  A    between atoms: C_20  and  C_21
REMARK    9  A    between atoms: C_21  and  C_22
REMARK                            x       y       z     vdW  Elec       q    Type
REMARK                         _______ _______ _______ _____ _____    ______ ____
ROOT
ATOM      1  C   UNL     1      48.305   6.674  13.977  0.00  0.00    +0.000 C 
ENDROOT
BRANCH   1   2
ATOM      2  C   UNL     1      47.201   6.086  13.130  0.00  0.00    +0.000 A 
ATOM      3  C   UNL     1      46.900   6.641  11.880  0.00  0.00    +0.000 A 
ATOM      4  C   UNL     1      45.824   6.164  11.123  0.00  0.00    +0.000 A 
ATOM      5  C   UNL     1      45.037   5.104  11.588  0.00  0.00    +0.000 A 
ATOM      6  C   UNL     1      45.364   4.518  12.818  0.00  0.00    +0.000 A 
ATOM      7  C   UNL     1      46.431   5.008  13.584  0.00  0.00    +0.000 A 
BRANCH   5   8
ATOM      8  C   UNL     1      43.828   4.636  10.808  0.00  0.00    +0.000 C 
BRANCH   8   9
ATOM      9  C   UNL     1      44.125   4.056   9.420  0.00  0.00    +0.000 C 
BRANCH   9  10
ATOM     10  C   UNL     1      44.660   2.621   9.457  0.00  0.00    +0.000 C 
BRANCH  10  11
ATOM     11  C   UNL     1      45.661   2.377   8.352  0.00  0.00    +0.000 A 
ATOM     12  C   UNL     1      45.962   3.385   7.434  0.00  0.00    +0.000 A 
ATOM     13  C   UNL     1      46.886   3.124   6.424  0.00  0.00    +0.000 A 
ATOM     14  C   UNL     1      47.481   1.872   6.352  0.00  0.00    +0.000 A 
ATOM     15  C   UNL     1      47.123   0.925   7.297  0.00  0.00    +0.000 A 
ATOM     16  N   UNL     1      46.227   1.147   8.288  0.00  0.00    +0.000 NA
ENDBRANCH  10  11
ENDBRANCH   9  10
ENDBRANCH   8   9
ENDBRANCH   5   8
ENDBRANCH   1   2
BRANCH   1  19
ATOM     17  C   UNL     1      49.066   6.307  16.283  0.00  0.00    +0.000 C 
ATOM     18  O   UNL     1      50.233   6.229  15.892  0.00  0.00    +0.000 OA
ATOM     19  N   UNL     1      48.045   6.519  15.396  0.00  0.00    +0.000 N 
ATOM     20  H   UNL     1      47.088   6.590  15.720  0.00  0.00    +0.000 HD
BRANCH  17  28
ATOM     21  C   UNL     1      47.769   8.452  18.659  0.00  0.00    +0.000 A 
ATOM     22  N   UNL     1      47.310   9.067  19.770  0.00  0.00    +0.000 NA
ATOM     23  C   UNL     1      47.243   8.363  20.902  0.00  0.00    +0.000 A 
ATOM     24  N   UNL     1      47.593   7.091  21.069  0.00  0.00    +0.000 NA
ATOM     25  C   UNL     1      48.064   6.523  19.944  0.00  0.00    +0.000 A 
ATOM     26  S   UNL     1      48.561   4.901  19.979  0.00  0.00    +0.000 S 
ATOM     27  C   UNL     1      48.977   4.946  18.333  0.00  0.00    +0.000 A 
ATOM     28  C   UNL     1      48.743   6.172  17.720  0.00  0.00    +0.000 A 
ATOM     29  C   UNL     1      48.198   7.116  18.693  0.00  0.00    +0.000 A 
BRANCH  21  31
ATOM     30  C   UNL     1      48.958  10.032  17.439  0.00  0.00    +0.000 C 
ATOM     31  O   UNL     1      47.814   9.182  17.489  0.00  0.00    +0.000 OA
ENDBRANCH  21  31
ENDBRANCH  17  28
ENDBRANCH   1  19
TORSDOF 8
ENDMDL
MODEL 3
REMARK VINA RESULT:    -7.245      1.720      3.123
REMARK INTER + INTRA:         -11.932
REMARK INTER:                 -10.319
REMARK INTRA:                  -1.613
REMARK UNBOUND:                -1.298
REMARK  Name = 
REMARK  9 active torsions:
REMARK  status: ('A' for Active; 'I' for Inactive)
REMARK    1  A    between atoms: C_1  and  O_2
REMARK    2  A    between atoms: O_2  and  C_3
REMARK    3  A    between atoms: C_10  and  C_11
REMARK    4  A    between atoms: N_13  and  C_14
REMARK    5  A    between atoms: C_14  and  C_15
REMARK    6  A    between atoms: C_18  and  C_19
REMARK    7  A    between atoms: C_19  and  C_20
REMARK    8  A    between atoms: C_20  and  C_21
REMARK    9  A    between atoms: C_21  and  C_22
REMARK                            x       y       z     vdW  Elec       q    Type
REMARK                         _______ _______ _______ _____ _____    ______ ____
ROOT
ATOM      1  C   UNL     1      47.472   3.978  15.131  0.00  0.00    +0.000 C 
ENDROOT
BRANCH   1   2
ATOM      2  C   UNL     1      46.629   4.242  13.906  0.00  0.00    +0.000 A 
ATOM      3  C   UNL     1      46.365   5.557  13.502  0.00  0.00    +0.000 A 
ATOM      4  C   UNL     1      45.515   5.819  12.422  0.00  0.00    +0.000 A 
ATOM      5  C   UNL     1      44.926   4.771  11.704  0.00  0.00    +0.000 A 
ATOM      6  C   UNL     1      45.225   3.454  12.078  0.00  0.00    +0.000 A 
ATOM      7  C   UNL     1      46.062   3.192  13.172  0.00  0.00    +0.000 A 
BRANCH   5   8
ATOM      8  C   UNL     1      43.948   5.050  10.584  0.00  0.00    +0.000 C 
BRANCH   8   9
ATOM      9  C   UNL     1      44.129   4.194   9.325  0.00  0.00    +0.000 C 
BRANCH   9  10
ATOM     10  C   UNL     1      45.409   4.514   8.545  0.00  0.00    +0.000 C 
BRANCH  10  11
ATOM     11  C   UNL     1      46.083   3.254   8.052  0.00  0.00    +0.000 A 
ATOM     12  C   UNL     1      45.674   2.003   8.518  0.00  0.00    +0.000 A 
ATOM     13  C   UNL     1      46.322   0.864   8.046  0.00  0.00    +0.000 A 
ATOM     14  C   UNL     1      47.356   0.998   7.130  0.00  0.00    +0.000 A 
ATOM     15  C   UNL     1      47.705   2.274   6.724  0.00  0.00    +0.000 A 
ATOM     16  N   UNL     1      47.097   3.401   7.166  0.00  0.00    +0.000 NA
ENDBRANCH  10  11
ENDBRANCH   9  10
ENDBRANCH   8   9
ENDBRANCH   5   8
ENDBRANCH   1   2
BRANCH   1  19
ATOM     17  C   UNL     1      48.699   5.324  16.779  0.00  0.00    +0.000 C 
ATOM     18  O   UNL     1      49.576   4.459  16.840  0.00  0.00    +0.000 OA
ATOM     19  N   UNL     1      47.614   5.160  15.960  0.00  0.00    +0.000 N 
ATOM     20  H   UNL     1      46.898   5.874  15.905  0.00  0.00    +0.000 HD
BRANCH  17  28
ATOM     21  C   UNL     1      48.657   8.695  16.028  0.00  0.00    +0.000 A 
ATOM     22  N   UNL     1      48.692  10.044  16.020  0.00  0.00    +0.000 NA
ATOM     23  C   UNL     1      48.819  10.681  17.187  0.00  0.00    +0.000 A 
ATOM     24  N   UNL     1      48.924  10.124  18.389  0.00  0.00    +0.000 NA
ATOM     25  C   UNL     1      48.906   8.779  18.349  0.00  0.00    +0.000 A 
ATOM     26  S   UNL     1      49.035   7.905  19.798  0.00  0.00    +0.000 S 
ATOM     27  C   UNL     1      48.939   6.427  18.966  0.00  0.00    +0.000 A 
ATOM     28  C   UNL     1      48.799   6.557  17.589  0.00  0.00    +0.000 A 
ATOM     29  C   UNL     1      48.783   7.971  17.224  0.00  0.00    +0.000 A 
BRANCH  21  31
ATOM     30  C   UNL     1      49.760   7.800  14.189  0.00  0.00    +0.000 C 
ATOM     31  O   UNL     1      48.504   8.045  14.820  0.00  0.00    +0.000 OA
ENDBRANCH  21  31
ENDBRANCH  17  28
ENDBRANCH   1  19
TORSDOF 8
ENDMDL
MODEL 4
REMARK VINA RESULT:    -7.190      1.865      2.118
REMARK INTER + INTRA:         -11.851
REMARK INTER:                 -10.479
REMARK INTRA:                  -1.372
REMARK UNBOUND:                -1.298
REMARK  Name = 
REMARK  9 active torsions:
REMARK  status: ('A' for Active; 'I' for Inactive)
REMARK    1  A    between atoms: C_1  and  O_2
REMARK    2  A    between atoms: O_2  and  C_3
REMARK    3  A    between atoms: C_10  and  C_11
REMARK    4  A    between atoms: N_13  and  C_14
REMARK    5  A    between atoms: C_14  and  C_15
REMARK    6  A    between atoms: C_18  and  C_19
REMARK    7  A    between atoms: C_19  and  C_20
REMARK    8  A    between atoms: C_20  and  C_21
REMARK    9  A    between atoms: C_21  and  C_22
REMARK                            x       y       z     vdW  Elec       q    Type
REMARK                         _______ _______ _______ _____ _____    ______ ____
ROOT
ATOM      1  C   UNL     1      48.349   7.850  13.105  0.00  0.00    +0.000 C 
ENDROOT
BRANCH   1   2
ATOM      2  C   UNL     1      47.230   6.970  12.602  0.00  0.00    +0.000 A 
ATOM      3  C   UNL     1      46.276   7.482  11.713  0.00  0.00    +0.000 A 
ATOM      4  C   UNL     1      45.185   6.706  11.307  0.00  0.00    +0.000 A 
ATOM      5  C   UNL     1      45.034   5.390  11.761  0.00  0.00    +0.000 A 
ATOM      6  C   UNL     1      46.011   4.862  12.614  0.00  0.00    +0.000 A 
ATOM      7  C   UNL     1      47.095   5.645  13.035  0.00  0.00    +0.000 A 
BRANCH   5   8
ATOM      8  C   UNL     1      43.817   4.574  11.384  0.00  0.00    +0.000 C 
BRANCH   8   9
ATOM      9  C   UNL     1      44.062   3.468  10.351  0.00  0.00    +0.000 C 
BRANCH   9  10
ATOM     10  C   UNL     1      44.441   3.997   8.963  0.00  0.00    +0.000 C 
BRANCH  10  11
ATOM     11  C   UNL     1      45.484   3.124   8.306  0.00  0.00    +0.000 A 
ATOM     12  C   UNL     1      46.393   3.668   7.397  0.00  0.00    +0.000 A 
ATOM     13  C   UNL     1      47.337   2.831   6.805  0.00  0.00    +0.000 A 
ATOM     14  C   UNL     1      47.350   1.482   7.129  0.00  0.00    +0.000 A 
ATOM     15  C   UNL     1      46.410   1.020   8.035  0.00  0.00    +0.000 A 
ATOM     16  N   UNL     1      45.478   1.806   8.625  0.00  0.00    +0.000 NA
ENDBRANCH  10  11
ENDBRANCH   9  10
ENDBRANCH   8   9
ENDBRANCH   5   8
ENDBRANCH   1   2
BRANCH   1  19
ATOM     17  C   UNL     1      50.050   7.810  14.878  0.00  0.00    +0.000 C 
ATOM     18  O   UNL     1      50.040   9.042  14.923  0.00  0.00    +0.000 OA
ATOM     19  N   UNL     1      49.245   7.137  13.996  0.00  0.00    +0.000 N 
ATOM     20  H   UNL     1      49.249   6.126  13.965  0.00  0.00    +0.000 HD
BRANCH  17  28
ATOM     21  C   UNL     1      49.516   5.231  17.113  0.00  0.00    +0.000 A 
ATOM     22  N   UNL     1      49.593   4.258  18.045  0.00  0.00    +0.000 NA
ATOM     23  C   UNL     1      50.790   3.964  18.558  0.00  0.00    +0.000 A 
ATOM     24  N   UNL     1      51.948   4.541  18.253  0.00  0.00    +0.000 NA
ATOM     25  C   UNL     1      51.824   5.519  17.338  0.00  0.00    +0.000 A 
ATOM     26  S   UNL     1      53.207   6.366  16.836  0.00  0.00    +0.000 S 
ATOM     27  C   UNL     1      52.289   7.328  15.780  0.00  0.00    +0.000 A 
ATOM     28  C   UNL     1      50.931   7.029  15.773  0.00  0.00    +0.000 A 
ATOM     29  C   UNL     1      50.657   5.945  16.713  0.00  0.00    +0.000 A 
BRANCH  21  31
ATOM     30  C   UNL     1      47.451   4.353  16.513  0.00  0.00    +0.000 C 
ATOM     31  O   UNL     1      48.278   5.513  16.573  0.00  0.00    +0.000 OA
ENDBRANCH  21  31
ENDBRANCH  17  28
ENDBRANCH   1  19
TORSDOF 8
ENDMDL
MODEL 5
REMARK VINA RESULT:    -7.083      1.497      2.191
REMARK INTER + INTRA:         -11.694
REMARK INTER:                 -10.613
REMARK INTRA:                  -1.081
REMARK UNBOUND:                -1.298
REMARK  Name = 
REMARK  9 active torsions:
REMARK  status: ('A' for Active; 'I' for Inactive)
REMARK    1  A    between atoms: C_1  and  O_2
REMARK    2  A    between atoms: O_2  and  C_3
REMARK    3  A    between atoms: C_10  and  C_11
REMARK    4  A    between atoms: N_13  and  C_14
REMARK    5  A    between atoms: C_14  and  C_15
REMARK    6  A    between atoms: C_18  and  C_19
REMARK    7  A    between atoms: C_19  and  C_20
REMARK    8  A    between atoms: C_20  and  C_21
REMARK    9  A    between atoms: C_21  and  C_22
REMARK                            x       y       z     vdW  Elec       q    Type
REMARK                         _______ _______ _______ _____ _____    ______ ____
ROOT
ATOM      1  C   UNL     1      47.755   4.514  14.819  0.00  0.00    +0.000 C 
ENDROOT
BRANCH   1   2
ATOM      2  C   UNL     1      46.667   4.568  13.774  0.00  0.00    +0.000 A 
ATOM      3  C   UNL     1      46.106   3.384  13.277  0.00  0.00    +0.000 A 
ATOM      4  C   UNL     1      45.161   3.415  12.246  0.00  0.00    +0.000 A 
ATOM      5  C   UNL     1      44.734   4.633  11.702  0.00  0.00    +0.000 A 
ATOM      6  C   UNL     1      45.260   5.820  12.229  0.00  0.00    +0.000 A 
ATOM      7  C   UNL     1      46.221   5.788  13.249  0.00  0.00    +0.000 A 
BRANCH   5   8
ATOM      8  C   UNL     1      43.769   4.668  10.539  0.00  0.00    +0.000 C 
BRANCH   8   9
ATOM      9  C   UNL     1      44.361   4.270   9.181  0.00  0.00    +0.000 C 
BRANCH   9  10
ATOM     10  C   UNL     1      44.558   2.759   9.016  0.00  0.00    +0.000 C 
BRANCH  10  11
ATOM     11  C   UNL     1      45.669   2.451   8.041  0.00  0.00    +0.000 A 
ATOM     12  C   UNL     1      45.965   3.335   7.001  0.00  0.00    +0.000 A 
ATOM     13  C   UNL     1      46.992   3.016   6.116  0.00  0.00    +0.000 A 
ATOM     14  C   UNL     1      47.695   1.831   6.287  0.00  0.00    +0.000 A 
ATOM     15  C   UNL     1      47.335   1.006   7.339  0.00  0.00    +0.000 A 
ATOM     16  N   UNL     1      46.340   1.286   8.213  0.00  0.00    +0.000 NA
ENDBRANCH  10  11
ENDBRANCH   9  10
ENDBRANCH   8   9
ENDBRANCH   5   8
ENDBRANCH   1   2
BRANCH   1  19
ATOM     17  C   UNL     1      48.644   6.655  15.630  0.00  0.00    +0.000 C 
ATOM     18  O   UNL     1      49.554   6.599  14.800  0.00  0.00    +0.000 OA
ATOM     19  N   UNL     1      47.711   5.656  15.712  0.00  0.00    +0.000 N 
ATOM     20  H   UNL     1      46.960   5.707  16.389  0.00  0.00    +0.000 HD
BRANCH  17  28
ATOM     21  C   UNL     1      47.964   6.960  19.002  0.00  0.00    +0.000 A 
ATOM     22  N   UNL     1      47.710   7.366  20.264  0.00  0.00    +0.000 NA
ATOM     23  C   UNL     1      47.759   8.672  20.531  0.00  0.00    +0.000 A 
ATOM     24  N   UNL     1      48.029   9.650  19.672  0.00  0.00    +0.000 NA
ATOM     25  C   UNL     1      48.255   9.204  18.423  0.00  0.00    +0.000 A 
ATOM     26  S   UNL     1      48.612  10.321  17.196  0.00  0.00    +0.000 S 
ATOM     27  C   UNL     1      48.747   9.080  16.045  0.00  0.00    +0.000 A 
ATOM     28  C   UNL     1      48.538   7.804  16.556  0.00  0.00    +0.000 A 
ATOM     29  C   UNL     1      48.240   7.885  17.984  0.00  0.00    +0.000 A 
BRANCH  21  31
ATOM     30  C   UNL     1      48.630   4.858  19.735  0.00  0.00    +0.000 C 
ATOM     31  O   UNL     1      47.932   5.605  18.740  0.00  0.00    +0.000 OA
ENDBRANCH  21  31
ENDBRANCH  17  28
ENDBRANCH   1  19
TORSDOF 8
ENDMDL
MODEL 6
REMARK VINA RESULT:    -6.869      4.925      9.435
REMARK INTER + INTRA:         -11.380
REMARK INTER:                 -10.367
REMARK INTRA:                  -1.012
REMARK UNBOUND:                -1.298
REMARK  Name = 
REMARK  9 active torsions:
REMARK  status: ('A' for Active; 'I' for Inactive)
REMARK    1  A    between atoms: C_1  and  O_2
REMARK    2  A    between atoms: O_2  and  C_3
REMARK    3  A    between atoms: C_10  and  C_11
REMARK    4  A    between atoms: N_13  and  C_14
REMARK    5  A    between atoms: C_14  and  C_15
REMARK    6  A    between atoms: C_18  and  C_19
REMARK    7  A    between atoms: C_19  and  C_20
REMARK    8  A    between atoms: C_20  and  C_21
REMARK    9  A    between atoms: C_21  and  C_22
REMARK                            x       y       z     vdW  Elec       q    Type
REMARK                         _______ _______ _______ _____ _____    ______ ____
ROOT
ATOM      1  C   UNL     1      47.326   3.491  16.805  0.00  0.00    +0.000 C 
ENDROOT
BRANCH   1   2
ATOM      2  C   UNL     1      48.815   3.458  17.057  0.00  0.00    +0.000 A 
ATOM      3  C   UNL     1      49.516   2.247  16.979  0.00  0.00    +0.000 A 
ATOM      4  C   UNL     1      50.878   2.186  17.295  0.00  0.00    +0.000 A 
ATOM      5  C   UNL     1      51.578   3.337  17.674  0.00  0.00    +0.000 A 
ATOM      6  C   UNL     1      50.889   4.557  17.708  0.00  0.00    +0.000 A 
ATOM      7  C   UNL     1      49.520   4.616  17.409  0.00  0.00    +0.000 A 
BRANCH   5   8
ATOM      8  C   UNL     1      53.030   3.261  18.088  0.00  0.00    +0.000 C 
BRANCH   8   9
ATOM      9  C   UNL     1      53.522   1.872  18.513  0.00  0.00    +0.000 C 
BRANCH   9  10
ATOM     10  C   UNL     1      54.415   1.192  17.470  0.00  0.00    +0.000 C 
BRANCH  10  11
ATOM     11  C   UNL     1      54.493  -0.299  17.700  0.00  0.00    +0.000 A 
ATOM     12  C   UNL     1      54.999  -1.143  16.710  0.00  0.00    +0.000 A 
ATOM     13  C   UNL     1      55.050  -2.513  16.954  0.00  0.00    +0.000 A 
ATOM     14  C   UNL     1      54.597  -3.007  18.169  0.00  0.00    +0.000 A 
ATOM     15  C   UNL     1      54.104  -2.104  19.096  0.00  0.00    +0.000 A 
ATOM     16  N   UNL     1      54.038  -0.767  18.888  0.00  0.00    +0.000 NA
ENDBRANCH  10  11
ENDBRANCH   9  10
ENDBRANCH   8   9
ENDBRANCH   5   8
ENDBRANCH   1   2
BRANCH   1  19
ATOM     17  C   UNL     1      46.929   4.327  14.530  0.00  0.00    +0.000 C 
ATOM     18  O   UNL     1      47.239   3.227  14.066  0.00  0.00    +0.000 OA
ATOM     19  N   UNL     1      46.953   4.546  15.882  0.00  0.00    +0.000 N 
ATOM     20  H   UNL     1      46.691   5.447  16.262  0.00  0.00    +0.000 HD
BRANCH  17  28
ATOM     21  C   UNL     1      44.069   5.027  12.724  0.00  0.00    +0.000 A 
ATOM     22  N   UNL     1      43.107   5.529  11.921  0.00  0.00    +0.000 NA
ATOM     23  C   UNL     1      43.338   6.690  11.304  0.00  0.00    +0.000 A 
ATOM     24  N   UNL     1      44.441   7.427  11.386  0.00  0.00    +0.000 NA
ATOM     25  C   UNL     1      45.382   6.881  12.178  0.00  0.00    +0.000 A 
ATOM     26  S   UNL     1      46.859   7.690  12.391  0.00  0.00    +0.000 S 
ATOM     27  C   UNL     1      47.429   6.468  13.423  0.00  0.00    +0.000 A 
ATOM     28  C   UNL     1      46.524   5.435  13.638  0.00  0.00    +0.000 A 
ATOM     29  C   UNL     1      45.298   5.687  12.885  0.00  0.00    +0.000 A 
BRANCH  21  31
ATOM     30  C   UNL     1      43.660   2.756  12.457  0.00  0.00    +0.000 C 
ATOM     31  O   UNL     1      43.812   3.838  13.375  0.00  0.00    +0.000 OA
ENDBRANCH  21  31
ENDBRANCH  17  28
ENDBRANCH   1  19
TORSDOF 8
ENDMDL
MODEL 7
REMARK VINA RESULT:    -6.852      3.216      4.926
REMARK INTER + INTRA:         -11.354
REMARK INTER:                  -9.951
REMARK INTRA:                  -1.403
REMARK UNBOUND:                -1.298
REMARK  Name = 
REMARK  9 active torsions:
REMARK  status: ('A' for Active; 'I' for Inactive)
REMARK    1  A    between atoms: C_1  and  O_2
REMARK    2  A    between atoms: O_2  and  C_3
REMARK    3  A    between atoms: C_10  and  C_11
REMARK    4  A    between atoms: N_13  and  C_14
REMARK    5  A    between atoms: C_14  and  C_15
REMARK    6  A    between atoms: C_18  and  C_19
REMARK    7  A    between atoms: C_19  and  C_20
REMARK    8  A    between atoms: C_20  and  C_21
REMARK    9  A    between atoms: C_21  and  C_22
REMARK                            x       y       z     vdW  Elec       q    Type
REMARK                         _______ _______ _______ _____ _____    ______ ____
ROOT
ATOM      1  C   UNL     1      47.770   3.121  17.195  0.00  0.00    +0.000 C 
ENDROOT
BRANCH   1   2
ATOM      2  C   UNL     1      47.671   4.097  16.047  0.00  0.00    +0.000 A 
ATOM      3  C   UNL     1      48.285   5.354  16.134  0.00  0.00    +0.000 A 
ATOM      4  C   UNL     1      48.128   6.301  15.116  0.00  0.00    +0.000 A 
ATOM      5  C   UNL     1      47.373   6.007  13.975  0.00  0.00    +0.000 A 
ATOM      6  C   UNL     1      46.795   4.735  13.866  0.00  0.00    +0.000 A 
ATOM      7  C   UNL     1      46.937   3.792  14.894  0.00  0.00    +0.000 A 
BRANCH   5   8
ATOM      8  C   UNL     1      47.139   7.054  12.908  0.00  0.00    +0.000 C 
BRANCH   8   9
ATOM      9  C   UNL     1      47.004   6.516  11.478  0.00  0.00    +0.000 C 
BRANCH   9  10
ATOM     10  C   UNL     1      45.555   6.439  10.987  0.00  0.00    +0.000 C 
BRANCH  10  11
ATOM     11  C   UNL     1      45.292   5.147  10.248  0.00  0.00    +0.000 A 
ATOM     12  C   UNL     1      44.681   4.072  10.896  0.00  0.00    +0.000 A 
ATOM     13  C   UNL     1      44.459   2.895  10.186  0.00  0.00    +0.000 A 
ATOM     14  C   UNL     1      44.852   2.816   8.857  0.00  0.00    +0.000 A 
ATOM     15  C   UNL     1      45.458   3.925   8.290  0.00  0.00    +0.000 A 
ATOM     16  N   UNL     1      45.690   5.082   8.954  0.00  0.00    +0.000 NA
ENDBRANCH  10  11
ENDBRANCH   9  10
ENDBRANCH   8   9
ENDBRANCH   5   8
ENDBRANCH   1   2
BRANCH   1  19
ATOM     17  C   UNL     1      50.059   2.247  17.029  0.00  0.00    +0.000 C 
ATOM     18  O   UNL     1      49.759   1.640  15.998  0.00  0.00    +0.000 OA
ATOM     19  N   UNL     1      49.127   3.000  17.692  0.00  0.00    +0.000 N 
ATOM     20  H   UNL     1      49.377   3.504  18.534  0.00  0.00    +0.000 HD
BRANCH  17  28
ATOM     21  C   UNL     1      52.125   4.503  18.634  0.00  0.00    +0.000 A 
ATOM     22  N   UNL     1      53.127   5.167  19.246  0.00  0.00    +0.000 NA
ATOM     23  C   UNL     1      54.260   4.509  19.502  0.00  0.00    +0.000 A 
ATOM     24  N   UNL     1      54.525   3.240  19.209  0.00  0.00    +0.000 NA
ATOM     25  C   UNL     1      53.509   2.621  18.581  0.00  0.00    +0.000 A 
ATOM     26  S   UNL     1      53.680   0.994  18.130  0.00  0.00    +0.000 S 
ATOM     27  C   UNL     1      52.118   0.969  17.464  0.00  0.00    +0.000 A 
ATOM     28  C   UNL     1      51.432   2.173  17.574  0.00  0.00    +0.000 A 
ATOM     29  C   UNL     1      52.273   3.163  18.243  0.00  0.00    +0.000 A 
BRANCH  21  31
ATOM     30  C   UNL     1      50.572   5.997  19.503  0.00  0.00    +0.000 C 
ATOM     31  O   UNL     1      50.950   5.185  18.392  0.00  0.00    +0.000 OA
ENDBRANCH  21  31
ENDBRANCH  17  28
ENDBRANCH   1  19
TORSDOF 8
ENDMDL
MODEL 8
REMARK VINA RESULT:    -6.682      3.418      5.734
REMARK INTER + INTRA:         -11.105
REMARK INTER:                 -10.239
REMARK INTRA:                  -0.867
REMARK UNBOUND:                -1.298
REMARK  Name = 
REMARK  9 active torsions:
REMARK  status: ('A' for Active; 'I' for Inactive)
REMARK    1  A    between atoms: C_1  and  O_2
REMARK    2  A    between atoms: O_2  and  C_3
REMARK    3  A    between atoms: C_10  and  C_11
REMARK    4  A    between atoms: N_13  and  C_14
REMARK    5  A    between atoms: C_14  and  C_15
REMARK    6  A    between atoms: C_18  and  C_19
REMARK    7  A    between atoms: C_19  and  C_20
REMARK    8  A    between atoms: C_20  and  C_21
REMARK    9  A    between atoms: C_21  and  C_22
REMARK                            x       y       z     vdW  Elec       q    Type
REMARK                         _______ _______ _______ _____ _____    ______ ____
ROOT
ATOM      1  C   UNL     1      47.884   6.241  14.472  0.00  0.00    +0.000 C 
ENDROOT
BRANCH   1   2
ATOM      2  C   UNL     1      46.830   5.415  13.774  0.00  0.00    +0.000 A 
ATOM      3  C   UNL     1      46.969   4.024  13.683  0.00  0.00    +0.000 A 
ATOM      4  C   UNL     1      46.046   3.257  12.964  0.00  0.00    +0.000 A 
ATOM      5  C   UNL     1      44.948   3.858  12.339  0.00  0.00    +0.000 A 
ATOM      6  C   UNL     1      44.782   5.243  12.467  0.00  0.00    +0.000 A 
ATOM      7  C   UNL     1      45.717   6.015  13.172  0.00  0.00    +0.000 A 
BRANCH   5   8
ATOM      8  C   UNL     1      43.990   3.042  11.499  0.00  0.00    +0.000 C 
BRANCH   8   9
ATOM      9  C   UNL     1      44.144   3.205   9.982  0.00  0.00    +0.000 C 
BRANCH   9  10
ATOM     10  C   UNL     1      44.475   1.896   9.256  0.00  0.00    +0.000 C 
BRANCH  10  11
ATOM     11  C   UNL     1      45.622   2.078   8.289  0.00  0.00    +0.000 A 
ATOM     12  C   UNL     1      45.809   3.296   7.632  0.00  0.00    +0.000 A 
ATOM     13  C   UNL     1      46.874   3.426   6.743  0.00  0.00    +0.000 A 
ATOM     14  C   UNL     1      47.719   2.346   6.530  0.00  0.00    +0.000 A 
ATOM     15  C   UNL     1      47.461   1.171   7.215  0.00  0.00    +0.000 A 
ATOM     16  N   UNL     1      46.433   1.012   8.083  0.00  0.00    +0.000 NA
ENDBRANCH  10  11
ENDBRANCH   9  10
ENDBRANCH   8   9
ENDBRANCH   5   8
ENDBRANCH   1   2
BRANCH   1  19
ATOM     17  C   UNL     1      49.001   7.578  12.741  0.00  0.00    +0.000 C 
ATOM     18  O   UNL     1      49.611   6.579  12.354  0.00  0.00    +0.000 OA
ATOM     19  N   UNL     1      48.129   7.500  13.794  0.00  0.00    +0.000 N 
ATOM     20  H   UNL     1      47.623   8.319  14.106  0.00  0.00    +0.000 HD
BRANCH  17  28
ATOM     21  C   UNL     1      51.538   8.941  10.834  0.00  0.00    +0.000 A 
ATOM     22  N   UNL     1      52.364   9.714  10.098  0.00  0.00    +0.000 NA
ATOM     23  C   UNL     1      51.960  10.944   9.775  0.00  0.00    +0.000 A 
ATOM     24  N   UNL     1      50.807  11.516  10.110  0.00  0.00    +0.000 NA
ATOM     25  C   UNL     1      50.024  10.720  10.861  0.00  0.00    +0.000 A 
ATOM     26  S   UNL     1      48.515  11.294  11.382  0.00  0.00    +0.000 S 
ATOM     27  C   UNL     1      48.189   9.836  12.189  0.00  0.00    +0.000 A 
ATOM     28  C   UNL     1      49.197   8.886  12.077  0.00  0.00    +0.000 A 
ATOM     29  C   UNL     1      50.298   9.423  11.282  0.00  0.00    +0.000 A 
BRANCH  21  31
ATOM     30  C   UNL     1      52.451   6.975   9.998  0.00  0.00    +0.000 C 
ATOM     31  O   UNL     1      51.956   7.663  11.145  0.00  0.00    +0.000 OA
ENDBRANCH  21  31
ENDBRANCH  17  28
ENDBRANCH   1  19
TORSDOF 8
ENDMDL
MODEL 9
REMARK VINA RESULT:    -6.241      4.535      6.775
REMARK INTER + INTRA:         -10.458
REMARK INTER:                  -9.608
REMARK INTRA:                  -0.850
REMARK UNBOUND:                -1.298
REMARK  Name = 
REMARK  9 active torsions:
REMARK  status: ('A' for Active; 'I' for Inactive)
REMARK    1  A    between atoms: C_1  and  O_2
REMARK    2  A    between atoms: O_2  and  C_3
REMARK    3  A    between atoms: C_10  and  C_11
REMARK    4  A    between atoms: N_13  and  C_14
REMARK    5  A    between atoms: C_14  and  C_15
REMARK    6  A    between atoms: C_18  and  C_19
REMARK    7  A    between atoms: C_19  and  C_20
REMARK    8  A    between atoms: C_20  and  C_21
REMARK    9  A    between atoms: C_21  and  C_22
REMARK                            x       y       z     vdW  Elec       q    Type
REMARK                         _______ _______ _______ _____ _____    ______ ____
ROOT
ATOM      1  C   UNL     1      48.600   7.335  13.065  0.00  0.00    +0.000 C 
ENDROOT
BRANCH   1   2
ATOM      2  C   UNL     1      47.383   6.519  12.702  0.00  0.00    +0.000 A 
ATOM      3  C   UNL     1      47.116   5.315  13.366  0.00  0.00    +0.000 A 
ATOM      4  C   UNL     1      46.043   4.505  12.981  0.00  0.00    +0.000 A 
ATOM      5  C   UNL     1      45.194   4.890  11.936  0.00  0.00    +0.000 A 
ATOM      6  C   UNL     1      45.432   6.116  11.301  0.00  0.00    +0.000 A 
ATOM      7  C   UNL     1      46.519   6.919  11.674  0.00  0.00    +0.000 A 
BRANCH   5   8
ATOM      8  C   UNL     1      44.079   3.983  11.468  0.00  0.00    +0.000 C 
BRANCH   8   9
ATOM      9  C   UNL     1      44.496   2.881  10.486  0.00  0.00    +0.000 C 
BRANCH   9  10
ATOM     10  C   UNL     1      44.442   3.315   9.018  0.00  0.00    +0.000 C 
BRANCH  10  11
ATOM     11  C   UNL     1      45.578   2.713   8.223  0.00  0.00    +0.000 A 
ATOM     12  C   UNL     1      46.280   3.485   7.296  0.00  0.00    +0.000 A 
ATOM     13  C   UNL     1      47.317   2.895   6.577  0.00  0.00    +0.000 A 
ATOM     14  C   UNL     1      47.626   1.560   6.796  0.00  0.00    +0.000 A 
ATOM     15  C   UNL     1      46.877   0.863   7.729  0.00  0.00    +0.000 A 
ATOM     16  N   UNL     1      45.861   1.406   8.441  0.00  0.00    +0.000 NA
ENDBRANCH  10  11
ENDBRANCH   9  10
ENDBRANCH   8   9
ENDBRANCH   5   8
ENDBRANCH   1   2
BRANCH   1  19
ATOM     17  C   UNL     1      50.673   8.195  12.068  0.00  0.00    +0.000 C 
ATOM     18  O   UNL     1      50.918   8.820  13.102  0.00  0.00    +0.000 OA
ATOM     19  N   UNL     1      49.537   7.438  11.963  0.00  0.00    +0.000 N 
ATOM     20  H   UNL     1      49.341   6.920  11.116  0.00  0.00    +0.000 HD
BRANCH  17  28
ATOM     21  C   UNL     1      52.523  10.714  10.597  0.00  0.00    +0.000 A 
ATOM     22  N   UNL     1      53.315  11.491   9.828  0.00  0.00    +0.000 NA
ATOM     23  C   UNL     1      53.969  10.921   8.814  0.00  0.00    +0.000 A 
ATOM     24  N   UNL     1      53.924   9.641   8.458  0.00  0.00    +0.000 NA
ATOM     25  C   UNL     1      53.107   8.907   9.236  0.00  0.00    +0.000 A 
ATOM     26  S   UNL     1      52.928   7.250   8.920  0.00  0.00    +0.000 S 
ATOM     27  C   UNL     1      51.843   7.075  10.214  0.00  0.00    +0.000 A 
ATOM     28  C   UNL     1      51.600   8.250  10.917  0.00  0.00    +0.000 A 
ATOM     29  C   UNL     1      52.359   9.347  10.323  0.00  0.00    +0.000 A 
BRANCH  21  31
ATOM     30  C   UNL     1      52.738  11.516  12.767  0.00  0.00    +0.000 C 
ATOM     31  O   UNL     1      51.867  11.308  11.656  0.00  0.00    +0.000 OA
ENDBRANCH  21  31
ENDBRANCH  17  28
ENDBRANCH   1  19
TORSDOF 8
ENDMDL
