MODEL 1
REMARK VINA RESULT:    -8.566      0.000      0.000
REMARK INTER + INTRA:         -14.294
REMARK INTER:                 -12.823
REMARK INTRA:                  -1.471
REMARK UNBOUND:                -1.471
REMARK  Name = 
REMARK  11 active torsions:
REMARK  status: ('A' for Active; 'I' for Inactive)
REMARK    1  A    between atoms: C_1  and  O_2
REMARK    2  A    between atoms: O_2  and  C_3
REMARK    3  A    between atoms: C_9  and  C_10
REMARK    4  A    between atoms: N_12  and  C_13
REMARK    5  A    between atoms: C_13  and  C_14
REMARK    6  A    between atoms: C_17  and  O_18
REMARK    7  A    between atoms: O_18  and  C_19
REMARK    8  A    between atoms: C_19  and  C_20
REMARK    9  A    between atoms: C_20  and  O_21
REMARK   10  A    between atoms: C_20  and  C_22
REMARK   11  A    between atoms: N_31  and  C_32
REMARK                            x       y       z     vdW  Elec       q    Type
REMARK                         _______ _______ _______ _____ _____    ______ ____
ROOT
ATOM      1  C   UNL     1      47.029   7.986  13.331  0.00  0.00    +0.000 C 
ENDROOT
BRANCH   1   2
ATOM      2  C   UNL     1      46.111   7.090  12.545  0.00  0.00    +0.000 A 
ATOM      3  C   UNL     1      46.520   6.651  11.286  0.00  0.00    +0.000 A 
ATOM      4  C   UNL     1      45.686   5.849  10.514  0.00  0.00    +0.000 A 
ATOM      5  C   UNL     1      44.420   5.476  10.965  0.00  0.00    +0.000 A 
ATOM      6  C   UNL     1      43.998   5.915  12.226  0.00  0.00    +0.000 A 
ATOM      7  C   UNL     1      44.842   6.723  13.013  0.00  0.00    +0.000 A 
BRANCH   5   8
ATOM      8  O   UNL     1      43.549   4.695  10.244  0.00  0.00    +0.000 OA
BRANCH   8   9
ATOM      9  C   UNL     1      44.146   4.095   9.077  0.00  0.00    +0.000 C 
BRANCH   9  10
ATOM     10  C   UNL     1      44.927   2.821   9.409  0.00  0.00    +0.000 C 
BRANCH  10  11
ATOM     11  C   UNL     1      45.886   2.403   8.312  0.00  0.00    +0.000 A 
ATOM     12  C   UNL     1      46.259   3.316   7.329  0.00  0.00    +0.000 A 
ATOM     13  C   UNL     1      47.115   2.905   6.311  0.00  0.00    +0.000 A 
ATOM     14  C   UNL     1      47.566   1.589   6.302  0.00  0.00    +0.000 A 
ATOM     15  C   UNL     1      47.137   0.734   7.298  0.00  0.00    +0.000 A 
ATOM     16  N   UNL     1      46.297   1.105   8.285  0.00  0.00    +0.000 NA
ENDBRANCH  10  11
BRANCH  10  17
ATOM     17  O   UNL     1      44.002   1.776   9.742  0.00  0.00    +0.000 OA
ATOM     18  H   UNL     1      43.824   1.891  10.697  0.00  0.00    +0.000 HD
ENDBRANCH  10  17
ENDBRANCH   9  10
ENDBRANCH   8   9
ENDBRANCH   5   8
ENDBRANCH   1   2
BRANCH   1  21
ATOM     19  C   UNL     1      48.762   6.827  14.610  0.00  0.00    +0.000 C 
ATOM     20  O   UNL     1      49.608   7.013  13.735  0.00  0.00    +0.000 OA
ATOM     21  N   UNL     1      47.494   7.337  14.525  0.00  0.00    +0.000 N 
ATOM     22  H   UNL     1      46.811   7.077  15.224  0.00  0.00    +0.000 HD
BRANCH  19  29
ATOM     23  C   UNL     1      47.250   4.209  16.141  0.00  0.00    +0.000 A 
ATOM     24  N   UNL     1      46.795   3.265  17.001  0.00  0.00    +0.000 NA
ATOM     25  C   UNL     1      47.448   3.064  18.161  0.00  0.00    +0.000 A 
ATOM     26  C   UNL     1      48.591   3.738  18.550  0.00  0.00    +0.000 A 
ATOM     27  C   UNL     1      49.046   4.714  17.662  0.00  0.00    +0.000 A 
ATOM     28  C   UNL     1      48.372   4.999  16.467  0.00  0.00    +0.000 A 
ATOM     29  C   UNL     1      49.068   6.092  15.836  0.00  0.00    +0.000 A 
ATOM     30  C   UNL     1      50.174   6.362  16.628  0.00  0.00    +0.000 A 
ATOM     31  N   UNL     1      50.144   5.542  17.719  0.00  0.00    +0.000 N 
ATOM     32  C   UNL     1      51.133   5.532  18.775  0.00  0.00    +0.000 C 
BRANCH  23  34
ATOM     33  C   UNL     1      47.094   3.586  13.895  0.00  0.00    +0.000 C 
ATOM     34  O   UNL     1      46.586   4.401  14.946  0.00  0.00    +0.000 OA
ENDBRANCH  23  34
ENDBRANCH  19  29
ENDBRANCH   1  21
TORSDOF 9
ENDMDL
MODEL 2
REMARK VINA RESULT:    -8.033      2.433      3.134
REMARK INTER + INTRA:         -13.495
REMARK INTER:                 -12.218
REMARK INTRA:                  -1.277
REMARK UNBOUND:                -1.471
REMARK  Name = 
REMARK  11 active torsions:
REMARK  status: ('A' for Active; 'I' for Inactive)
REMARK    1  A    between atoms: C_1  and  O_2
REMARK    2  A    between atoms: O_2  and  C_3
REMARK    3  A    between atoms: C_9  and  C_10
REMARK    4  A    between atoms: N_12  and  C_13
REMARK    5  A    between atoms: C_13  and  C_14
REMARK    6  A    between atoms: C_17  and  O_18
REMARK    7  A    between atoms: O_18  and  C_19
REMARK    8  A    between atoms: C_19  and  C_20
REMARK    9  A    between atoms: C_20  and  O_21
REMARK   10  A    between atoms: C_20  and  C_22
REMARK   11  A    between atoms: N_31  and  C_32
REMARK                            x       y       z     vdW  Elec       q    Type
REMARK                         _______ _______ _______ _____ _____    ______ ____
ROOT
ATOM      1  C   UNL     1      48.403   6.891  13.993  0.00  0.00    +0.000 C 
ENDROOT
BRANCH   1   2
ATOM      2  C   UNL     1      47.320   6.140  13.269  0.00  0.00    +0.000 A 
ATOM      3  C   UNL     1      46.845   6.649  12.061  0.00  0.00    +0.000 A 
ATOM      4  C   UNL     1      45.821   6.002  11.377  0.00  0.00    +0.000 A 
ATOM      5  C   UNL     1      45.233   4.842  11.882  0.00  0.00    +0.000 A 
ATOM      6  C   UNL     1      45.701   4.324  13.096  0.00  0.00    +0.000 A 
ATOM      7  C   UNL     1      46.741   4.975  13.789  0.00  0.00    +0.000 A 
BRANCH   5   8
ATOM      8  O   UNL     1      44.214   4.165  11.257  0.00  0.00    +0.000 OA
BRANCH   8   9
ATOM      9  C   UNL     1      44.651   2.983  10.559  0.00  0.00    +0.000 C 
BRANCH   9  10
ATOM     10  C   UNL     1      44.392   3.062   9.053  0.00  0.00    +0.000 C 
BRANCH  10  11
ATOM     11  C   UNL     1      45.562   2.584   8.217  0.00  0.00    +0.000 A 
ATOM     12  C   UNL     1      46.115   3.421   7.252  0.00  0.00    +0.000 A 
ATOM     13  C   UNL     1      47.169   2.954   6.472  0.00  0.00    +0.000 A 
ATOM     14  C   UNL     1      47.632   1.658   6.674  0.00  0.00    +0.000 A 
ATOM     15  C   UNL     1      47.021   0.878   7.635  0.00  0.00    +0.000 A 
ATOM     16  N   UNL     1      45.990   1.303   8.392  0.00  0.00    +0.000 NA
ENDBRANCH  10  11
BRANCH  10  17
ATOM     17  O   UNL     1      43.998   4.400   8.714  0.00  0.00    +0.000 OA
ATOM     18  H   UNL     1      43.952   4.874   9.568  0.00  0.00    +0.000 HD
ENDBRANCH  10  17
ENDBRANCH   9  10
ENDBRANCH   8   9
ENDBRANCH   5   8
ENDBRANCH   1   2
BRANCH   1  21
ATOM     19  C   UNL     1      49.201   6.506  16.273  0.00  0.00    +0.000 C 
ATOM     20  O   UNL     1      50.358   6.322  15.896  0.00  0.00    +0.000 OA
ATOM     21  N   UNL     1      48.196   6.865  15.414  0.00  0.00    +0.000 N 
ATOM     22  H   UNL     1      47.247   6.912  15.759  0.00  0.00    +0.000 HD
BRANCH  19  29
ATOM     23  C   UNL     1      47.761   8.709  18.410  0.00  0.00    +0.000 A 
ATOM     24  N   UNL     1      47.311   9.409  19.479  0.00  0.00    +0.000 NA
ATOM     25  C   UNL     1      47.291   8.820  20.689  0.00  0.00    +0.000 A 
ATOM     26  C   UNL     1      47.677   7.516  20.937  0.00  0.00    +0.000 A 
ATOM     27  C   UNL     1      48.149   6.806  19.832  0.00  0.00    +0.000 A 
ATOM     28  C   UNL     1      48.239   7.391  18.562  0.00  0.00    +0.000 A 
ATOM     29  C   UNL     1      48.823   6.409  17.682  0.00  0.00    +0.000 A 
ATOM     30  C   UNL     1      48.980   5.254  18.433  0.00  0.00    +0.000 A 
ATOM     31  N   UNL     1      48.585   5.506  19.716  0.00  0.00    +0.000 N 
ATOM     32  C   UNL     1      48.605   4.541  20.794  0.00  0.00    +0.000 C 
BRANCH  23  34
ATOM     33  C   UNL     1      48.749  10.334  17.053  0.00  0.00    +0.000 C 
ATOM     34  O   UNL     1      47.765   9.313  17.168  0.00  0.00    +0.000 OA
ENDBRANCH  23  34
ENDBRANCH  19  29
ENDBRANCH   1  21
TORSDOF 9
ENDMDL
MODEL 3
REMARK VINA RESULT:    -7.932      2.140      2.522
REMARK INTER + INTRA:         -13.344
REMARK INTER:                 -12.296
REMARK INTRA:                  -1.048
REMARK UNBOUND:                -1.471
REMARK  Name = 
REMARK  11 active torsions:
REMARK  status: ('A' for Active; 'I' for Inactive)
REMARK    1  A    between atoms: C_1  and  O_2
REMARK    2  A    between atoms: O_2  and  C_3
REMARK    3  A    between atoms: C_9  and  C_10
REMARK    4  A    between atoms: N_12  and  C_13
REMARK    5  A    between atoms: C_13  and  C_14
REMARK    6  A    between atoms: C_17  and  O_18
REMARK    7  A    between atoms: O_18  and  C_19
REMARK    8  A    between atoms: C_19  and  C_20
REMARK    9  A    between atoms: C_20  and  O_21
REMARK   10  A    between atoms: C_20  and  C_22
REMARK   11  A    between atoms: N_31  and  C_32
REMARK                            x       y       z     vdW  Elec       q    Type
REMARK                         _______ _______ _______ _____ _____    ______ ____
ROOT
ATOM      1  C   UNL     1      48.607   6.915  13.741  0.00  0.00    +0.000 C 
ENDROOT
BRANCH   1   2
ATOM      2  C   UNL     1      47.466   6.187  13.085  0.00  0.00    +0.000 A 
ATOM      3  C   UNL     1      46.971   6.670  11.874  0.00  0.00    +0.000 A 
ATOM      4  C   UNL     1      45.896   6.045  11.252  0.00  0.00    +0.000 A 
ATOM      5  C   UNL     1      45.275   4.934  11.823  0.00  0.00    +0.000 A 
ATOM      6  C   UNL     1      45.762   4.443  13.041  0.00  0.00    +0.000 A 
ATOM      7  C   UNL     1      46.854   5.071  13.671  0.00  0.00    +0.000 A 
BRANCH   5   8
ATOM      8  O   UNL     1      44.205   4.281  11.261  0.00  0.00    +0.000 OA
BRANCH   8   9
ATOM      9  C   UNL     1      44.560   3.040  10.620  0.00  0.00    +0.000 C 
BRANCH   9  10
ATOM     10  C   UNL     1      44.336   3.078   9.106  0.00  0.00    +0.000 C 
BRANCH  10  11
ATOM     11  C   UNL     1      45.523   2.574   8.311  0.00  0.00    +0.000 A 
ATOM     12  C   UNL     1      46.178   3.423   7.423  0.00  0.00    +0.000 A 
ATOM     13  C   UNL     1      47.247   2.933   6.679  0.00  0.00    +0.000 A 
ATOM     14  C   UNL     1      47.624   1.604   6.837  0.00  0.00    +0.000 A 
ATOM     15  C   UNL     1      46.915   0.815   7.721  0.00  0.00    +0.000 A 
ATOM     16  N   UNL     1      45.867   1.263   8.442  0.00  0.00    +0.000 NA
ENDBRANCH  10  11
BRANCH  10  17
ATOM     17  O   UNL     1      43.956   4.408   8.721  0.00  0.00    +0.000 OA
ATOM     18  H   UNL     1      43.059   4.532   9.091  0.00  0.00    +0.000 HD
ENDBRANCH  10  17
ENDBRANCH   9  10
ENDBRANCH   8   9
ENDBRANCH   5   8
ENDBRANCH   1   2
BRANCH   1  21
ATOM     19  C   UNL     1      49.221   6.897  16.108  0.00  0.00    +0.000 C 
ATOM     20  O   UNL     1      50.362   6.504  15.865  0.00  0.00    +0.000 OA
ATOM     21  N   UNL     1      48.322   7.197  15.120  0.00  0.00    +0.000 N 
ATOM     22  H   UNL     1      47.370   7.426  15.373  0.00  0.00    +0.000 HD
BRANCH  19  29
ATOM     23  C   UNL     1      49.093   4.902  18.845  0.00  0.00    +0.000 A 
ATOM     24  N   UNL     1      48.830   4.306  20.034  0.00  0.00    +0.000 NA
ATOM     25  C   UNL     1      48.213   5.011  20.999  0.00  0.00    +0.000 A 
ATOM     26  C   UNL     1      47.837   6.337  20.890  0.00  0.00    +0.000 A 
ATOM     27  C   UNL     1      48.103   6.939  19.659  0.00  0.00    +0.000 A 
ATOM     28  C   UNL     1      48.695   6.233  18.604  0.00  0.00    +0.000 A 
ATOM     29  C   UNL     1      48.759   7.129  17.476  0.00  0.00    +0.000 A 
ATOM     30  C   UNL     1      48.286   8.354  17.920  0.00  0.00    +0.000 A 
ATOM     31  N   UNL     1      47.887   8.226  19.220  0.00  0.00    +0.000 N 
ATOM     32  C   UNL     1      47.334   9.292  20.027  0.00  0.00    +0.000 C 
BRANCH  23  34
ATOM     33  C   UNL     1      48.870   3.299  17.160  0.00  0.00    +0.000 C 
ATOM     34  O   UNL     1      49.740   4.179  17.862  0.00  0.00    +0.000 OA
ENDBRANCH  23  34
ENDBRANCH  19  29
ENDBRANCH   1  21
TORSDOF 9
ENDMDL
MODEL 4
REMARK VINA RESULT:    -7.437      1.646      2.200
REMARK INTER + INTRA:         -12.604
REMARK INTER:                 -11.385
REMARK INTRA:                  -1.220
REMARK UNBOUND:                -1.471
REMARK  Name = 
REMARK  11 active torsions:
REMARK  status: ('A' for Active; 'I' for Inactive)
REMARK    1  A    between atoms: C_1  and  O_2
REMARK    2  A    between atoms: O_2  and  C_3
REMARK    3  A    between atoms: C_9  and  C_10
REMARK    4  A    between atoms: N_12  and  C_13
REMARK    5  A    between atoms: C_13  and  C_14
REMARK    6  A    between atoms: C_17  and  O_18
REMARK    7  A    between atoms: O_18  and  C_19
REMARK    8  A    between atoms: C_19  and  C_20
REMARK    9  A    between atoms: C_20  and  O_21
REMARK   10  A    between atoms: C_20  and  C_22
REMARK   11  A    between atoms: N_31  and  C_32
REMARK                            x       y       z     vdW  Elec       q    Type
REMARK                         _______ _______ _______ _____ _____    ______ ____
ROOT
ATOM      1  C   UNL     1      48.046   7.746  13.785  0.00  0.00    +0.000 C 
ENDROOT
BRANCH   1   2
ATOM      2  C   UNL     1      47.090   6.796  13.118  0.00  0.00    +0.000 A 
ATOM      3  C   UNL     1      46.384   7.232  11.997  0.00  0.00    +0.000 A 
ATOM      4  C   UNL     1      45.466   6.396  11.371  0.00  0.00    +0.000 A 
ATOM      5  C   UNL     1      45.214   5.110  11.851  0.00  0.00    +0.000 A 
ATOM      6  C   UNL     1      45.915   4.663  12.978  0.00  0.00    +0.000 A 
ATOM      7  C   UNL     1      46.849   5.507  13.611  0.00  0.00    +0.000 A 
BRANCH   5   8
ATOM      8  O   UNL     1      44.313   4.243  11.282  0.00  0.00    +0.000 OA
BRANCH   8   9
ATOM      9  C   UNL     1      44.933   3.144  10.587  0.00  0.00    +0.000 C 
BRANCH   9  10
ATOM     10  C   UNL     1      44.498   3.055   9.123  0.00  0.00    +0.000 C 
BRANCH  10  11
ATOM     11  C   UNL     1      45.600   2.583   8.196  0.00  0.00    +0.000 A 
ATOM     12  C   UNL     1      46.058   3.417   7.179  0.00  0.00    +0.000 A 
ATOM     13  C   UNL     1      47.049   2.955   6.318  0.00  0.00    +0.000 A 
ATOM     14  C   UNL     1      47.547   1.668   6.494  0.00  0.00    +0.000 A 
ATOM     15  C   UNL     1      47.030   0.891   7.512  0.00  0.00    +0.000 A 
ATOM     16  N   UNL     1      46.060   1.311   8.349  0.00  0.00    +0.000 NA
ENDBRANCH  10  11
BRANCH  10  17
ATOM     17  O   UNL     1      43.958   4.322   8.716  0.00  0.00    +0.000 OA
ATOM     18  H   UNL     1      44.275   4.959   9.387  0.00  0.00    +0.000 HD
ENDBRANCH  10  17
ENDBRANCH   9  10
ENDBRANCH   8   9
ENDBRANCH   5   8
ENDBRANCH   1   2
BRANCH   1  21
ATOM     19  C   UNL     1      49.654   7.596  15.622  0.00  0.00    +0.000 C 
ATOM     20  O   UNL     1      49.273   8.658  16.114  0.00  0.00    +0.000 OA
ATOM     21  N   UNL     1      49.054   7.039  14.524  0.00  0.00    +0.000 N 
ATOM     22  H   UNL     1      49.463   6.215  14.104  0.00  0.00    +0.000 HD
BRANCH  19  29
ATOM     23  C   UNL     1      49.756   4.520  17.041  0.00  0.00    +0.000 A 
ATOM     24  N   UNL     1      50.055   3.396  17.739  0.00  0.00    +0.000 NA
ATOM     25  C   UNL     1      51.305   3.226  18.206  0.00  0.00    +0.000 A 
ATOM     26  C   UNL     1      52.349   4.111  18.007  0.00  0.00    +0.000 A 
ATOM     27  C   UNL     1      52.030   5.269  17.296  0.00  0.00    +0.000 A 
ATOM     28  C   UNL     1      50.730   5.518  16.835  0.00  0.00    +0.000 A 
ATOM     29  C   UNL     1      50.743   6.818  16.211  0.00  0.00    +0.000 A 
ATOM     30  C   UNL     1      52.057   7.258  16.246  0.00  0.00    +0.000 A 
ATOM     31  N   UNL     1      52.813   6.331  16.905  0.00  0.00    +0.000 N 
ATOM     32  C   UNL     1      54.236   6.440  17.144  0.00  0.00    +0.000 C 
BRANCH  23  34
ATOM     33  C   UNL     1      47.539   3.794  17.149  0.00  0.00    +0.000 C 
ATOM     34  O   UNL     1      48.476   4.682  16.551  0.00  0.00    +0.000 OA
ENDBRANCH  23  34
ENDBRANCH  19  29
ENDBRANCH   1  21
TORSDOF 9
ENDMDL
MODEL 5
REMARK VINA RESULT:    -7.383      2.714      3.599
REMARK INTER + INTRA:         -12.523
REMARK INTER:                 -11.588
REMARK INTRA:                  -0.935
REMARK UNBOUND:                -1.471
REMARK  Name = 
REMARK  11 active torsions:
REMARK  status: ('A' for Active; 'I' for Inactive)
REMARK    1  A    between atoms: C_1  and  O_2
REMARK    2  A    between atoms: O_2  and  C_3
REMARK    3  A    between atoms: C_9  and  C_10
REMARK    4  A    between atoms: N_12  and  C_13
REMARK    5  A    between atoms: C_13  and  C_14
REMARK    6  A    between atoms: C_17  and  O_18
REMARK    7  A    between atoms: O_18  and  C_19
REMARK    8  A    between atoms: C_19  and  C_20
REMARK    9  A    between atoms: C_20  and  O_21
REMARK   10  A    between atoms: C_20  and  C_22
REMARK   11  A    between atoms: N_31  and  C_32
REMARK                            x       y       z     vdW  Elec       q    Type
REMARK                         _______ _______ _______ _____ _____    ______ ____
ROOT
ATOM      1  C   UNL     1      47.449   4.249  15.124  0.00  0.00    +0.000 C 
ENDROOT
BRANCH   1   2
ATOM      2  C   UNL     1      46.554   4.361  13.921  0.00  0.00    +0.000 A 
ATOM      3  C   UNL     1      46.077   5.619  13.556  0.00  0.00    +0.000 A 
ATOM      4  C   UNL     1      45.221   5.762  12.470  0.00  0.00    +0.000 A 
ATOM      5  C   UNL     1      44.804   4.656  11.727  0.00  0.00    +0.000 A 
ATOM      6  C   UNL     1      45.275   3.388  12.087  0.00  0.00    +0.000 A 
ATOM      7  C   UNL     1      46.147   3.241  13.184  0.00  0.00    +0.000 A 
BRANCH   5   8
ATOM      8  O   UNL     1      43.953   4.733  10.651  0.00  0.00    +0.000 OA
BRANCH   8   9
ATOM      9  C   UNL     1      44.182   3.711   9.662  0.00  0.00    +0.000 C 
BRANCH   9  10
ATOM     10  C   UNL     1      44.896   4.247   8.419  0.00  0.00    +0.000 C 
BRANCH  10  11
ATOM     11  C   UNL     1      45.783   3.219   7.746  0.00  0.00    +0.000 A 
ATOM     12  C   UNL     1      45.966   1.969   8.331  0.00  0.00    +0.000 A 
ATOM     13  C   UNL     1      46.809   1.048   7.715  0.00  0.00    +0.000 A 
ATOM     14  C   UNL     1      47.453   1.410   6.536  0.00  0.00    +0.000 A 
ATOM     15  C   UNL     1      47.240   2.676   6.026  0.00  0.00    +0.000 A 
ATOM     16  N   UNL     1      46.440   3.588   6.612  0.00  0.00    +0.000 NA
ENDBRANCH  10  11
BRANCH  10  17
ATOM     17  O   UNL     1      45.620   5.436   8.770  0.00  0.00    +0.000 OA
ATOM     18  H   UNL     1      46.561   5.208   8.636  0.00  0.00    +0.000 HD
ENDBRANCH  10  17
ENDBRANCH   9  10
ENDBRANCH   8   9
ENDBRANCH   5   8
ENDBRANCH   1   2
BRANCH   1  21
ATOM     19  C   UNL     1      48.617   5.779  16.633  0.00  0.00    +0.000 C 
ATOM     20  O   UNL     1      49.599   5.040  16.711  0.00  0.00    +0.000 OA
ATOM     21  N   UNL     1      47.553   5.502  15.817  0.00  0.00    +0.000 N 
ATOM     22  H   UNL     1      46.733   6.092  15.861  0.00  0.00    +0.000 HD
BRANCH  19  29
ATOM     23  C   UNL     1      47.879   6.503  19.860  0.00  0.00    +0.000 A 
ATOM     24  N   UNL     1      47.521   7.072  21.038  0.00  0.00    +0.000 NA
ATOM     25  C   UNL     1      47.499   8.414  21.139  0.00  0.00    +0.000 A 
ATOM     26  C   UNL     1      47.844   9.287  20.124  0.00  0.00    +0.000 A 
ATOM     27  C   UNL     1      48.201   8.693  18.913  0.00  0.00    +0.000 A 
ATOM     28  C   UNL     1      48.189   7.302  18.741  0.00  0.00    +0.000 A 
ATOM     29  C   UNL     1      48.541   7.041  17.367  0.00  0.00    +0.000 A 
ATOM     30  C   UNL     1      48.832   8.270  16.796  0.00  0.00    +0.000 A 
ATOM     31  N   UNL     1      48.615   9.249  17.724  0.00  0.00    +0.000 N 
ATOM     32  C   UNL     1      48.808  10.664  17.496  0.00  0.00    +0.000 C 
BRANCH  23  34
ATOM     33  C   UNL     1      48.624   4.518  20.841  0.00  0.00    +0.000 C 
ATOM     34  O   UNL     1      47.916   5.126  19.767  0.00  0.00    +0.000 OA
ENDBRANCH  23  34
ENDBRANCH  19  29
ENDBRANCH   1  21
TORSDOF 9
ENDMDL
MODEL 6
REMARK VINA RESULT:    -7.004      2.748      3.221
REMARK INTER + INTRA:         -11.955
REMARK INTER:                 -10.965
REMARK INTRA:                  -0.989
REMARK UNBOUND:                -1.471
REMARK  Name = 
REMARK  11 active torsions:
REMARK  status: ('A' for Active; 'I' for Inactive)
REMARK    1  A    between atoms: C_1  and  O_2
REMARK    2  A    between atoms: O_2  and  C_3
REMARK    3  A    between atoms: C_9  and  C_10
REMARK    4  A    between atoms: N_12  and  C_13
REMARK    5  A    between atoms: C_13  and  C_14
REMARK    6  A    between atoms: C_17  and  O_18
REMARK    7  A    between atoms: O_18  and  C_19
REMARK    8  A    between atoms: C_19  and  C_20
REMARK    9  A    between atoms: C_20  and  O_21
REMARK   10  A    between atoms: C_20  and  C_22
REMARK   11  A    between atoms: N_31  and  C_32
REMARK                            x       y       z     vdW  Elec       q    Type
REMARK                         _______ _______ _______ _____ _____    ______ ____
ROOT
ATOM      1  C   UNL     1      47.887   9.360  14.056  0.00  0.00    +0.000 C 
ENDROOT
BRANCH   1   2
ATOM      2  C   UNL     1      47.100   8.381  13.229  0.00  0.00    +0.000 A 
ATOM      3  C   UNL     1      45.829   8.747  12.787  0.00  0.00    +0.000 A 
ATOM      4  C   UNL     1      45.056   7.858  12.048  0.00  0.00    +0.000 A 
ATOM      5  C   UNL     1      45.517   6.577  11.744  0.00  0.00    +0.000 A 
ATOM      6  C   UNL     1      46.790   6.198  12.187  0.00  0.00    +0.000 A 
ATOM      7  C   UNL     1      47.578   7.099  12.931  0.00  0.00    +0.000 A 
BRANCH   5   8
ATOM      8  O   UNL     1      44.796   5.653  11.027  0.00  0.00    +0.000 OA
BRANCH   8   9
ATOM      9  C   UNL     1      45.471   5.190   9.842  0.00  0.00    +0.000 C 
BRANCH   9  10
ATOM     10  C   UNL     1      44.777   3.983   9.206  0.00  0.00    +0.000 C 
BRANCH  10  11
ATOM     11  C   UNL     1      45.698   3.149   8.339  0.00  0.00    +0.000 A 
ATOM     12  C   UNL     1      45.803   1.777   8.554  0.00  0.00    +0.000 A 
ATOM     13  C   UNL     1      46.678   1.032   7.768  0.00  0.00    +0.000 A 
ATOM     14  C   UNL     1      47.430   1.684   6.796  0.00  0.00    +0.000 A 
ATOM     15  C   UNL     1      47.289   3.050   6.655  0.00  0.00    +0.000 A 
ATOM     16  N   UNL     1      46.460   3.795   7.413  0.00  0.00    +0.000 NA
ENDBRANCH  10  11
BRANCH  10  17
ATOM     17  O   UNL     1      43.620   4.433   8.486  0.00  0.00    +0.000 OA
ATOM     18  H   UNL     1      43.970   5.025   7.790  0.00  0.00    +0.000 HD
ENDBRANCH  10  17
ENDBRANCH   9  10
ENDBRANCH   8   9
ENDBRANCH   5   8
ENDBRANCH   1   2
BRANCH   1  21
ATOM     19  C   UNL     1      48.561   9.353  16.407  0.00  0.00    +0.000 C 
ATOM     20  O   UNL     1      49.704   9.722  16.137  0.00  0.00    +0.000 OA
ATOM     21  N   UNL     1      47.586   9.225  15.453  0.00  0.00    +0.000 N 
ATOM     22  H   UNL     1      46.692   8.830  15.712  0.00  0.00    +0.000 HD
BRANCH  19  29
ATOM     23  C   UNL     1      48.664   6.549  18.308  0.00  0.00    +0.000 A 
ATOM     24  N   UNL     1      48.486   5.571  19.229  0.00  0.00    +0.000 NA
ATOM     25  C   UNL     1      47.869   5.864  20.388  0.00  0.00    +0.000 A 
ATOM     26  C   UNL     1      47.410   7.120  20.741  0.00  0.00    +0.000 A 
ATOM     27  C   UNL     1      47.588   8.119  19.782  0.00  0.00    +0.000 A 
ATOM     28  C   UNL     1      48.178   7.852  18.539  0.00  0.00    +0.000 A 
ATOM     29  C   UNL     1      48.142   9.078  17.780  0.00  0.00    +0.000 A 
ATOM     30  C   UNL     1      47.615  10.045  18.622  0.00  0.00    +0.000 A 
ATOM     31  N   UNL     1      47.278   9.459  19.809  0.00  0.00    +0.000 N 
ATOM     32  C   UNL     1      46.695  10.150  20.939  0.00  0.00    +0.000 C 
BRANCH  23  34
ATOM     33  C   UNL     1      48.468   5.598  16.183  0.00  0.00    +0.000 C 
ATOM     34  O   UNL     1      49.313   6.246  17.127  0.00  0.00    +0.000 OA
ENDBRANCH  23  34
ENDBRANCH  19  29
ENDBRANCH   1  21
TORSDOF 9
ENDMDL
MODEL 7
REMARK VINA RESULT:    -6.912      2.264      3.783
REMARK INTER + INTRA:         -11.817
REMARK INTER:                 -11.084
REMARK INTRA:                  -0.733
REMARK UNBOUND:                -1.471
REMARK  Name = 
REMARK  11 active torsions:
REMARK  status: ('A' for Active; 'I' for Inactive)
REMARK    1  A    between atoms: C_1  and  O_2
REMARK    2  A    between atoms: O_2  and  C_3
REMARK    3  A    between atoms: C_9  and  C_10
REMARK    4  A    between atoms: N_12  and  C_13
REMARK    5  A    between atoms: C_13  and  C_14
REMARK    6  A    between atoms: C_17  and  O_18
REMARK    7  A    between atoms: O_18  and  C_19
REMARK    8  A    between atoms: C_19  and  C_20
REMARK    9  A    between atoms: C_20  and  O_21
REMARK   10  A    between atoms: C_20  and  C_22
REMARK   11  A    between atoms: N_31  and  C_32
REMARK                            x       y       z     vdW  Elec       q    Type
REMARK                         _______ _______ _______ _____ _____    ______ ____
ROOT
ATOM      1  C   UNL     1      47.173   4.748  14.842  0.00  0.00    +0.000 C 
ENDROOT
BRANCH   1   2
ATOM      2  C   UNL     1      46.207   4.622  13.696  0.00  0.00    +0.000 A 
ATOM      3  C   UNL     1      46.153   3.418  12.994  0.00  0.00    +0.000 A 
ATOM      4  C   UNL     1      45.297   3.272  11.908  0.00  0.00    +0.000 A 
ATOM      5  C   UNL     1      44.485   4.323  11.480  0.00  0.00    +0.000 A 
ATOM      6  C   UNL     1      44.534   5.537  12.175  0.00  0.00    +0.000 A 
ATOM      7  C   UNL     1      45.396   5.686  13.280  0.00  0.00    +0.000 A 
BRANCH   5   8
ATOM      8  O   UNL     1      43.628   4.242  10.409  0.00  0.00    +0.000 OA
BRANCH   8   9
ATOM      9  C   UNL     1      44.047   3.295   9.407  0.00  0.00    +0.000 C 
BRANCH   9  10
ATOM     10  C   UNL     1      44.823   3.957   8.265  0.00  0.00    +0.000 C 
BRANCH  10  11
ATOM     11  C   UNL     1      45.860   3.046   7.638  0.00  0.00    +0.000 A 
ATOM     12  C   UNL     1      46.509   3.434   6.469  0.00  0.00    +0.000 A 
ATOM     13  C   UNL     1      47.436   2.571   5.890  0.00  0.00    +0.000 A 
ATOM     14  C   UNL     1      47.678   1.341   6.494  0.00  0.00    +0.000 A 
ATOM     15  C   UNL     1      46.981   1.017   7.640  0.00  0.00    +0.000 A 
ATOM     16  N   UNL     1      46.069   1.829   8.211  0.00  0.00    +0.000 NA
ENDBRANCH  10  11
BRANCH  10  17
ATOM     17  O   UNL     1      45.399   5.183   8.738  0.00  0.00    +0.000 OA
ATOM     18  H   UNL     1      44.635   5.747   8.975  0.00  0.00    +0.000 HD
ENDBRANCH  10  17
ENDBRANCH   9  10
ENDBRANCH   8   9
ENDBRANCH   5   8
ENDBRANCH   1   2
BRANCH   1  21
ATOM     19  C   UNL     1      48.495   6.714  14.235  0.00  0.00    +0.000 C 
ATOM     20  O   UNL     1      48.934   6.173  13.221  0.00  0.00    +0.000 OA
ATOM     21  N   UNL     1      47.567   6.113  15.044  0.00  0.00    +0.000 N 
ATOM     22  H   UNL     1      47.310   6.560  15.914  0.00  0.00    +0.000 HD
BRANCH  19  29
ATOM     23  C   UNL     1      49.000   8.171  17.253  0.00  0.00    +0.000 A 
ATOM     24  N   UNL     1      49.157   9.015  18.303  0.00  0.00    +0.000 NA
ATOM     25  C   UNL     1      49.409  10.315  18.068  0.00  0.00    +0.000 A 
ATOM     26  C   UNL     1      49.552  10.877  16.813  0.00  0.00    +0.000 A 
ATOM     27  C   UNL     1      49.379  10.003  15.738  0.00  0.00    +0.000 A 
ATOM     28  C   UNL     1      49.063   8.651  15.929  0.00  0.00    +0.000 A 
ATOM     29  C   UNL     1      48.891   8.067  14.622  0.00  0.00    +0.000 A 
ATOM     30  C   UNL     1      49.193   9.061  13.704  0.00  0.00    +0.000 A 
ATOM     31  N   UNL     1      49.471  10.214  14.381  0.00  0.00    +0.000 N 
ATOM     32  C   UNL     1      49.829  11.473  13.763  0.00  0.00    +0.000 C 
BRANCH  23  34
ATOM     33  C   UNL     1      48.341   6.586  18.838  0.00  0.00    +0.000 C 
ATOM     34  O   UNL     1      48.757   6.834  17.499  0.00  0.00    +0.000 OA
ENDBRANCH  23  34
ENDBRANCH  19  29
ENDBRANCH   1  21
TORSDOF 9
ENDMDL
MODEL 8
REMARK VINA RESULT:    -6.805      2.239      3.304
REMARK INTER + INTRA:         -11.657
REMARK INTER:                 -10.711
REMARK INTRA:                  -0.946
REMARK UNBOUND:                -1.471
REMARK  Name = 
REMARK  11 active torsions:
REMARK  status: ('A' for Active; 'I' for Inactive)
REMARK    1  A    between atoms: C_1  and  O_2
REMARK    2  A    between atoms: O_2  and  C_3
REMARK    3  A    between atoms: C_9  and  C_10
REMARK    4  A    between atoms: N_12  and  C_13
REMARK    5  A    between atoms: C_13  and  C_14
REMARK    6  A    between atoms: C_17  and  O_18
REMARK    7  A    between atoms: O_18  and  C_19
REMARK    8  A    between atoms: C_19  and  C_20
REMARK    9  A    between atoms: C_20  and  O_21
REMARK   10  A    between atoms: C_20  and  C_22
REMARK   11  A    between atoms: N_31  and  C_32
REMARK                            x       y       z     vdW  Elec       q    Type
REMARK                         _______ _______ _______ _____ _____    ______ ____
ROOT
ATOM      1  C   UNL     1      47.326   8.865  12.724  0.00  0.00    +0.000 C 
ENDROOT
BRANCH   1   2
ATOM      2  C   UNL     1      46.489   7.674  12.346  0.00  0.00    +0.000 A 
ATOM      3  C   UNL     1      45.240   7.890  11.764  0.00  0.00    +0.000 A 
ATOM      4  C   UNL     1      44.421   6.817  11.431  0.00  0.00    +0.000 A 
ATOM      5  C   UNL     1      44.814   5.502  11.681  0.00  0.00    +0.000 A 
ATOM      6  C   UNL     1      46.065   5.273  12.269  0.00  0.00    +0.000 A 
ATOM      7  C   UNL     1      46.899   6.359  12.603  0.00  0.00    +0.000 A 
BRANCH   5   8
ATOM      8  O   UNL     1      44.046   4.403  11.384  0.00  0.00    +0.000 OA
BRANCH   8   9
ATOM      9  C   UNL     1      44.775   3.353  10.718  0.00  0.00    +0.000 C 
BRANCH   9  10
ATOM     10  C   UNL     1      44.361   3.189   9.254  0.00  0.00    +0.000 C 
BRANCH  10  11
ATOM     11  C   UNL     1      45.480   2.680   8.368  0.00  0.00    +0.000 A 
ATOM     12  C   UNL     1      46.026   3.510   7.392  0.00  0.00    +0.000 A 
ATOM     13  C   UNL     1      47.032   3.015   6.566  0.00  0.00    +0.000 A 
ATOM     14  C   UNL     1      47.455   1.701   6.735  0.00  0.00    +0.000 A 
ATOM     15  C   UNL     1      46.852   0.930   7.710  0.00  0.00    +0.000 A 
ATOM     16  N   UNL     1      45.867   1.382   8.511  0.00  0.00    +0.000 NA
ENDBRANCH  10  11
BRANCH  10  17
ATOM     17  O   UNL     1      43.819   4.429   8.778  0.00  0.00    +0.000 OA
ATOM     18  H   UNL     1      44.100   5.097   9.435  0.00  0.00    +0.000 HD
ENDBRANCH  10  17
ENDBRANCH   9  10
ENDBRANCH   8   9
ENDBRANCH   5   8
ENDBRANCH   1   2
BRANCH   1  21
ATOM     19  C   UNL     1      49.260   9.071  14.207  0.00  0.00    +0.000 C 
ATOM     20  O   UNL     1      48.684   9.880  14.934  0.00  0.00    +0.000 OA
ATOM     21  N   UNL     1      48.639   8.466  13.146  0.00  0.00    +0.000 N 
ATOM     22  H   UNL     1      49.183   7.882  12.526  0.00  0.00    +0.000 HD
BRANCH  19  29
ATOM     23  C   UNL     1      50.585   6.626  16.144  0.00  0.00    +0.000 A 
ATOM     24  N   UNL     1      51.370   5.820  16.901  0.00  0.00    +0.000 NA
ATOM     25  C   UNL     1      52.707   5.953  16.833  0.00  0.00    +0.000 A 
ATOM     26  C   UNL     1      53.370   6.849  16.015  0.00  0.00    +0.000 A 
ATOM     27  C   UNL     1      52.554   7.681  15.247  0.00  0.00    +0.000 A 
ATOM     28  C   UNL     1      51.156   7.618  15.321  0.00  0.00    +0.000 A 
ATOM     29  C   UNL     1      50.637   8.650  14.458  0.00  0.00    +0.000 A 
ATOM     30  C   UNL     1      51.733   9.231  13.839  0.00  0.00    +0.000 A 
ATOM     31  N   UNL     1      52.871   8.653  14.325  0.00  0.00    +0.000 N 
ATOM     32  C   UNL     1      54.216   8.999  13.918  0.00  0.00    +0.000 C 
BRANCH  23  34
ATOM     33  C   UNL     1      48.818   5.340  16.969  0.00  0.00    +0.000 C 
ATOM     34  O   UNL     1      49.214   6.474  16.206  0.00  0.00    +0.000 OA
ENDBRANCH  23  34
ENDBRANCH  19  29
ENDBRANCH   1  21
TORSDOF 9
ENDMDL
MODEL 9
REMARK VINA RESULT:    -6.795      3.318      5.123
REMARK INTER + INTRA:         -11.642
REMARK INTER:                 -10.416
REMARK INTRA:                  -1.227
REMARK UNBOUND:                -1.471
REMARK  Name = 
REMARK  11 active torsions:
REMARK  status: ('A' for Active; 'I' for Inactive)
REMARK    1  A    between atoms: C_1  and  O_2
REMARK    2  A    between atoms: O_2  and  C_3
REMARK    3  A    between atoms: C_9  and  C_10
REMARK    4  A    between atoms: N_12  and  C_13
REMARK    5  A    between atoms: C_13  and  C_14
REMARK    6  A    between atoms: C_17  and  O_18
REMARK    7  A    between atoms: O_18  and  C_19
REMARK    8  A    between atoms: C_19  and  C_20
REMARK    9  A    between atoms: C_20  and  O_21
REMARK   10  A    between atoms: C_20  and  C_22
REMARK   11  A    between atoms: N_31  and  C_32
REMARK                            x       y       z     vdW  Elec       q    Type
REMARK                         _______ _______ _______ _____ _____    ______ ____
ROOT
ATOM      1  C   UNL     1      48.572   6.504  14.821  0.00  0.00    +0.000 C 
ENDROOT
BRANCH   1   2
ATOM      2  C   UNL     1      47.534   5.946  13.886  0.00  0.00    +0.000 A 
ATOM      3  C   UNL     1      47.154   6.703  12.779  0.00  0.00    +0.000 A 
ATOM      4  C   UNL     1      46.174   6.238  11.909  0.00  0.00    +0.000 A 
ATOM      5  C   UNL     1      45.536   5.016  12.124  0.00  0.00    +0.000 A 
ATOM      6  C   UNL     1      45.908   4.249  13.235  0.00  0.00    +0.000 A 
ATOM      7  C   UNL     1      46.904   4.716  14.115  0.00  0.00    +0.000 A 
BRANCH   5   8
ATOM      8  O   UNL     1      44.556   4.509  11.305  0.00  0.00    +0.000 OA
BRANCH   8   9
ATOM      9  C   UNL     1      44.904   3.247  10.704  0.00  0.00    +0.000 C 
BRANCH   9  10
ATOM     10  C   UNL     1      44.437   3.142   9.250  0.00  0.00    +0.000 C 
BRANCH  10  11
ATOM     11  C   UNL     1      45.507   2.620   8.312  0.00  0.00    +0.000 A 
ATOM     12  C   UNL     1      45.959   3.416   7.262  0.00  0.00    +0.000 A 
ATOM     13  C   UNL     1      46.920   2.908   6.392  0.00  0.00    +0.000 A 
ATOM     14  C   UNL     1      47.393   1.616   6.593  0.00  0.00    +0.000 A 
ATOM     15  C   UNL     1      46.884   0.879   7.643  0.00  0.00    +0.000 A 
ATOM     16  N   UNL     1      45.943   1.343   8.490  0.00  0.00    +0.000 NA
ENDBRANCH  10  11
BRANCH  10  17
ATOM     17  O   UNL     1      43.925   4.414   8.829  0.00  0.00    +0.000 OA
ATOM     18  H   UNL     1      44.578   4.749   8.182  0.00  0.00    +0.000 HD
ENDBRANCH  10  17
ENDBRANCH   9  10
ENDBRANCH   8   9
ENDBRANCH   5   8
ENDBRANCH   1   2
BRANCH   1  21
ATOM     19  C   UNL     1      50.538   7.949  14.661  0.00  0.00    +0.000 C 
ATOM     20  O   UNL     1      50.458   8.281  15.844  0.00  0.00    +0.000 OA
ATOM     21  N   UNL     1      49.699   7.023  14.100  0.00  0.00    +0.000 N 
ATOM     22  H   UNL     1      49.747   6.856  13.104  0.00  0.00    +0.000 HD
BRANCH  19  29
ATOM     23  C   UNL     1      50.398   9.767  11.804  0.00  0.00    +0.000 A 
ATOM     24  N   UNL     1      50.625  10.384  10.618  0.00  0.00    +0.000 NA
ATOM     25  C   UNL     1      51.889  10.505  10.173  0.00  0.00    +0.000 A 
ATOM     26  C   UNL     1      53.010  10.066  10.852  0.00  0.00    +0.000 A 
ATOM     27  C   UNL     1      52.766   9.423  12.068  0.00  0.00    +0.000 A 
ATOM     28  C   UNL     1      51.465   9.225  12.550  0.00  0.00    +0.000 A 
ATOM     29  C   UNL     1      51.576   8.480  13.779  0.00  0.00    +0.000 A 
ATOM     30  C   UNL     1      52.932   8.336  14.029  0.00  0.00    +0.000 A 
ATOM     31  N   UNL     1      53.631   8.893  12.996  0.00  0.00    +0.000 N 
ATOM     32  C   UNL     1      55.074   8.934  12.900  0.00  0.00    +0.000 C 
BRANCH  23  34
ATOM     33  C   UNL     1      48.690  10.788  13.028  0.00  0.00    +0.000 C 
ATOM     34  O   UNL     1      49.100   9.660  12.264  0.00  0.00    +0.000 OA
ENDBRANCH  23  34
ENDBRANCH  19  29
ENDBRANCH   1  21
TORSDOF 9
ENDMDL
