MODEL 1
REMARK VINA RESULT:    -7.637      0.000      0.000
REMARK INTER + INTRA:         -10.465
REMARK INTER:                 -10.093
REMARK INTRA:                  -0.372
REMARK UNBOUND:                -0.372
REMARK  Name = 
REMARK  6 active torsions:
REMARK  status: ('A' for Active; 'I' for Inactive)
REMARK    1  A    between atoms: N_1  and  C_2
REMARK    2  A    between atoms: C_2  and  C_3
REMARK    3  A    between atoms: C_6  and  C_7
REMARK    4  A    between atoms: C_7  and  O_8
REMARK    5  A    between atoms: O_8  and  C_9
REMARK    6  A    between atoms: C_13  and  C_14
REMARK                            x       y       z     vdW  Elec       q    Type
REMARK                         _______ _______ _______ _____ _____    ______ ____
ROOT
ATOM      1  O   UNL     1      43.936   4.322  10.830  0.00  0.00    +0.000 OA
ENDROOT
BRANCH   1   2
ATOM      2  C   UNL     1      44.839   4.883  11.688  0.00  0.00    +0.000 A 
ATOM      3  C   UNL     1      45.183   6.209  11.448  0.00  0.00    +0.000 A 
ATOM      4  N   UNL     1      46.082   6.911  12.182  0.00  0.00    +0.000 NA
ATOM      5  C   UNL     1      46.670   6.253  13.212  0.00  0.00    +0.000 A 
ATOM      6  C   UNL     1      46.397   4.934  13.543  0.00  0.00    +0.000 A 
ATOM      7  C   UNL     1      45.456   4.248  12.763  0.00  0.00    +0.000 A 
BRANCH   6   8
ATOM      8  C   UNL     1      47.049   4.207  14.661  0.00  0.00    +0.000 C 
ATOM      9  N   UNL     1      47.177   4.824  15.875  0.00  0.00    +0.000 N 
ATOM     10  O   UNL     1      47.478   3.070  14.507  0.00  0.00    +0.000 OA
ATOM     11  H   UNL     1      46.875   5.757  16.106  0.00  0.00    +0.000 HD
ATOM     12  H   UNL     1      47.638   4.289  16.602  0.00  0.00    +0.000 HD
ENDBRANCH   6   8
ENDBRANCH   1   2
BRANCH   1  13
ATOM     13  C   UNL     1      44.148   2.948  10.499  0.00  0.00    +0.000 C 
BRANCH  13  17
ATOM     14  C   UNL     1      46.503   2.756   7.014  0.00  0.00    +0.000 A 
ATOM     15  C   UNL     1      46.397   1.669   7.877  0.00  0.00    +0.000 A 
ATOM     16  N   UNL     1      45.643   1.690   9.003  0.00  0.00    +0.000 NA
ATOM     17  C   UNL     1      44.971   2.844   9.242  0.00  0.00    +0.000 A 
ATOM     18  C   UNL     1      45.057   3.921   8.366  0.00  0.00    +0.000 A 
ATOM     19  N   UNL     1      45.821   3.908   7.248  0.00  0.00    +0.000 NA
BRANCH  14  20
ATOM     20  C   UNL     1      47.402   2.694   5.804  0.00  0.00    +0.000 C 
BRANCH  20  21
ATOM     21  N   UNL     1      48.440   1.666   5.911  0.00  0.00    +0.000 NA
ATOM     22  H   UNL     1      48.030   0.834   6.331  0.00  0.00    +0.000 HD
ATOM     23  H   UNL     1      49.142   1.994   6.577  0.00  0.00    +0.000 HD
ENDBRANCH  20  21
ENDBRANCH  14  20
ENDBRANCH  13  17
ENDBRANCH   1  13
TORSDOF 6
ENDMDL
MODEL 2
REMARK VINA RESULT:    -7.375      1.952      6.316
REMARK INTER + INTRA:         -10.118
REMARK INTER:                 -10.160
REMARK INTRA:                   0.042
REMARK UNBOUND:                -0.372
REMARK  Name = 
REMARK  6 active torsions:
REMARK  status: ('A' for Active; 'I' for Inactive)
REMARK    1  A    between atoms: N_1  and  C_2
REMARK    2  A    between atoms: C_2  and  C_3
REMARK    3  A    between atoms: C_6  and  C_7
REMARK    4  A    between atoms: C_7  and  O_8
REMARK    5  A    between atoms: O_8  and  C_9
REMARK    6  A    between atoms: C_13  and  C_14
REMARK                            x       y       z     vdW  Elec       q    Type
REMARK                         _______ _______ _______ _____ _____    ______ ____
ROOT
ATOM      1  O   UNL     1      43.852   2.654  10.212  0.00  0.00    +0.000 OA
ENDROOT
BRANCH   1   2
ATOM      2  C   UNL     1      44.816   2.948   9.289  0.00  0.00    +0.000 A 
ATOM      3  C   UNL     1      44.970   4.290   8.960  0.00  0.00    +0.000 A 
ATOM      4  N   UNL     1      45.857   4.757   8.045  0.00  0.00    +0.000 NA
ATOM      5  C   UNL     1      46.631   3.832   7.425  0.00  0.00    +0.000 A 
ATOM      6  C   UNL     1      46.565   2.470   7.681  0.00  0.00    +0.000 A 
ATOM      7  C   UNL     1      45.640   2.032   8.639  0.00  0.00    +0.000 A 
BRANCH   6   8
ATOM      8  C   UNL     1      47.401   1.454   6.995  0.00  0.00    +0.000 C 
ATOM      9  N   UNL     1      48.443   1.866   6.210  0.00  0.00    +0.000 N 
ATOM     10  O   UNL     1      47.167   0.258   7.117  0.00  0.00    +0.000 OA
ATOM     11  H   UNL     1      48.714   2.819   6.028  0.00  0.00    +0.000 HD
ATOM     12  H   UNL     1      48.976   1.135   5.755  0.00  0.00    +0.000 HD
ENDBRANCH   6   8
ENDBRANCH   1   2
BRANCH   1  13
ATOM     13  C   UNL     1      43.394   3.743  11.016  0.00  0.00    +0.000 C 
BRANCH  13  17
ATOM     14  C   UNL     1      46.362   4.636  13.866  0.00  0.00    +0.000 A 
ATOM     15  C   UNL     1      45.502   5.619  13.384  0.00  0.00    +0.000 A 
ATOM     16  N   UNL     1      44.530   5.369  12.473  0.00  0.00    +0.000 NA
ATOM     17  C   UNL     1      44.426   4.081  12.059  0.00  0.00    +0.000 A 
ATOM     18  C   UNL     1      45.270   3.094  12.560  0.00  0.00    +0.000 A 
ATOM     19  N   UNL     1      46.251   3.345  13.459  0.00  0.00    +0.000 NA
BRANCH  14  20
ATOM     20  C   UNL     1      47.462   4.986  14.837  0.00  0.00    +0.000 C 
BRANCH  20  21
ATOM     21  N   UNL     1      47.917   3.840  15.629  0.00  0.00    +0.000 NA
ATOM     22  H   UNL     1      48.107   4.157  16.578  0.00  0.00    +0.000 HD
ATOM     23  H   UNL     1      48.817   3.535  15.255  0.00  0.00    +0.000 HD
ENDBRANCH  20  21
ENDBRANCH  14  20
ENDBRANCH  13  17
ENDBRANCH   1  13
TORSDOF 6
ENDMDL
MODEL 3
REMARK VINA RESULT:    -7.240      1.606      2.200
REMARK INTER + INTRA:          -9.940
REMARK INTER:                  -9.598
REMARK INTRA:                  -0.342
REMARK UNBOUND:                -0.372
REMARK  Name = 
REMARK  6 active torsions:
REMARK  status: ('A' for Active; 'I' for Inactive)
REMARK    1  A    between atoms: N_1  and  C_2
REMARK    2  A    between atoms: C_2  and  C_3
REMARK    3  A    between atoms: C_6  and  C_7
REMARK    4  A    between atoms: C_7  and  O_8
REMARK    5  A    between atoms: O_8  and  C_9
REMARK    6  A    between atoms: C_13  and  C_14
REMARK                            x       y       z     vdW  Elec       q    Type
REMARK                         _______ _______ _______ _____ _____    ______ ____
ROOT
ATOM      1  O   UNL     1      44.687   5.526  10.413  0.00  0.00    +0.000 OA
ENDROOT
BRANCH   1   2
ATOM      2  C   UNL     1      45.346   5.358  11.598  0.00  0.00    +0.000 A 
ATOM      3  C   UNL     1      44.945   4.284  12.385  0.00  0.00    +0.000 A 
ATOM      4  N   UNL     1      45.470   3.987  13.600  0.00  0.00    +0.000 NA
ATOM      5  C   UNL     1      46.449   4.808  14.054  0.00  0.00    +0.000 A 
ATOM      6  C   UNL     1      46.930   5.903  13.350  0.00  0.00    +0.000 A 
ATOM      7  C   UNL     1      46.364   6.169  12.096  0.00  0.00    +0.000 A 
BRANCH   6   8
ATOM      8  C   UNL     1      47.992   6.810  13.851  0.00  0.00    +0.000 C 
ATOM      9  N   UNL     1      47.637   7.963  14.494  0.00  0.00    +0.000 N 
ATOM     10  O   UNL     1      49.176   6.543  13.688  0.00  0.00    +0.000 OA
ATOM     11  H   UNL     1      46.699   8.287  14.667  0.00  0.00    +0.000 HD
ATOM     12  H   UNL     1      48.399   8.554  14.807  0.00  0.00    +0.000 HD
ENDBRANCH   6   8
ENDBRANCH   1   2
BRANCH   1  13
ATOM     13  C   UNL     1      44.025   4.373   9.889  0.00  0.00    +0.000 C 
BRANCH  13  17
ATOM     14  C   UNL     1      46.606   2.072   7.486  0.00  0.00    +0.000 A 
ATOM     15  C   UNL     1      46.461   3.442   7.286  0.00  0.00    +0.000 A 
ATOM     16  N   UNL     1      45.646   4.217   8.044  0.00  0.00    +0.000 NA
ATOM     17  C   UNL     1      44.979   3.577   9.037  0.00  0.00    +0.000 A 
ATOM     18  C   UNL     1      45.145   2.212   9.253  0.00  0.00    +0.000 A 
ATOM     19  N   UNL     1      45.946   1.434   8.488  0.00  0.00    +0.000 NA
BRANCH  14  20
ATOM     20  C   UNL     1      47.485   1.251   6.575  0.00  0.00    +0.000 C 
BRANCH  20  21
ATOM     21  N   UNL     1      48.594   2.016   6.001  0.00  0.00    +0.000 NA
ATOM     22  H   UNL     1      48.852   1.595   5.110  0.00  0.00    +0.000 HD
ATOM     23  H   UNL     1      49.408   1.897   6.608  0.00  0.00    +0.000 HD
ENDBRANCH  20  21
ENDBRANCH  14  20
ENDBRANCH  13  17
ENDBRANCH   1  13
TORSDOF 6
ENDMDL
MODEL 4
REMARK VINA RESULT:    -7.113      2.071      6.409
REMARK INTER + INTRA:          -9.773
REMARK INTER:                  -9.417
REMARK INTRA:                  -0.356
REMARK UNBOUND:                -0.372
REMARK  Name = 
REMARK  6 active torsions:
REMARK  status: ('A' for Active; 'I' for Inactive)
REMARK    1  A    between atoms: N_1  and  C_2
REMARK    2  A    between atoms: C_2  and  C_3
REMARK    3  A    between atoms: C_6  and  C_7
REMARK    4  A    between atoms: C_7  and  O_8
REMARK    5  A    between atoms: O_8  and  C_9
REMARK    6  A    between atoms: C_13  and  C_14
REMARK                            x       y       z     vdW  Elec       q    Type
REMARK                         _______ _______ _______ _____ _____    ______ ____
ROOT
ATOM      1  O   UNL     1      44.119   4.432   9.157  0.00  0.00    +0.000 OA
ENDROOT
BRANCH   1   2
ATOM      2  C   UNL     1      44.879   3.427   8.627  0.00  0.00    +0.000 A 
ATOM      3  C   UNL     1      44.717   2.165   9.186  0.00  0.00    +0.000 A 
ATOM      4  N   UNL     1      45.409   1.063   8.803  0.00  0.00    +0.000 NA
ATOM      5  C   UNL     1      46.314   1.232   7.806  0.00  0.00    +0.000 A 
ATOM      6  C   UNL     1      46.552   2.445   7.175  0.00  0.00    +0.000 A 
ATOM      7  C   UNL     1      45.809   3.555   7.598  0.00  0.00    +0.000 A 
BRANCH   6   8
ATOM      8  C   UNL     1      47.551   2.635   6.094  0.00  0.00    +0.000 C 
ATOM      9  N   UNL     1      48.882   2.529   6.388  0.00  0.00    +0.000 N 
ATOM     10  O   UNL     1      47.198   2.893   4.950  0.00  0.00    +0.000 OA
ATOM     11  H   UNL     1      49.281   2.337   7.293  0.00  0.00    +0.000 HD
ATOM     12  H   UNL     1      49.523   2.678   5.618  0.00  0.00    +0.000 HD
ENDBRANCH   6   8
ENDBRANCH   1   2
BRANCH   1  13
ATOM     13  C   UNL     1      43.812   4.325  10.549  0.00  0.00    +0.000 C 
BRANCH  13  17
ATOM     14  C   UNL     1      46.967   5.923  12.834  0.00  0.00    +0.000 A 
ATOM     15  C   UNL     1      46.266   4.796  13.256  0.00  0.00    +0.000 A 
ATOM     16  N   UNL     1      45.250   4.249  12.545  0.00  0.00    +0.000 NA
ATOM     17  C   UNL     1      44.957   4.859  11.368  0.00  0.00    +0.000 A 
ATOM     18  C   UNL     1      45.676   5.969  10.935  0.00  0.00    +0.000 A 
ATOM     19  N   UNL     1      46.681   6.527  11.652  0.00  0.00    +0.000 NA
BRANCH  14  20
ATOM     20  C   UNL     1      48.051   6.521  13.696  0.00  0.00    +0.000 C 
BRANCH  20  21
ATOM     21  N   UNL     1      49.347   6.603  13.018  0.00  0.00    +0.000 NA
ATOM     22  H   UNL     1      49.473   5.761  12.458  0.00  0.00    +0.000 HD
ATOM     23  H   UNL     1      50.079   6.571  13.730  0.00  0.00    +0.000 HD
ENDBRANCH  20  21
ENDBRANCH  14  20
ENDBRANCH  13  17
ENDBRANCH   1  13
TORSDOF 6
ENDMDL
MODEL 5
REMARK VINA RESULT:    -6.882      1.782      3.015
REMARK INTER + INTRA:          -9.467
REMARK INTER:                  -9.010
REMARK INTRA:                  -0.457
REMARK UNBOUND:                -0.372
REMARK  Name = 
REMARK  6 active torsions:
REMARK  status: ('A' for Active; 'I' for Inactive)
REMARK    1  A    between atoms: N_1  and  C_2
REMARK    2  A    between atoms: C_2  and  C_3
REMARK    3  A    between atoms: C_6  and  C_7
REMARK    4  A    between atoms: C_7  and  O_8
REMARK    5  A    between atoms: O_8  and  C_9
REMARK    6  A    between atoms: C_13  and  C_14
REMARK                            x       y       z     vdW  Elec       q    Type
REMARK                         _______ _______ _______ _____ _____    ______ ____
ROOT
ATOM      1  O   UNL     1      43.948   4.373  11.180  0.00  0.00    +0.000 OA
ENDROOT
BRANCH   1   2
ATOM      2  C   UNL     1      44.793   5.250  11.801  0.00  0.00    +0.000 A 
ATOM      3  C   UNL     1      45.799   4.694  12.584  0.00  0.00    +0.000 A 
ATOM      4  N   UNL     1      46.705   5.415  13.290  0.00  0.00    +0.000 NA
ATOM      5  C   UNL     1      46.601   6.765  13.210  0.00  0.00    +0.000 A 
ATOM      6  C   UNL     1      45.641   7.424  12.455  0.00  0.00    +0.000 A 
ATOM      7  C   UNL     1      44.729   6.640  11.735  0.00  0.00    +0.000 A 
BRANCH   6   8
ATOM      8  C   UNL     1      45.516   8.901  12.377  0.00  0.00    +0.000 C 
ATOM      9  N   UNL     1      46.493   9.684  12.926  0.00  0.00    +0.000 N 
ATOM     10  O   UNL     1      44.549   9.423  11.836  0.00  0.00    +0.000 OA
ATOM     11  H   UNL     1      47.318   9.362  13.406  0.00  0.00    +0.000 HD
ATOM     12  H   UNL     1      46.355  10.685  12.855  0.00  0.00    +0.000 HD
ENDBRANCH   6   8
ENDBRANCH   1   2
BRANCH   1  13
ATOM     13  C   UNL     1      43.795   4.535   9.768  0.00  0.00    +0.000 C 
BRANCH  13  17
ATOM     14  C   UNL     1      46.535   2.087   7.713  0.00  0.00    +0.000 A 
ATOM     15  C   UNL     1      46.434   3.448   7.439  0.00  0.00    +0.000 A 
ATOM     16  N   UNL     1      45.570   4.269   8.085  0.00  0.00    +0.000 NA
ATOM     17  C   UNL     1      44.805   3.687   9.042  0.00  0.00    +0.000 A 
ATOM     18  C   UNL     1      44.925   2.331   9.333  0.00  0.00    +0.000 A 
ATOM     19  N   UNL     1      45.777   1.506   8.679  0.00  0.00    +0.000 NA
BRANCH  14  20
ATOM     20  C   UNL     1      47.475   1.211   6.923  0.00  0.00    +0.000 C 
BRANCH  20  21
ATOM     21  N   UNL     1      48.335   1.967   6.008  0.00  0.00    +0.000 NA
ATOM     22  H   UNL     1      47.951   2.904   5.903  0.00  0.00    +0.000 HD
ATOM     23  H   UNL     1      48.268   1.537   5.084  0.00  0.00    +0.000 HD
ENDBRANCH  20  21
ENDBRANCH  14  20
ENDBRANCH  13  17
ENDBRANCH   1  13
TORSDOF 6
ENDMDL
MODEL 6
REMARK VINA RESULT:    -6.457      2.536      7.049
REMARK INTER + INTRA:          -8.905
REMARK INTER:                  -8.650
REMARK INTRA:                  -0.254
REMARK UNBOUND:                -0.372
REMARK  Name = 
REMARK  6 active torsions:
REMARK  status: ('A' for Active; 'I' for Inactive)
REMARK    1  A    between atoms: N_1  and  C_2
REMARK    2  A    between atoms: C_2  and  C_3
REMARK    3  A    between atoms: C_6  and  C_7
REMARK    4  A    between atoms: C_7  and  O_8
REMARK    5  A    between atoms: O_8  and  C_9
REMARK    6  A    between atoms: C_13  and  C_14
REMARK                            x       y       z     vdW  Elec       q    Type
REMARK                         _______ _______ _______ _____ _____    ______ ____
ROOT
ATOM      1  O   UNL     1      46.134   6.972  12.611  0.00  0.00    +0.000 OA
ENDROOT
BRANCH   1   2
ATOM      2  C   UNL     1      45.342   6.218  11.791  0.00  0.00    +0.000 A 
ATOM      3  C   UNL     1      44.056   5.950  12.246  0.00  0.00    +0.000 A 
ATOM      4  N   UNL     1      43.149   5.195  11.576  0.00  0.00    +0.000 NA
ATOM      5  C   UNL     1      43.549   4.681  10.386  0.00  0.00    +0.000 A 
ATOM      6  C   UNL     1      44.806   4.889   9.837  0.00  0.00    +0.000 A 
ATOM      7  C   UNL     1      45.709   5.681  10.560  0.00  0.00    +0.000 A 
BRANCH   6   8
ATOM      8  C   UNL     1      45.251   4.316   8.542  0.00  0.00    +0.000 C 
ATOM      9  N   UNL     1      44.506   3.331   7.956  0.00  0.00    +0.000 N 
ATOM     10  O   UNL     1      46.277   4.709   8.000  0.00  0.00    +0.000 OA
ATOM     11  H   UNL     1      43.660   2.924   8.321  0.00  0.00    +0.000 HD
ATOM     12  H   UNL     1      44.859   2.965   7.079  0.00  0.00    +0.000 HD
ENDBRANCH   6   8
ENDBRANCH   1   2
BRANCH   1  13
ATOM     13  C   UNL     1      47.464   6.494  12.819  0.00  0.00    +0.000 C 
BRANCH  13  17
ATOM     14  C   UNL     1      47.700   4.303  16.406  0.00  0.00    +0.000 A 
ATOM     15  C   UNL     1      48.453   5.457  16.213  0.00  0.00    +0.000 A 
ATOM     16  N   UNL     1      48.398   6.193  15.076  0.00  0.00    +0.000 NA
ATOM     17  C   UNL     1      47.542   5.745  14.123  0.00  0.00    +0.000 A 
ATOM     18  C   UNL     1      46.771   4.606  14.327  0.00  0.00    +0.000 A 
ATOM     19  N   UNL     1      46.835   3.860  15.457  0.00  0.00    +0.000 NA
BRANCH  14  20
ATOM     20  C   UNL     1      47.845   3.493  17.671  0.00  0.00    +0.000 C 
BRANCH  20  21
ATOM     21  N   UNL     1      46.689   2.632  17.939  0.00  0.00    +0.000 NA
ATOM     22  H   UNL     1      46.128   2.571  17.092  0.00  0.00    +0.000 HD
ATOM     23  H   UNL     1      46.099   3.102  18.627  0.00  0.00    +0.000 HD
ENDBRANCH  20  21
ENDBRANCH  14  20
ENDBRANCH  13  17
ENDBRANCH   1  13
TORSDOF 6
ENDMDL
MODEL 7
REMARK VINA RESULT:    -6.402      2.245      7.035
REMARK INTER + INTRA:          -8.832
REMARK INTER:                  -8.452
REMARK INTRA:                  -0.380
REMARK UNBOUND:                -0.372
REMARK  Name = 
REMARK  6 active torsions:
REMARK  status: ('A' for Active; 'I' for Inactive)
REMARK    1  A    between atoms: N_1  and  C_2
REMARK    2  A    between atoms: C_2  and  C_3
REMARK    3  A    between atoms: C_6  and  C_7
REMARK    4  A    between atoms: C_7  and  O_8
REMARK    5  A    between atoms: O_8  and  C_9
REMARK    6  A    between atoms: C_13  and  C_14
REMARK                            x       y       z     vdW  Elec       q    Type
REMARK                         _______ _______ _______ _____ _____    ______ ____
ROOT
ATOM      1  O   UNL     1      45.085   5.454   9.634  0.00  0.00    +0.000 OA
ENDROOT
BRANCH   1   2
ATOM      2  C   UNL     1      45.337   4.215   9.115  0.00  0.00    +0.000 A 
ATOM      3  C   UNL     1      44.700   3.143   9.729  0.00  0.00    +0.000 A 
ATOM      4  N   UNL     1      44.857   1.846   9.362  0.00  0.00    +0.000 NA
ATOM      5  C   UNL     1      45.697   1.608   8.324  0.00  0.00    +0.000 A 
ATOM      6  C   UNL     1      46.379   2.602   7.637  0.00  0.00    +0.000 A 
ATOM      7  C   UNL     1      46.181   3.928   8.045  0.00  0.00    +0.000 A 
BRANCH   6   8
ATOM      8  C   UNL     1      47.309   2.342   6.510  0.00  0.00    +0.000 C 
ATOM      9  N   UNL     1      47.309   3.187   5.435  0.00  0.00    +0.000 N 
ATOM     10  O   UNL     1      48.068   1.381   6.529  0.00  0.00    +0.000 OA
ATOM     11  H   UNL     1      46.719   3.994   5.309  0.00  0.00    +0.000 HD
ATOM     12  H   UNL     1      47.954   2.960   4.688  0.00  0.00    +0.000 HD
ENDBRANCH   6   8
ENDBRANCH   1   2
BRANCH   1  13
ATOM     13  C   UNL     1      44.533   5.486  10.952  0.00  0.00    +0.000 C 
BRANCH  13  17
ATOM     14  C   UNL     1      47.153   7.624  13.462  0.00  0.00    +0.000 A 
ATOM     15  C   UNL     1      46.146   8.269  12.749  0.00  0.00    +0.000 A 
ATOM     16  N   UNL     1      45.279   7.614  11.938  0.00  0.00    +0.000 NA
ATOM     17  C   UNL     1      45.437   6.268  11.868  0.00  0.00    +0.000 A 
ATOM     18  C   UNL     1      46.428   5.621  12.600  0.00  0.00    +0.000 A 
ATOM     19  N   UNL     1      47.304   6.275  13.400  0.00  0.00    +0.000 NA
BRANCH  14  20
ATOM     20  C   UNL     1      48.124   8.412  14.305  0.00  0.00    +0.000 C 
BRANCH  20  21
ATOM     21  N   UNL     1      47.490   9.072  15.449  0.00  0.00    +0.000 NA
ATOM     22  H   UNL     1      48.220   9.409  16.074  0.00  0.00    +0.000 HD
ATOM     23  H   UNL     1      46.980   8.363  15.980  0.00  0.00    +0.000 HD
ENDBRANCH  20  21
ENDBRANCH  14  20
ENDBRANCH  13  17
ENDBRANCH   1  13
TORSDOF 6
ENDMDL
MODEL 8
REMARK VINA RESULT:    -6.316      2.489      7.776
REMARK INTER + INTRA:          -8.719
REMARK INTER:                  -8.436
REMARK INTRA:                  -0.284
REMARK UNBOUND:                -0.372
REMARK  Name = 
REMARK  6 active torsions:
REMARK  status: ('A' for Active; 'I' for Inactive)
REMARK    1  A    between atoms: N_1  and  C_2
REMARK    2  A    between atoms: C_2  and  C_3
REMARK    3  A    between atoms: C_6  and  C_7
REMARK    4  A    between atoms: C_7  and  O_8
REMARK    5  A    between atoms: O_8  and  C_9
REMARK    6  A    between atoms: C_13  and  C_14
REMARK                            x       y       z     vdW  Elec       q    Type
REMARK                         _______ _______ _______ _____ _____    ______ ____
ROOT
ATOM      1  O   UNL     1      45.545   4.127  14.052  0.00  0.00    +0.000 OA
ENDROOT
BRANCH   1   2
ATOM      2  C   UNL     1      44.897   4.367  12.873  0.00  0.00    +0.000 A 
ATOM      3  C   UNL     1      43.961   5.395  12.876  0.00  0.00    +0.000 A 
ATOM      4  N   UNL     1      43.208   5.749  11.804  0.00  0.00    +0.000 NA
ATOM      5  C   UNL     1      43.402   5.036  10.666  0.00  0.00    +0.000 A 
ATOM      6  C   UNL     1      44.312   3.996  10.550  0.00  0.00    +0.000 A 
ATOM      7  C   UNL     1      45.074   3.668  11.680  0.00  0.00    +0.000 A 
BRANCH   6   8
ATOM      8  C   UNL     1      44.515   3.205   9.311  0.00  0.00    +0.000 C 
ATOM      9  N   UNL     1      44.681   1.851   9.401  0.00  0.00    +0.000 N 
ATOM     10  O   UNL     1      44.544   3.751   8.214  0.00  0.00    +0.000 OA
ATOM     11  H   UNL     1      44.690   1.305  10.247  0.00  0.00    +0.000 HD
ATOM     12  H   UNL     1      44.827   1.359   8.527  0.00  0.00    +0.000 HD
ENDBRANCH   6   8
ENDBRANCH   1   2
BRANCH   1  13
ATOM     13  C   UNL     1      46.921   4.509  14.105  0.00  0.00    +0.000 C 
BRANCH  13  17
ATOM     14  C   UNL     1      48.244   4.534  18.102  0.00  0.00    +0.000 A 
ATOM     15  C   UNL     1      47.424   3.518  17.617  0.00  0.00    +0.000 A 
ATOM     16  N   UNL     1      46.985   3.472  16.336  0.00  0.00    +0.000 NA
ATOM     17  C   UNL     1      47.407   4.479  15.530  0.00  0.00    +0.000 A 
ATOM     18  C   UNL     1      48.247   5.479  16.009  0.00  0.00    +0.000 A 
ATOM     19  N   UNL     1      48.675   5.536  17.293  0.00  0.00    +0.000 NA
BRANCH  14  20
ATOM     20  C   UNL     1      48.655   4.564  19.553  0.00  0.00    +0.000 C 
BRANCH  20  21
ATOM     21  N   UNL     1      48.359   3.315  20.261  0.00  0.00    +0.000 NA
ATOM     22  H   UNL     1      47.349   3.225  20.350  0.00  0.00    +0.000 HD
ATOM     23  H   UNL     1      48.713   3.402  21.216  0.00  0.00    +0.000 HD
ENDBRANCH  20  21
ENDBRANCH  14  20
ENDBRANCH  13  17
ENDBRANCH   1  13
TORSDOF 6
ENDMDL
MODEL 9
REMARK VINA RESULT:    -6.052      3.151      7.686
REMARK INTER + INTRA:          -8.370
REMARK INTER:                  -8.038
REMARK INTRA:                  -0.332
REMARK UNBOUND:                -0.372
REMARK  Name = 
REMARK  6 active torsions:
REMARK  status: ('A' for Active; 'I' for Inactive)
REMARK    1  A    between atoms: N_1  and  C_2
REMARK    2  A    between atoms: C_2  and  C_3
REMARK    3  A    between atoms: C_6  and  C_7
REMARK    4  A    between atoms: C_7  and  O_8
REMARK    5  A    between atoms: O_8  and  C_9
REMARK    6  A    between atoms: C_13  and  C_14
REMARK                            x       y       z     vdW  Elec       q    Type
REMARK                         _______ _______ _______ _____ _____    ______ ____
ROOT
ATOM      1  O   UNL     1      47.135   3.370  14.405  0.00  0.00    +0.000 OA
ENDROOT
BRANCH   1   2
ATOM      2  C   UNL     1      46.552   4.116  13.419  0.00  0.00    +0.000 A 
ATOM      3  C   UNL     1      47.001   5.424  13.282  0.00  0.00    +0.000 A 
ATOM      4  N   UNL     1      46.514   6.310  12.377  0.00  0.00    +0.000 NA
ATOM      5  C   UNL     1      45.525   5.863  11.564  0.00  0.00    +0.000 A 
ATOM      6  C   UNL     1      45.006   4.577  11.611  0.00  0.00    +0.000 A 
ATOM      7  C   UNL     1      45.543   3.693  12.556  0.00  0.00    +0.000 A 
BRANCH   6   8
ATOM      8  C   UNL     1      43.914   4.090  10.731  0.00  0.00    +0.000 C 
ATOM      9  N   UNL     1      43.842   4.541   9.443  0.00  0.00    +0.000 N 
ATOM     10  O   UNL     1      43.077   3.299  11.147  0.00  0.00    +0.000 OA
ATOM     11  H   UNL     1      44.464   5.201   9.005  0.00  0.00    +0.000 HD
ATOM     12  H   UNL     1      43.072   4.187   8.887  0.00  0.00    +0.000 HD
ENDBRANCH   6   8
ENDBRANCH   1   2
BRANCH   1  13
ATOM     13  C   UNL     1      47.231   3.988  15.690  0.00  0.00    +0.000 C 
BRANCH  13  17
ATOM     14  C   UNL     1      50.844   2.770  17.477  0.00  0.00    +0.000 A 
ATOM     15  C   UNL     1      50.482   4.113  17.419  0.00  0.00    +0.000 A 
ATOM     16  N   UNL     1      49.324   4.543  16.860  0.00  0.00    +0.000 NA
ATOM     17  C   UNL     1      48.514   3.575  16.363  0.00  0.00    +0.000 A 
ATOM     18  C   UNL     1      48.865   2.231  16.443  0.00  0.00    +0.000 A 
ATOM     19  N   UNL     1      50.028   1.800  16.988  0.00  0.00    +0.000 NA
BRANCH  14  20
ATOM     20  C   UNL     1      52.172   2.355  18.061  0.00  0.00    +0.000 C 
BRANCH  20  21
ATOM     21  N   UNL     1      52.327   0.902  18.165  0.00  0.00    +0.000 NA
ATOM     22  H   UNL     1      53.123   0.704  18.768  0.00  0.00    +0.000 HD
ATOM     23  H   UNL     1      52.585   0.545  17.243  0.00  0.00    +0.000 HD
ENDBRANCH  20  21
ENDBRANCH  14  20
ENDBRANCH  13  17
ENDBRANCH   1  13
TORSDOF 6
ENDMDL
