MODEL 1
REMARK VINA RESULT:    -7.973      0.000      0.000
REMARK INTER + INTRA:         -10.016
REMARK INTER:                  -9.838
REMARK INTRA:                  -0.179
REMARK UNBOUND:                -0.179
REMARK  Name = 
REMARK  5 active torsions:
REMARK  status: ('A' for Active; 'I' for Inactive)
REMARK    1  A    between atoms: C_1  and  N_2
REMARK    2  A    between atoms: C_5  and  C_6
REMARK    3  A    between atoms: C_6  and  C_7
REMARK    4  A    between atoms: C_7  and  N_8
REMARK    5  A    between atoms: C_12  and  C_13
REMARK                            x       y       z     vdW  Elec       q    Type
REMARK                         _______ _______ _______ _____ _____    ______ ____
ROOT
ATOM      1  N   UNL     1      43.886   4.719   9.839  0.00  0.00    +0.000 N 
ATOM      2  C   UNL     1      44.765   3.975   9.064  0.00  0.00    +0.000 A 
ATOM      3  N   UNL     1      44.789   2.637   9.175  0.00  0.00    +0.000 NA
ATOM      4  C   UNL     1      45.695   1.969   8.433  0.00  0.00    +0.000 A 
ATOM      5  C   UNL     1      46.565   2.584   7.568  0.00  0.00    +0.000 A 
ATOM      6  C   UNL     1      46.465   3.953   7.519  0.00  0.00    +0.000 A 
ATOM      7  N   UNL     1      45.579   4.667   8.254  0.00  0.00    +0.000 NA
ATOM      8  H   UNL     1      44.259   5.661   9.879  0.00  0.00    +0.000 HD
ENDROOT
BRANCH   5   9
ATOM      9  C   UNL     1      47.540   1.781   6.815  0.00  0.00    +0.000 C 
ATOM     10  N   UNL     1      48.656   2.407   6.336  0.00  0.00    +0.000 N 
ATOM     11  O   UNL     1      47.346   0.592   6.604  0.00  0.00    +0.000 OA
ATOM     12  H   UNL     1      48.754   3.410   6.268  0.00  0.00    +0.000 HD
ATOM     13  H   UNL     1      49.253   1.845   5.738  0.00  0.00    +0.000 HD
ENDBRANCH   5   9
BRANCH   1  14
ATOM     14  C   UNL     1      43.573   4.097  11.115  0.00  0.00    +0.000 C 
BRANCH  14  15
ATOM     15  C   UNL     1      44.838   3.998  11.968  0.00  0.00    +0.000 C 
BRANCH  15  20
ATOM     16  C   UNL     1      48.245   7.285  11.877  0.00  0.00    +0.000 C 
ATOM     17  N   UNL     1      47.123   6.827  12.699  0.00  0.00    +0.000 NA
ATOM     18  C   UNL     1      45.865   6.978  11.955  0.00  0.00    +0.000 C 
ATOM     19  C   UNL     1      44.673   6.458  12.761  0.00  0.00    +0.000 C 
ATOM     20  C   UNL     1      44.853   4.985  13.159  0.00  0.00    +0.000 C 
ATOM     21  C   UNL     1      46.173   4.878  13.938  0.00  0.00    +0.000 C 
ATOM     22  C   UNL     1      47.356   5.446  13.148  0.00  0.00    +0.000 C 
ENDBRANCH  15  20
ENDBRANCH  14  15
ENDBRANCH   1  14
TORSDOF 4
ENDMDL
MODEL 2
REMARK VINA RESULT:    -7.686      1.389      1.986
REMARK INTER + INTRA:          -9.662
REMARK INTER:                  -9.263
REMARK INTRA:                  -0.399
REMARK UNBOUND:                -0.179
REMARK  Name = 
REMARK  5 active torsions:
REMARK  status: ('A' for Active; 'I' for Inactive)
REMARK    1  A    between atoms: C_1  and  N_2
REMARK    2  A    between atoms: C_5  and  C_6
REMARK    3  A    between atoms: C_6  and  C_7
REMARK    4  A    between atoms: C_7  and  N_8
REMARK    5  A    between atoms: C_12  and  C_13
REMARK                            x       y       z     vdW  Elec       q    Type
REMARK                         _______ _______ _______ _____ _____    ______ ____
ROOT
ATOM      1  N   UNL     1      43.820   4.979   9.700  0.00  0.00    +0.000 N 
ATOM      2  C   UNL     1      44.596   3.993   9.106  0.00  0.00    +0.000 A 
ATOM      3  N   UNL     1      44.561   2.736   9.578  0.00  0.00    +0.000 NA
ATOM      4  C   UNL     1      45.371   1.830   8.993  0.00  0.00    +0.000 A 
ATOM      5  C   UNL     1      46.199   2.125   7.940  0.00  0.00    +0.000 A 
ATOM      6  C   UNL     1      46.165   3.434   7.523  0.00  0.00    +0.000 A 
ATOM      7  N   UNL     1      45.378   4.381   8.088  0.00  0.00    +0.000 NA
ATOM      8  H   UNL     1      44.243   5.868   9.456  0.00  0.00    +0.000 HD
ENDROOT
BRANCH   5   9
ATOM      9  C   UNL     1      47.070   1.083   7.377  0.00  0.00    +0.000 C 
ATOM     10  N   UNL     1      46.775  -0.221   7.655  0.00  0.00    +0.000 N 
ATOM     11  O   UNL     1      48.045   1.377   6.699  0.00  0.00    +0.000 OA
ATOM     12  H   UNL     1      46.144  -0.512   8.387  0.00  0.00    +0.000 HD
ATOM     13  H   UNL     1      47.453  -0.904   7.333  0.00  0.00    +0.000 HD
ENDBRANCH   5   9
BRANCH   1  14
ATOM     14  C   UNL     1      43.579   4.749  11.115  0.00  0.00    +0.000 C 
BRANCH  14  15
ATOM     15  C   UNL     1      44.470   5.668  11.950  0.00  0.00    +0.000 C 
BRANCH  15  20
ATOM     16  C   UNL     1      47.617   8.314  14.298  0.00  0.00    +0.000 C 
ATOM     17  N   UNL     1      47.056   8.129  12.958  0.00  0.00    +0.000 NA
ATOM     18  C   UNL     1      47.373   6.781  12.466  0.00  0.00    +0.000 C 
ATOM     19  C   UNL     1      46.756   6.528  11.090  0.00  0.00    +0.000 C 
ATOM     20  C   UNL     1      45.231   6.717  11.105  0.00  0.00    +0.000 C 
ATOM     21  C   UNL     1      44.949   8.137  11.617  0.00  0.00    +0.000 C 
ATOM     22  C   UNL     1      45.612   8.404  12.973  0.00  0.00    +0.000 C 
ENDBRANCH  15  20
ENDBRANCH  14  15
ENDBRANCH   1  14
TORSDOF 4
ENDMDL
MODEL 3
REMARK VINA RESULT:    -6.656      2.954      6.650
REMARK INTER + INTRA:          -8.391
REMARK INTER:                  -8.194
REMARK INTRA:                  -0.197
REMARK UNBOUND:                -0.179
REMARK  Name = 
REMARK  5 active torsions:
REMARK  status: ('A' for Active; 'I' for Inactive)
REMARK    1  A    between atoms: C_1  and  N_2
REMARK    2  A    between atoms: C_5  and  C_6
REMARK    3  A    between atoms: C_6  and  C_7
REMARK    4  A    between atoms: C_7  and  N_8
REMARK    5  A    between atoms: C_12  and  C_13
REMARK                            x       y       z     vdW  Elec       q    Type
REMARK                         _______ _______ _______ _____ _____    ______ ____
ROOT
ATOM      1  N   UNL     1      45.491   3.353  12.895  0.00  0.00    +0.000 N 
ATOM      2  C   UNL     1      45.974   4.638  13.100  0.00  0.00    +0.000 A 
ATOM      3  N   UNL     1      45.229   5.698  12.750  0.00  0.00    +0.000 NA
ATOM      4  C   UNL     1      45.767   6.922  12.928  0.00  0.00    +0.000 A 
ATOM      5  C   UNL     1      47.013   7.129  13.463  0.00  0.00    +0.000 A 
ATOM      6  C   UNL     1      47.700   5.986  13.795  0.00  0.00    +0.000 A 
ATOM      7  N   UNL     1      47.205   4.737  13.623  0.00  0.00    +0.000 NA
ATOM      8  H   UNL     1      46.298   2.738  12.878  0.00  0.00    +0.000 HD
ENDROOT
BRANCH   5   9
ATOM      9  C   UNL     1      47.535   8.497  13.599  0.00  0.00    +0.000 C 
ATOM     10  N   UNL     1      47.289   9.167  14.763  0.00  0.00    +0.000 N 
ATOM     11  O   UNL     1      48.151   9.028  12.686  0.00  0.00    +0.000 OA
ATOM     12  H   UNL     1      46.597   8.882  15.442  0.00  0.00    +0.000 HD
ATOM     13  H   UNL     1      47.577  10.140  14.781  0.00  0.00    +0.000 HD
ENDBRANCH   5   9
BRANCH   1  14
ATOM     14  C   UNL     1      44.583   3.251  11.764  0.00  0.00    +0.000 C 
BRANCH  14  15
ATOM     15  C   UNL     1      45.362   3.400  10.457  0.00  0.00    +0.000 C 
BRANCH  15  20
ATOM     16  C   UNL     1      47.931   2.150   6.681  0.00  0.00    +0.000 C 
ATOM     17  N   UNL     1      46.541   2.294   7.119  0.00  0.00    +0.000 NA
ATOM     18  C   UNL     1      46.268   1.367   8.226  0.00  0.00    +0.000 C 
ATOM     19  C   UNL     1      44.839   1.525   8.749  0.00  0.00    +0.000 C 
ATOM     20  C   UNL     1      44.557   2.964   9.210  0.00  0.00    +0.000 C 
ATOM     21  C   UNL     1      44.849   3.893   8.022  0.00  0.00    +0.000 C 
ATOM     22  C   UNL     1      46.264   3.695   7.469  0.00  0.00    +0.000 C 
ENDBRANCH  15  20
ENDBRANCH  14  15
ENDBRANCH   1  14
TORSDOF 4
ENDMDL
MODEL 4
REMARK VINA RESULT:    -6.444      4.520      7.783
REMARK INTER + INTRA:          -8.129
REMARK INTER:                  -7.830
REMARK INTRA:                  -0.299
REMARK UNBOUND:                -0.179
REMARK  Name = 
REMARK  5 active torsions:
REMARK  status: ('A' for Active; 'I' for Inactive)
REMARK    1  A    between atoms: C_1  and  N_2
REMARK    2  A    between atoms: C_5  and  C_6
REMARK    3  A    between atoms: C_6  and  C_7
REMARK    4  A    between atoms: C_7  and  N_8
REMARK    5  A    between atoms: C_12  and  C_13
REMARK                            x       y       z     vdW  Elec       q    Type
REMARK                         _______ _______ _______ _____ _____    ______ ____
ROOT
ATOM      1  N   UNL     1      47.037   5.047  13.812  0.00  0.00    +0.000 N 
ATOM      2  C   UNL     1      47.465   4.793  15.108  0.00  0.00    +0.000 A 
ATOM      3  N   UNL     1      46.870   3.833  15.835  0.00  0.00    +0.000 NA
ATOM      4  C   UNL     1      47.295   3.662  17.103  0.00  0.00    +0.000 A 
ATOM      5  C   UNL     1      48.306   4.398  17.668  0.00  0.00    +0.000 A 
ATOM      6  C   UNL     1      48.857   5.354  16.848  0.00  0.00    +0.000 A 
ATOM      7  N   UNL     1      48.454   5.570  15.573  0.00  0.00    +0.000 NA
ATOM      8  H   UNL     1      47.337   5.989  13.586  0.00  0.00    +0.000 HD
ENDROOT
BRANCH   5   9
ATOM      9  C   UNL     1      48.690   4.165  19.068  0.00  0.00    +0.000 C 
ATOM     10  N   UNL     1      48.257   3.018  19.671  0.00  0.00    +0.000 N 
ATOM     11  O   UNL     1      49.358   4.985  19.682  0.00  0.00    +0.000 OA
ATOM     12  H   UNL     1      47.521   2.432  19.305  0.00  0.00    +0.000 HD
ATOM     13  H   UNL     1      48.457   2.940  20.663  0.00  0.00    +0.000 HD
ENDBRANCH   5   9
BRANCH   1  14
ATOM     14  C   UNL     1      45.628   4.754  13.602  0.00  0.00    +0.000 C 
BRANCH  14  15
ATOM     15  C   UNL     1      45.471   3.764  12.448  0.00  0.00    +0.000 C 
BRANCH  15  20
ATOM     16  C   UNL     1      46.017   3.639   7.746  0.00  0.00    +0.000 C 
ATOM     17  N   UNL     1      44.991   3.844   8.771  0.00  0.00    +0.000 NA
ATOM     18  C   UNL     1      44.841   2.625   9.578  0.00  0.00    +0.000 C 
ATOM     19  C   UNL     1      43.816   2.817  10.696  0.00  0.00    +0.000 C 
ATOM     20  C   UNL     1      44.188   3.991  11.615  0.00  0.00    +0.000 C 
ATOM     21  C   UNL     1      44.326   5.240  10.732  0.00  0.00    +0.000 C 
ATOM     22  C   UNL     1      45.316   5.026   9.582  0.00  0.00    +0.000 C 
ENDBRANCH  15  20
ENDBRANCH  14  15
ENDBRANCH   1  14
TORSDOF 4
ENDMDL
MODEL 5
REMARK VINA RESULT:    -6.132      4.094      5.563
REMARK INTER + INTRA:          -7.744
REMARK INTER:                  -7.520
REMARK INTRA:                  -0.224
REMARK UNBOUND:                -0.179
REMARK  Name = 
REMARK  5 active torsions:
REMARK  status: ('A' for Active; 'I' for Inactive)
REMARK    1  A    between atoms: C_1  and  N_2
REMARK    2  A    between atoms: C_5  and  C_6
REMARK    3  A    between atoms: C_6  and  C_7
REMARK    4  A    between atoms: C_7  and  N_8
REMARK    5  A    between atoms: C_12  and  C_13
REMARK                            x       y       z     vdW  Elec       q    Type
REMARK                         _______ _______ _______ _____ _____    ______ ____
ROOT
ATOM      1  N   UNL     1      46.562   5.374  14.414  0.00  0.00    +0.000 N 
ATOM      2  C   UNL     1      45.974   4.908  13.246  0.00  0.00    +0.000 A 
ATOM      3  N   UNL     1      45.447   3.673  13.207  0.00  0.00    +0.000 NA
ATOM      4  C   UNL     1      44.931   3.255  12.034  0.00  0.00    +0.000 A 
ATOM      5  C   UNL     1      44.901   4.030  10.902  0.00  0.00    +0.000 A 
ATOM      6  C   UNL     1      45.459   5.279  11.038  0.00  0.00    +0.000 A 
ATOM      7  N   UNL     1      45.999   5.737  12.192  0.00  0.00    +0.000 NA
ATOM      8  H   UNL     1      47.186   6.127  14.145  0.00  0.00    +0.000 HD
ENDROOT
BRANCH   5   9
ATOM      9  C   UNL     1      44.343   3.486   9.655  0.00  0.00    +0.000 C 
ATOM     10  N   UNL     1      44.103   4.351   8.626  0.00  0.00    +0.000 N 
ATOM     11  O   UNL     1      44.079   2.296   9.551  0.00  0.00    +0.000 OA
ATOM     12  H   UNL     1      44.073   5.356   8.730  0.00  0.00    +0.000 HD
ATOM     13  H   UNL     1      43.627   3.957   7.822  0.00  0.00    +0.000 HD
ENDBRANCH   5   9
BRANCH   1  14
ATOM     14  C   UNL     1      47.142   4.319  15.229  0.00  0.00    +0.000 C 
BRANCH  14  15
ATOM     15  C   UNL     1      47.953   4.932  16.371  0.00  0.00    +0.000 C 
BRANCH  15  20
ATOM     16  C   UNL     1      50.649   6.348  19.996  0.00  0.00    +0.000 C 
ATOM     17  N   UNL     1      49.465   5.538  19.703  0.00  0.00    +0.000 NA
ATOM     18  C   UNL     1      48.410   6.386  19.130  0.00  0.00    +0.000 C 
ATOM     19  C   UNL     1      47.174   5.566  18.758  0.00  0.00    +0.000 C 
ATOM     20  C   UNL     1      47.513   4.439  17.770  0.00  0.00    +0.000 C 
ATOM     21  C   UNL     1      48.610   3.578  18.413  0.00  0.00    +0.000 C 
ATOM     22  C   UNL     1      49.827   4.411  18.831  0.00  0.00    +0.000 C 
ENDBRANCH  15  20
ENDBRANCH  14  15
ENDBRANCH   1  14
TORSDOF 4
ENDMDL
MODEL 6
REMARK VINA RESULT:    -5.905      4.657      6.436
REMARK INTER + INTRA:          -7.465
REMARK INTER:                  -7.185
REMARK INTRA:                  -0.279
REMARK UNBOUND:                -0.179
REMARK  Name = 
REMARK  5 active torsions:
REMARK  status: ('A' for Active; 'I' for Inactive)
REMARK    1  A    between atoms: C_1  and  N_2
REMARK    2  A    between atoms: C_5  and  C_6
REMARK    3  A    between atoms: C_6  and  C_7
REMARK    4  A    between atoms: C_7  and  N_8
REMARK    5  A    between atoms: C_12  and  C_13
REMARK                            x       y       z     vdW  Elec       q    Type
REMARK                         _______ _______ _______ _____ _____    ______ ____
ROOT
ATOM      1  N   UNL     1      47.195   3.611  14.758  0.00  0.00    +0.000 N 
ATOM      2  C   UNL     1      46.330   3.989  13.739  0.00  0.00    +0.000 A 
ATOM      3  N   UNL     1      45.914   5.263  13.653  0.00  0.00    +0.000 NA
ATOM      4  C   UNL     1      45.038   5.564  12.673  0.00  0.00    +0.000 A 
ATOM      5  C   UNL     1      44.578   4.646  11.762  0.00  0.00    +0.000 A 
ATOM      6  C   UNL     1      45.062   3.371  11.927  0.00  0.00    +0.000 A 
ATOM      7  N   UNL     1      45.933   3.020  12.903  0.00  0.00    +0.000 NA
ATOM      8  H   UNL     1      47.098   2.607  14.863  0.00  0.00    +0.000 HD
ENDROOT
BRANCH   5   9
ATOM      9  C   UNL     1      43.602   5.053  10.740  0.00  0.00    +0.000 C 
ATOM     10  N   UNL     1      43.791   4.618   9.459  0.00  0.00    +0.000 N 
ATOM     11  O   UNL     1      42.661   5.781  11.024  0.00  0.00    +0.000 OA
ATOM     12  H   UNL     1      44.658   4.226   9.120  0.00  0.00    +0.000 HD
ATOM     13  H   UNL     1      43.156   5.000   8.766  0.00  0.00    +0.000 HD
ENDBRANCH   5   9
BRANCH   1  14
ATOM     14  C   UNL     1      47.043   4.402  15.968  0.00  0.00    +0.000 C 
BRANCH  14  15
ATOM     15  C   UNL     1      48.406   4.606  16.628  0.00  0.00    +0.000 C 
BRANCH  15  20
ATOM     16  C   UNL     1      52.872   4.232  18.156  0.00  0.00    +0.000 C 
ATOM     17  N   UNL     1      51.518   3.769  18.466  0.00  0.00    +0.000 NA
ATOM     18  C   UNL     1      50.664   4.916  18.806  0.00  0.00    +0.000 C 
ATOM     19  C   UNL     1      49.224   4.479  19.082  0.00  0.00    +0.000 C 
ATOM     20  C   UNL     1      48.616   3.731  17.886  0.00  0.00    +0.000 C 
ATOM     21  C   UNL     1      49.536   2.540  17.573  0.00  0.00    +0.000 C 
ATOM     22  C   UNL     1      50.987   2.977  17.347  0.00  0.00    +0.000 C 
ENDBRANCH  15  20
ENDBRANCH  14  15
ENDBRANCH   1  14
TORSDOF 4
ENDMDL
MODEL 7
REMARK VINA RESULT:    -5.733      4.342      6.247
REMARK INTER + INTRA:          -7.253
REMARK INTER:                  -6.969
REMARK INTRA:                  -0.284
REMARK UNBOUND:                -0.179
REMARK  Name = 
REMARK  5 active torsions:
REMARK  status: ('A' for Active; 'I' for Inactive)
REMARK    1  A    between atoms: C_1  and  N_2
REMARK    2  A    between atoms: C_5  and  C_6
REMARK    3  A    between atoms: C_6  and  C_7
REMARK    4  A    between atoms: C_7  and  N_8
REMARK    5  A    between atoms: C_12  and  C_13
REMARK                            x       y       z     vdW  Elec       q    Type
REMARK                         _______ _______ _______ _____ _____    ______ ____
ROOT
ATOM      1  N   UNL     1      47.215   3.525  14.791  0.00  0.00    +0.000 N 
ATOM      2  C   UNL     1      46.367   4.006  13.802  0.00  0.00    +0.000 A 
ATOM      3  N   UNL     1      46.042   5.308  13.773  0.00  0.00    +0.000 NA
ATOM      4  C   UNL     1      45.177   5.711  12.820  0.00  0.00    +0.000 A 
ATOM      5  C   UNL     1      44.641   4.867  11.880  0.00  0.00    +0.000 A 
ATOM      6  C   UNL     1      45.034   3.555  11.986  0.00  0.00    +0.000 A 
ATOM      7  N   UNL     1      45.889   3.103  12.934  0.00  0.00    +0.000 NA
ATOM      8  H   UNL     1      47.047   2.527  14.858  0.00  0.00    +0.000 HD
ENDROOT
BRANCH   5   9
ATOM      9  C   UNL     1      43.684   5.384  10.891  0.00  0.00    +0.000 C 
ATOM     10  N   UNL     1      43.040   6.556  11.169  0.00  0.00    +0.000 N 
ATOM     11  O   UNL     1      43.454   4.770   9.858  0.00  0.00    +0.000 OA
ATOM     12  H   UNL     1      43.005   6.975  12.088  0.00  0.00    +0.000 HD
ATOM     13  H   UNL     1      42.317   6.828  10.512  0.00  0.00    +0.000 HD
ENDBRANCH   5   9
BRANCH   1  14
ATOM     14  C   UNL     1      47.136   4.275  16.034  0.00  0.00    +0.000 C 
BRANCH  14  15
ATOM     15  C   UNL     1      48.456   4.158  16.795  0.00  0.00    +0.000 C 
BRANCH  15  20
ATOM     16  C   UNL     1      50.244   8.097  18.721  0.00  0.00    +0.000 C 
ATOM     17  N   UNL     1      49.551   6.860  19.088  0.00  0.00    +0.000 NA
ATOM     18  C   UNL     1      48.224   6.825  18.458  0.00  0.00    +0.000 C 
ATOM     19  C   UNL     1      47.489   5.521  18.773  0.00  0.00    +0.000 C 
ATOM     20  C   UNL     1      48.295   4.291  18.328  0.00  0.00    +0.000 C 
ATOM     21  C   UNL     1      49.666   4.366  19.015  0.00  0.00    +0.000 C 
ATOM     22  C   UNL     1      50.378   5.695  18.739  0.00  0.00    +0.000 C 
ENDBRANCH  15  20
ENDBRANCH  14  15
ENDBRANCH   1  14
TORSDOF 4
ENDMDL
MODEL 8
REMARK VINA RESULT:    -5.589      2.448      4.430
REMARK INTER + INTRA:          -7.074
REMARK INTER:                  -6.647
REMARK INTRA:                  -0.427
REMARK UNBOUND:                -0.179
REMARK  Name = 
REMARK  5 active torsions:
REMARK  status: ('A' for Active; 'I' for Inactive)
REMARK    1  A    between atoms: C_1  and  N_2
REMARK    2  A    between atoms: C_5  and  C_6
REMARK    3  A    between atoms: C_6  and  C_7
REMARK    4  A    between atoms: C_7  and  N_8
REMARK    5  A    between atoms: C_12  and  C_13
REMARK                            x       y       z     vdW  Elec       q    Type
REMARK                         _______ _______ _______ _____ _____    ______ ____
ROOT
ATOM      1  N   UNL     1      45.741   6.464  13.249  0.00  0.00    +0.000 N 
ATOM      2  C   UNL     1      45.492   5.582  12.206  0.00  0.00    +0.000 A 
ATOM      3  N   UNL     1      45.718   5.963  10.938  0.00  0.00    +0.000 NA
ATOM      4  C   UNL     1      45.414   5.084   9.962  0.00  0.00    +0.000 A 
ATOM      5  C   UNL     1      44.913   3.829  10.204  0.00  0.00    +0.000 A 
ATOM      6  C   UNL     1      44.719   3.527  11.530  0.00  0.00    +0.000 A 
ATOM      7  N   UNL     1      44.997   4.382  12.543  0.00  0.00    +0.000 NA
ATOM      8  H   UNL     1      45.191   6.142  14.038  0.00  0.00    +0.000 HD
ENDROOT
BRANCH   5   9
ATOM      9  C   UNL     1      44.584   2.942   9.079  0.00  0.00    +0.000 C 
ATOM     10  N   UNL     1      44.293   3.512   7.873  0.00  0.00    +0.000 N 
ATOM     11  O   UNL     1      44.549   1.728   9.226  0.00  0.00    +0.000 OA
ATOM     12  H   UNL     1      44.073   4.490   7.750  0.00  0.00    +0.000 HD
ATOM     13  H   UNL     1      43.974   2.875   7.150  0.00  0.00    +0.000 HD
ENDBRANCH   5   9
BRANCH   1  14
ATOM     14  C   UNL     1      45.576   7.860  12.877  0.00  0.00    +0.000 C 
BRANCH  14  15
ATOM     15  C   UNL     1      46.860   8.632  13.181  0.00  0.00    +0.000 C 
BRANCH  15  20
ATOM     16  C   UNL     1      51.357   9.395  14.453  0.00  0.00    +0.000 C 
ATOM     17  N   UNL     1      50.538   9.106  13.274  0.00  0.00    +0.000 NA
ATOM     18  C   UNL     1      49.889   7.796  13.426  0.00  0.00    +0.000 C 
ATOM     19  C   UNL     1      48.979   7.480  12.238  0.00  0.00    +0.000 C 
ATOM     20  C   UNL     1      47.904   8.559  12.041  0.00  0.00    +0.000 C 
ATOM     21  C   UNL     1      48.627   9.905  11.879  0.00  0.00    +0.000 C 
ATOM     22  C   UNL     1      49.576  10.194  13.047  0.00  0.00    +0.000 C 
ENDBRANCH  15  20
ENDBRANCH  14  15
ENDBRANCH   1  14
TORSDOF 4
ENDMDL
MODEL 9
REMARK VINA RESULT:    -5.131      4.070      7.532
REMARK INTER + INTRA:          -6.509
REMARK INTER:                  -6.397
REMARK INTRA:                  -0.112
REMARK UNBOUND:                -0.179
REMARK  Name = 
REMARK  5 active torsions:
REMARK  status: ('A' for Active; 'I' for Inactive)
REMARK    1  A    between atoms: C_1  and  N_2
REMARK    2  A    between atoms: C_5  and  C_6
REMARK    3  A    between atoms: C_6  and  C_7
REMARK    4  A    between atoms: C_7  and  N_8
REMARK    5  A    between atoms: C_12  and  C_13
REMARK                            x       y       z     vdW  Elec       q    Type
REMARK                         _______ _______ _______ _____ _____    ______ ____
ROOT
ATOM      1  N   UNL     1      47.823   6.536  13.652  0.00  0.00    +0.000 N 
ATOM      2  C   UNL     1      47.996   5.823  14.830  0.00  0.00    +0.000 A 
ATOM      3  N   UNL     1      47.299   4.694  15.039  0.00  0.00    +0.000 NA
ATOM      4  C   UNL     1      47.471   4.068  16.221  0.00  0.00    +0.000 A 
ATOM      5  C   UNL     1      48.330   4.513  17.195  0.00  0.00    +0.000 A 
ATOM      6  C   UNL     1      49.002   5.672  16.890  0.00  0.00    +0.000 A 
ATOM      7  N   UNL     1      48.852   6.342  15.722  0.00  0.00    +0.000 NA
ATOM      8  H   UNL     1      48.135   7.483  13.837  0.00  0.00    +0.000 HD
ENDROOT
BRANCH   5   9
ATOM      9  C   UNL     1      48.438   3.784  18.466  0.00  0.00    +0.000 C 
ATOM     10  N   UNL     1      48.282   4.487  19.627  0.00  0.00    +0.000 N 
ATOM     11  O   UNL     1      48.684   2.586  18.485  0.00  0.00    +0.000 OA
ATOM     12  H   UNL     1      48.318   5.494  19.684  0.00  0.00    +0.000 HD
ATOM     13  H   UNL     1      48.463   3.970  20.482  0.00  0.00    +0.000 HD
ENDBRANCH   5   9
BRANCH   1  14
ATOM     14  C   UNL     1      46.493   6.396  13.082  0.00  0.00    +0.000 C 
BRANCH  14  15
ATOM     15  C   UNL     1      46.596   5.915  11.635  0.00  0.00    +0.000 C 
BRANCH  15  20
ATOM     16  C   UNL     1      43.314   2.512  11.903  0.00  0.00    +0.000 C 
ATOM     17  N   UNL     1      43.569   3.804  11.262  0.00  0.00    +0.000 NA
ATOM     18  C   UNL     1      43.701   4.851  12.285  0.00  0.00    +0.000 C 
ATOM     19  C   UNL     1      44.023   6.208  11.658  0.00  0.00    +0.000 C 
ATOM     20  C   UNL     1      45.307   6.157  10.815  0.00  0.00    +0.000 C 
ATOM     21  C   UNL     1      45.119   5.058   9.759  0.00  0.00    +0.000 C 
ATOM     22  C   UNL     1      44.747   3.711  10.387  0.00  0.00    +0.000 C 
ENDBRANCH  15  20
ENDBRANCH  14  15
ENDBRANCH   1  14
TORSDOF 4
ENDMDL
