MODEL 1
REMARK VINA RESULT:    -7.194      0.000      0.000
REMARK INTER + INTRA:          -9.642
REMARK INTER:                  -9.086
REMARK INTRA:                  -0.556
REMARK UNBOUND:                -0.556
REMARK  Name = 
REMARK  5 active torsions:
REMARK  status: ('A' for Active; 'I' for Inactive)
REMARK    1  A    between atoms: N_1  and  C_2
REMARK    2  A    between atoms: C_2  and  C_3
REMARK    3  A    between atoms: C_3  and  C_4
REMARK    4  A    between atoms: C_8  and  C_9
REMARK    5  A    between atoms: C_9  and  N_10
REMARK                            x       y       z     vdW  Elec       q    Type
REMARK                         _______ _______ _______ _____ _____    ______ ____
ROOT
ATOM      1  C   UNL     1      46.076   3.322   7.912  0.00  0.00    +0.000 A 
ATOM      2  C   UNL     1      45.732   1.995   8.140  0.00  0.00    +0.000 A 
ATOM      3  N   UNL     1      44.867   1.594   9.096  0.00  0.00    +0.000 NA
ATOM      4  C   UNL     1      44.306   2.560   9.858  0.00  0.00    +0.000 A 
ATOM      5  C   UNL     1      44.555   3.921   9.706  0.00  0.00    +0.000 A 
ATOM      6  C   UNL     1      45.473   4.293   8.719  0.00  0.00    +0.000 A 
ENDROOT
BRANCH   1   7
ATOM      7  C   UNL     1      47.016   3.703   6.799  0.00  0.00    +0.000 C 
BRANCH   7   8
ATOM      8  C   UNL     1      47.078   2.611   5.722  0.00  0.00    +0.000 C 
BRANCH   8   9
ATOM      9  N   UNL     1      48.401   1.992   5.669  0.00  0.00    +0.000 NA
ATOM     10  H   UNL     1      48.965   2.468   4.966  0.00  0.00    +0.000 HD
ATOM     11  H   UNL     1      48.318   1.026   5.358  0.00  0.00    +0.000 HD
ENDBRANCH   8   9
ENDBRANCH   7   8
ENDBRANCH   1   7
BRANCH   5  12
ATOM     12  C   UNL     1      43.837   4.936  10.550  0.00  0.00    +0.000 C 
BRANCH  12  13
ATOM     13  N   UNL     1      44.709   5.562  11.537  0.00  0.00    +0.000 N 
ATOM     14  C   UNL     1      45.457   4.864  12.456  0.00  0.00    +0.000 A 
ATOM     15  C   UNL     1      46.137   5.774  13.230  0.00  0.00    +0.000 A 
ATOM     16  C   UNL     1      45.782   7.075  12.784  0.00  0.00    +0.000 A 
ATOM     17  C   UNL     1      46.161   8.373  13.180  0.00  0.00    +0.000 A 
ATOM     18  C   UNL     1      45.617   9.483  12.523  0.00  0.00    +0.000 A 
ATOM     19  C   UNL     1      44.689   9.305  11.503  0.00  0.00    +0.000 A 
ATOM     20 BR   UNL     1      43.972  10.819  10.622  0.00  0.00    +0.000 Br
ATOM     21  C   UNL     1      44.281   8.030  11.100  0.00  0.00    +0.000 A 
ATOM     22  C   UNL     1      44.860   6.922  11.742  0.00  0.00    +0.000 A 
ENDBRANCH  12  13
ENDBRANCH   5  12
TORSDOF 5
ENDMDL
MODEL 2
REMARK VINA RESULT:    -7.063      1.988      2.346
REMARK INTER + INTRA:          -9.477
REMARK INTER:                  -9.176
REMARK INTRA:                  -0.301
REMARK UNBOUND:                -0.556
REMARK  Name = 
REMARK  5 active torsions:
REMARK  status: ('A' for Active; 'I' for Inactive)
REMARK    1  A    between atoms: N_1  and  C_2
REMARK    2  A    between atoms: C_2  and  C_3
REMARK    3  A    between atoms: C_3  and  C_4
REMARK    4  A    between atoms: C_8  and  C_9
REMARK    5  A    between atoms: C_9  and  N_10
REMARK                            x       y       z     vdW  Elec       q    Type
REMARK                         _______ _______ _______ _____ _____    ______ ____
ROOT
ATOM      1  C   UNL     1      45.739   3.282   7.937  0.00  0.00    +0.000 A 
ATOM      2  C   UNL     1      44.927   2.215   8.303  0.00  0.00    +0.000 A 
ATOM      3  N   UNL     1      44.163   2.196   9.416  0.00  0.00    +0.000 NA
ATOM      4  C   UNL     1      44.198   3.297  10.201  0.00  0.00    +0.000 A 
ATOM      5  C   UNL     1      44.954   4.432   9.924  0.00  0.00    +0.000 A 
ATOM      6  C   UNL     1      45.747   4.404   8.774  0.00  0.00    +0.000 A 
ENDROOT
BRANCH   1   7
ATOM      7  C   UNL     1      46.533   3.254   6.658  0.00  0.00    +0.000 C 
BRANCH   7   8
ATOM      8  C   UNL     1      47.891   2.568   6.859  0.00  0.00    +0.000 C 
BRANCH   8   9
ATOM      9  N   UNL     1      48.339   1.907   5.634  0.00  0.00    +0.000 NA
ATOM     10  H   UNL     1      47.647   1.213   5.355  0.00  0.00    +0.000 HD
ATOM     11  H   UNL     1      49.198   1.392   5.814  0.00  0.00    +0.000 HD
ENDBRANCH   8   9
ENDBRANCH   7   8
ENDBRANCH   1   7
BRANCH   5  12
ATOM     12  C   UNL     1      44.883   5.641  10.814  0.00  0.00    +0.000 C 
BRANCH  12  13
ATOM     13  N   UNL     1      45.639   5.472  12.050  0.00  0.00    +0.000 N 
ATOM     14  C   UNL     1      45.312   4.571  13.035  0.00  0.00    +0.000 A 
ATOM     15  C   UNL     1      46.228   4.700  14.053  0.00  0.00    +0.000 A 
ATOM     16  C   UNL     1      47.138   5.728  13.689  0.00  0.00    +0.000 A 
ATOM     17  C   UNL     1      48.271   6.285  14.313  0.00  0.00    +0.000 A 
ATOM     18  C   UNL     1      48.974   7.316  13.678  0.00  0.00    +0.000 A 
ATOM     19  C   UNL     1      48.542   7.802  12.449  0.00  0.00    +0.000 A 
ATOM     20 BR   UNL     1      49.513   9.189  11.603  0.00  0.00    +0.000 Br
ATOM     21  C   UNL     1      47.412   7.280  11.813  0.00  0.00    +0.000 A 
ATOM     22  C   UNL     1      46.734   6.222  12.443  0.00  0.00    +0.000 A 
ENDBRANCH  12  13
ENDBRANCH   5  12
TORSDOF 5
ENDMDL
MODEL 3
REMARK VINA RESULT:    -6.491      2.389      3.122
REMARK INTER + INTRA:          -8.755
REMARK INTER:                  -8.180
REMARK INTRA:                  -0.575
REMARK UNBOUND:                -0.556
REMARK  Name = 
REMARK  5 active torsions:
REMARK  status: ('A' for Active; 'I' for Inactive)
REMARK    1  A    between atoms: N_1  and  C_2
REMARK    2  A    between atoms: C_2  and  C_3
REMARK    3  A    between atoms: C_3  and  C_4
REMARK    4  A    between atoms: C_8  and  C_9
REMARK    5  A    between atoms: C_9  and  N_10
REMARK                            x       y       z     vdW  Elec       q    Type
REMARK                         _______ _______ _______ _____ _____    ______ ____
ROOT
ATOM      1  C   UNL     1      45.615   3.713   8.694  0.00  0.00    +0.000 A 
ATOM      2  C   UNL     1      45.038   2.467   8.907  0.00  0.00    +0.000 A 
ATOM      3  N   UNL     1      44.119   2.215   9.863  0.00  0.00    +0.000 NA
ATOM      4  C   UNL     1      43.745   3.256  10.641  0.00  0.00    +0.000 A 
ATOM      5  C   UNL     1      44.236   4.551  10.506  0.00  0.00    +0.000 A 
ATOM      6  C   UNL     1      45.201   4.766   9.518  0.00  0.00    +0.000 A 
ENDROOT
BRANCH   1   7
ATOM      7  C   UNL     1      46.604   3.933   7.580  0.00  0.00    +0.000 C 
BRANCH   7   8
ATOM      8  C   UNL     1      47.104   2.601   7.005  0.00  0.00    +0.000 C 
BRANCH   8   9
ATOM      9  N   UNL     1      48.475   2.717   6.512  0.00  0.00    +0.000 NA
ATOM     10  H   UNL     1      48.505   3.405   5.761  0.00  0.00    +0.000 HD
ATOM     11  H   UNL     1      48.769   1.834   6.098  0.00  0.00    +0.000 HD
ENDBRANCH   8   9
ENDBRANCH   7   8
ENDBRANCH   1   7
BRANCH   5  12
ATOM     12  C   UNL     1      43.716   5.667  11.368  0.00  0.00    +0.000 C 
BRANCH  12  13
ATOM     13  N   UNL     1      44.772   6.567  11.817  0.00  0.00    +0.000 N 
ATOM     14  C   UNL     1      44.948   7.845  11.342  0.00  0.00    +0.000 A 
ATOM     15  C   UNL     1      46.043   8.387  11.972  0.00  0.00    +0.000 A 
ATOM     16  C   UNL     1      46.569   7.403  12.851  0.00  0.00    +0.000 A 
ATOM     17  C   UNL     1      47.656   7.385  13.748  0.00  0.00    +0.000 A 
ATOM     18  C   UNL     1      47.920   6.229  14.491  0.00  0.00    +0.000 A 
ATOM     19  C   UNL     1      47.130   5.097  14.325  0.00  0.00    +0.000 A 
ATOM     20 BR   UNL     1      47.499   3.546  15.346  0.00  0.00    +0.000 Br
ATOM     21  C   UNL     1      46.056   5.079  13.430  0.00  0.00    +0.000 A 
ATOM     22  C   UNL     1      45.777   6.257  12.716  0.00  0.00    +0.000 A 
ENDBRANCH  12  13
ENDBRANCH   5  12
TORSDOF 5
ENDMDL
MODEL 4
REMARK VINA RESULT:    -6.444      2.950      6.292
REMARK INTER + INTRA:          -8.695
REMARK INTER:                  -8.208
REMARK INTRA:                  -0.486
REMARK UNBOUND:                -0.556
REMARK  Name = 
REMARK  5 active torsions:
REMARK  status: ('A' for Active; 'I' for Inactive)
REMARK    1  A    between atoms: N_1  and  C_2
REMARK    2  A    between atoms: C_2  and  C_3
REMARK    3  A    between atoms: C_3  and  C_4
REMARK    4  A    between atoms: C_8  and  C_9
REMARK    5  A    between atoms: C_9  and  N_10
REMARK                            x       y       z     vdW  Elec       q    Type
REMARK                         _______ _______ _______ _____ _____    ______ ____
ROOT
ATOM      1  C   UNL     1      46.801   6.793  13.002  0.00  0.00    +0.000 A 
ATOM      2  C   UNL     1      46.763   8.172  13.173  0.00  0.00    +0.000 A 
ATOM      3  N   UNL     1      45.851   8.980  12.592  0.00  0.00    +0.000 NA
ATOM      4  C   UNL     1      44.921   8.388  11.809  0.00  0.00    +0.000 A 
ATOM      5  C   UNL     1      44.844   7.017  11.583  0.00  0.00    +0.000 A 
ATOM      6  C   UNL     1      45.819   6.218  12.186  0.00  0.00    +0.000 A 
ENDROOT
BRANCH   1   7
ATOM      7  C   UNL     1      47.821   5.947  13.715  0.00  0.00    +0.000 C 
BRANCH   7   8
ATOM      8  C   UNL     1      47.150   4.842  14.542  0.00  0.00    +0.000 C 
BRANCH   8   9
ATOM      9  N   UNL     1      47.478   3.516  14.022  0.00  0.00    +0.000 NA
ATOM     10  H   UNL     1      48.238   3.599  13.348  0.00  0.00    +0.000 HD
ATOM     11  H   UNL     1      46.684   3.140  13.507  0.00  0.00    +0.000 HD
ENDBRANCH   8   9
ENDBRANCH   7   8
ENDBRANCH   1   7
BRANCH   5  12
ATOM     12  C   UNL     1      43.736   6.433  10.753  0.00  0.00    +0.000 C 
BRANCH  12  13
ATOM     13  N   UNL     1      43.713   4.975  10.795  0.00  0.00    +0.000 N 
ATOM     14  C   UNL     1      43.061   4.243  11.759  0.00  0.00    +0.000 A 
ATOM     15  C   UNL     1      43.269   2.910  11.494  0.00  0.00    +0.000 A 
ATOM     16  C   UNL     1      44.090   2.819  10.339  0.00  0.00    +0.000 A 
ATOM     17  C   UNL     1      44.613   1.737   9.604  0.00  0.00    +0.000 A 
ATOM     18  C   UNL     1      45.411   1.986   8.481  0.00  0.00    +0.000 A 
ATOM     19  C   UNL     1      45.704   3.293   8.108  0.00  0.00    +0.000 A 
ATOM     20 BR   UNL     1      46.778   3.608   6.581  0.00  0.00    +0.000 Br
ATOM     21  C   UNL     1      45.213   4.387   8.828  0.00  0.00    +0.000 A 
ATOM     22  C   UNL     1      44.384   4.126   9.933  0.00  0.00    +0.000 A 
ENDBRANCH  12  13
ENDBRANCH   5  12
TORSDOF 5
ENDMDL
MODEL 5
REMARK VINA RESULT:    -6.282      1.189      1.465
REMARK INTER + INTRA:          -8.490
REMARK INTER:                  -7.922
REMARK INTRA:                  -0.569
REMARK UNBOUND:                -0.556
REMARK  Name = 
REMARK  5 active torsions:
REMARK  status: ('A' for Active; 'I' for Inactive)
REMARK    1  A    between atoms: N_1  and  C_2
REMARK    2  A    between atoms: C_2  and  C_3
REMARK    3  A    between atoms: C_3  and  C_4
REMARK    4  A    between atoms: C_8  and  C_9
REMARK    5  A    between atoms: C_9  and  N_10
REMARK                            x       y       z     vdW  Elec       q    Type
REMARK                         _______ _______ _______ _____ _____    ______ ____
ROOT
ATOM      1  C   UNL     1      45.280   3.770   8.936  0.00  0.00    +0.000 A 
ATOM      2  C   UNL     1      44.572   2.597   9.170  0.00  0.00    +0.000 A 
ATOM      3  N   UNL     1      43.806   2.383  10.261  0.00  0.00    +0.000 NA
ATOM      4  C   UNL     1      43.729   3.389  11.162  0.00  0.00    +0.000 A 
ATOM      5  C   UNL     1      44.373   4.615  11.024  0.00  0.00    +0.000 A 
ATOM      6  C   UNL     1      45.173   4.789   9.891  0.00  0.00    +0.000 A 
ENDROOT
BRANCH   1   7
ATOM      7  C   UNL     1      46.081   3.959   7.676  0.00  0.00    +0.000 C 
BRANCH   7   8
ATOM      8  C   UNL     1      46.806   2.667   7.276  0.00  0.00    +0.000 C 
BRANCH   8   9
ATOM      9  N   UNL     1      48.066   2.954   6.594  0.00  0.00    +0.000 NA
ATOM     10  H   UNL     1      47.911   3.681   5.896  0.00  0.00    +0.000 HD
ATOM     11  H   UNL     1      48.376   2.132   6.080  0.00  0.00    +0.000 HD
ENDBRANCH   8   9
ENDBRANCH   7   8
ENDBRANCH   1   7
BRANCH   5  12
ATOM     12  C   UNL     1      44.181   5.706  12.039  0.00  0.00    +0.000 C 
BRANCH  12  13
ATOM     13  N   UNL     1      45.436   6.342  12.423  0.00  0.00    +0.000 N 
ATOM     14  C   UNL     1      46.474   5.686  13.040  0.00  0.00    +0.000 A 
ATOM     15  C   UNL     1      47.479   6.597  13.266  0.00  0.00    +0.000 A 
ATOM     16  C   UNL     1      47.037   7.859  12.789  0.00  0.00    +0.000 A 
ATOM     17  C   UNL     1      47.626   9.138  12.739  0.00  0.00    +0.000 A 
ATOM     18  C   UNL     1      46.909  10.208  12.191  0.00  0.00    +0.000 A 
ATOM     19  C   UNL     1      45.615  10.015  11.721  0.00  0.00    +0.000 A 
ATOM     20 BR   UNL     1      44.668  11.474  10.975  0.00  0.00    +0.000 Br
ATOM     21  C   UNL     1      44.999   8.761  11.772  0.00  0.00    +0.000 A 
ATOM     22  C   UNL     1      45.740   7.686  12.291  0.00  0.00    +0.000 A 
ENDBRANCH  12  13
ENDBRANCH   5  12
TORSDOF 5
ENDMDL
MODEL 6
REMARK VINA RESULT:    -6.120      2.608      3.523
REMARK INTER + INTRA:          -8.286
REMARK INTER:                  -7.620
REMARK INTRA:                  -0.666
REMARK UNBOUND:                -0.556
REMARK  Name = 
REMARK  5 active torsions:
REMARK  status: ('A' for Active; 'I' for Inactive)
REMARK    1  A    between atoms: N_1  and  C_2
REMARK    2  A    between atoms: C_2  and  C_3
REMARK    3  A    between atoms: C_3  and  C_4
REMARK    4  A    between atoms: C_8  and  C_9
REMARK    5  A    between atoms: C_9  and  N_10
REMARK                            x       y       z     vdW  Elec       q    Type
REMARK                         _______ _______ _______ _____ _____    ______ ____
ROOT
ATOM      1  C   UNL     1      44.667   3.968   9.894  0.00  0.00    +0.000 A 
ATOM      2  C   UNL     1      43.700   3.230  10.566  0.00  0.00    +0.000 A 
ATOM      3  N   UNL     1      43.607   3.156  11.910  0.00  0.00    +0.000 NA
ATOM      4  C   UNL     1      44.513   3.860  12.626  0.00  0.00    +0.000 A 
ATOM      5  C   UNL     1      45.510   4.652  12.064  0.00  0.00    +0.000 A 
ATOM      6  C   UNL     1      45.585   4.685  10.669  0.00  0.00    +0.000 A 
ENDROOT
BRANCH   1   7
ATOM      7  C   UNL     1      44.686   4.041   8.390  0.00  0.00    +0.000 C 
BRANCH   7   8
ATOM      8  C   UNL     1      45.915   3.326   7.812  0.00  0.00    +0.000 C 
BRANCH   8   9
ATOM      9  N   UNL     1      46.844   4.275   7.203  0.00  0.00    +0.000 NA
ATOM     10  H   UNL     1      47.797   4.027   7.465  0.00  0.00    +0.000 HD
ATOM     11  H   UNL     1      46.682   5.207   7.578  0.00  0.00    +0.000 HD
ENDBRANCH   8   9
ENDBRANCH   7   8
ENDBRANCH   1   7
BRANCH   5  12
ATOM     12  C   UNL     1      46.435   5.458  12.932  0.00  0.00    +0.000 C 
BRANCH  12  13
ATOM     13  N   UNL     1      46.322   6.892  12.692  0.00  0.00    +0.000 N 
ATOM     14  C   UNL     1      45.149   7.600  12.804  0.00  0.00    +0.000 A 
ATOM     15  C   UNL     1      45.412   8.913  12.489  0.00  0.00    +0.000 A 
ATOM     16  C   UNL     1      46.789   9.011  12.156  0.00  0.00    +0.000 A 
ATOM     17  C   UNL     1      47.620  10.083  11.771  0.00  0.00    +0.000 A 
ATOM     18  C   UNL     1      48.973   9.847  11.504  0.00  0.00    +0.000 A 
ATOM     19  C   UNL     1      49.489   8.559  11.595  0.00  0.00    +0.000 A 
ATOM     20 BR   UNL     1      51.324   8.263  11.239  0.00  0.00    +0.000 Br
ATOM     21  C   UNL     1      48.686   7.473  11.958  0.00  0.00    +0.000 A 
ATOM     22  C   UNL     1      47.336   7.727  12.259  0.00  0.00    +0.000 A 
ENDBRANCH  12  13
ENDBRANCH   5  12
TORSDOF 5
ENDMDL
MODEL 7
REMARK VINA RESULT:    -6.088      3.253      6.946
REMARK INTER + INTRA:          -8.246
REMARK INTER:                  -7.623
REMARK INTRA:                  -0.623
REMARK UNBOUND:                -0.556
REMARK  Name = 
REMARK  5 active torsions:
REMARK  status: ('A' for Active; 'I' for Inactive)
REMARK    1  A    between atoms: N_1  and  C_2
REMARK    2  A    between atoms: C_2  and  C_3
REMARK    3  A    between atoms: C_3  and  C_4
REMARK    4  A    between atoms: C_8  and  C_9
REMARK    5  A    between atoms: C_9  and  N_10
REMARK                            x       y       z     vdW  Elec       q    Type
REMARK                         _______ _______ _______ _____ _____    ______ ____
ROOT
ATOM      1  C   UNL     1      43.524   9.956  10.828  0.00  0.00    +0.000 A 
ATOM      2  C   UNL     1      44.130  11.070  11.394  0.00  0.00    +0.000 A 
ATOM      3  N   UNL     1      45.283  11.027  12.096  0.00  0.00    +0.000 NA
ATOM      4  C   UNL     1      45.870   9.816  12.233  0.00  0.00    +0.000 A 
ATOM      5  C   UNL     1      45.369   8.636  11.690  0.00  0.00    +0.000 A 
ATOM      6  C   UNL     1      44.163   8.721  10.989  0.00  0.00    +0.000 A 
ENDROOT
BRANCH   1   7
ATOM      7  C   UNL     1      42.259  10.083  10.020  0.00  0.00    +0.000 C 
BRANCH   7   8
ATOM      8  C   UNL     1      41.078  10.521  10.897  0.00  0.00    +0.000 C 
BRANCH   8   9
ATOM      9  N   UNL     1      40.376   9.368  11.456  0.00  0.00    +0.000 NA
ATOM     10  H   UNL     1      40.471   8.577  10.821  0.00  0.00    +0.000 HD
ATOM     11  H   UNL     1      39.379   9.566  11.514  0.00  0.00    +0.000 HD
ENDBRANCH   8   9
ENDBRANCH   7   8
ENDBRANCH   1   7
BRANCH   5  12
ATOM     12  C   UNL     1      46.120   7.342  11.831  0.00  0.00    +0.000 C 
BRANCH  12  13
ATOM     13  N   UNL     1      45.234   6.192  11.964  0.00  0.00    +0.000 N 
ATOM     14  C   UNL     1      44.473   5.932  13.079  0.00  0.00    +0.000 A 
ATOM     15  C   UNL     1      43.781   4.764  12.860  0.00  0.00    +0.000 A 
ATOM     16  C   UNL     1      44.143   4.280  11.574  0.00  0.00    +0.000 A 
ATOM     17  C   UNL     1      43.758   3.156  10.817  0.00  0.00    +0.000 A 
ATOM     18  C   UNL     1      44.311   2.955   9.548  0.00  0.00    +0.000 A 
ATOM     19  C   UNL     1      45.253   3.846   9.047  0.00  0.00    +0.000 A 
ATOM     20 BR   UNL     1      45.983   3.560   7.324  0.00  0.00    +0.000 Br
ATOM     21  C   UNL     1      45.668   4.961   9.782  0.00  0.00    +0.000 A 
ATOM     22  C   UNL     1      45.079   5.173  11.041  0.00  0.00    +0.000 A 
ENDBRANCH  12  13
ENDBRANCH   5  12
TORSDOF 5
ENDMDL
MODEL 8
REMARK VINA RESULT:    -5.873      3.167      6.222
REMARK INTER + INTRA:          -7.974
REMARK INTER:                  -7.667
REMARK INTRA:                  -0.306
REMARK UNBOUND:                -0.556
REMARK  Name = 
REMARK  5 active torsions:
REMARK  status: ('A' for Active; 'I' for Inactive)
REMARK    1  A    between atoms: N_1  and  C_2
REMARK    2  A    between atoms: C_2  and  C_3
REMARK    3  A    between atoms: C_3  and  C_4
REMARK    4  A    between atoms: C_8  and  C_9
REMARK    5  A    between atoms: C_9  and  N_10
REMARK                            x       y       z     vdW  Elec       q    Type
REMARK                         _______ _______ _______ _____ _____    ______ ____
ROOT
ATOM      1  C   UNL     1      48.406   8.031  12.613  0.00  0.00    +0.000 A 
ATOM      2  C   UNL     1      48.812   6.873  13.264  0.00  0.00    +0.000 A 
ATOM      3  N   UNL     1      48.054   5.760  13.366  0.00  0.00    +0.000 NA
ATOM      4  C   UNL     1      46.835   5.795  12.783  0.00  0.00    +0.000 A 
ATOM      5  C   UNL     1      46.331   6.888  12.085  0.00  0.00    +0.000 A 
ATOM      6  C   UNL     1      47.138   8.028  12.020  0.00  0.00    +0.000 A 
ENDROOT
BRANCH   1   7
ATOM      7  C   UNL     1      49.320   9.222  12.499  0.00  0.00    +0.000 C 
BRANCH   7   8
ATOM      8  C   UNL     1      50.789   8.791  12.398  0.00  0.00    +0.000 C 
BRANCH   8   9
ATOM      9  N   UNL     1      51.120   8.342  11.047  0.00  0.00    +0.000 NA
ATOM     10  H   UNL     1      50.345   7.793  10.677  0.00  0.00    +0.000 HD
ATOM     11  H   UNL     1      51.921   7.715  11.077  0.00  0.00    +0.000 HD
ENDBRANCH   8   9
ENDBRANCH   7   8
ENDBRANCH   1   7
BRANCH   5  12
ATOM     12  C   UNL     1      44.992   6.820  11.407  0.00  0.00    +0.000 C 
BRANCH  12  13
ATOM     13  N   UNL     1      44.466   5.462  11.340  0.00  0.00    +0.000 N 
ATOM     14  C   UNL     1      43.656   4.902  12.300  0.00  0.00    +0.000 A 
ATOM     15  C   UNL     1      43.371   3.612  11.918  0.00  0.00    +0.000 A 
ATOM     16  C   UNL     1      44.043   3.365  10.691  0.00  0.00    +0.000 A 
ATOM     17  C   UNL     1      44.115   2.250   9.833  0.00  0.00    +0.000 A 
ATOM     18  C   UNL     1      44.884   2.324   8.666  0.00  0.00    +0.000 A 
ATOM     19  C   UNL     1      45.593   3.483   8.369  0.00  0.00    +0.000 A 
ATOM     20 BR   UNL     1      46.620   3.566   6.781  0.00  0.00    +0.000 Br
ATOM     21  C   UNL     1      45.554   4.599   9.210  0.00  0.00    +0.000 A 
ATOM     22  C   UNL     1      44.750   4.527  10.361  0.00  0.00    +0.000 A 
ENDBRANCH  12  13
ENDBRANCH   5  12
TORSDOF 5
ENDMDL
MODEL 9
REMARK VINA RESULT:    -5.481      3.536      4.687
REMARK INTER + INTRA:          -7.479
REMARK INTER:                  -6.897
REMARK INTRA:                  -0.582
REMARK UNBOUND:                -0.556
REMARK  Name = 
REMARK  5 active torsions:
REMARK  status: ('A' for Active; 'I' for Inactive)
REMARK    1  A    between atoms: N_1  and  C_2
REMARK    2  A    between atoms: C_2  and  C_3
REMARK    3  A    between atoms: C_3  and  C_4
REMARK    4  A    between atoms: C_8  and  C_9
REMARK    5  A    between atoms: C_9  and  N_10
REMARK                            x       y       z     vdW  Elec       q    Type
REMARK                         _______ _______ _______ _____ _____    ______ ____
ROOT
ATOM      1  C   UNL     1      44.927   4.281  10.545  0.00  0.00    +0.000 A 
ATOM      2  C   UNL     1      44.892   3.231  11.454  0.00  0.00    +0.000 A 
ATOM      3  N   UNL     1      45.194   3.357  12.764  0.00  0.00    +0.000 NA
ATOM      4  C   UNL     1      45.539   4.592  13.196  0.00  0.00    +0.000 A 
ATOM      5  C   UNL     1      45.586   5.721  12.384  0.00  0.00    +0.000 A 
ATOM      6  C   UNL     1      45.286   5.544  11.030  0.00  0.00    +0.000 A 
ENDROOT
BRANCH   1   7
ATOM      7  C   UNL     1      44.536   4.079   9.105  0.00  0.00    +0.000 C 
BRANCH   7   8
ATOM      8  C   UNL     1      45.672   3.429   8.303  0.00  0.00    +0.000 C 
BRANCH   8   9
ATOM      9  N   UNL     1      46.395   4.420   7.509  0.00  0.00    +0.000 NA
ATOM     10  H   UNL     1      47.002   4.962   8.121  0.00  0.00    +0.000 HD
ATOM     11  H   UNL     1      45.738   5.084   7.103  0.00  0.00    +0.000 HD
ENDBRANCH   8   9
ENDBRANCH   7   8
ENDBRANCH   1   7
BRANCH   5  12
ATOM     12  C   UNL     1      45.913   7.071  12.958  0.00  0.00    +0.000 C 
BRANCH  12  13
ATOM     13  N   UNL     1      47.329   7.400  12.845  0.00  0.00    +0.000 N 
ATOM     14  C   UNL     1      47.919   7.878  11.699  0.00  0.00    +0.000 A 
ATOM     15  C   UNL     1      49.258   8.058  11.952  0.00  0.00    +0.000 A 
ATOM     16  C   UNL     1      49.504   7.660  13.294  0.00  0.00    +0.000 A 
ATOM     17  C   UNL     1      50.658   7.632  14.101  0.00  0.00    +0.000 A 
ATOM     18  C   UNL     1      50.568   7.172  15.420  0.00  0.00    +0.000 A 
ATOM     19  C   UNL     1      49.351   6.723  15.922  0.00  0.00    +0.000 A 
ATOM     20 BR   UNL     1      49.250   6.114  17.711  0.00  0.00    +0.000 Br
ATOM     21  C   UNL     1      48.193   6.724  15.139  0.00  0.00    +0.000 A 
ATOM     22  C   UNL     1      48.287   7.221  13.828  0.00  0.00    +0.000 A 
ENDBRANCH  12  13
ENDBRANCH   5  12
TORSDOF 5
ENDMDL
