MODEL 1
REMARK VINA RESULT:    -7.939      0.000      0.000
REMARK INTER + INTRA:         -10.752
REMARK INTER:                 -10.260
REMARK INTRA:                  -0.492
REMARK UNBOUND:                -0.492
REMARK  Name = 
REMARK  6 active torsions:
REMARK  status: ('A' for Active; 'I' for Inactive)
REMARK    1  A    between atoms: C_1  and  O_2
REMARK    2  A    between atoms: O_2  and  C_3
REMARK    3  A    between atoms: C_6  and  C_7
REMARK    4  A    between atoms: C_7  and  N_8
REMARK    5  A    between atoms: N_8  and  C_9
REMARK    6  A    between atoms: C_12  and  C_13
REMARK                            x       y       z     vdW  Elec       q    Type
REMARK                         _______ _______ _______ _____ _____    ______ ____
ROOT
ATOM      1  N   UNL     1      43.772   4.867   9.786  0.00  0.00    +0.000 N 
ATOM      2  H   UNL     1      44.089   5.826   9.656  0.00  0.00    +0.000 HD
ENDROOT
BRANCH   1   3
ATOM      3  C   UNL     1      44.577   3.952   9.094  0.00  0.00    +0.000 A 
ATOM      4  C   UNL     1      45.610   4.329   8.230  0.00  0.00    +0.000 A 
ATOM      5  C   UNL     1      46.426   3.366   7.634  0.00  0.00    +0.000 A 
ATOM      6  C   UNL     1      46.206   2.033   7.941  0.00  0.00    +0.000 A 
ATOM      7  N   UNL     1      45.242   1.607   8.802  0.00  0.00    +0.000 NA
ATOM      8  C   UNL     1      44.477   2.579   9.360  0.00  0.00    +0.000 A 
BRANCH   6   9
ATOM      9  C   UNL     1      47.070   0.980   7.321  0.00  0.00    +0.000 C 
ATOM     10  N   UNL     1      46.763  -0.309   7.669  0.00  0.00    +0.000 N 
ATOM     11  O   UNL     1      47.989   1.241   6.557  0.00  0.00    +0.000 OA
ATOM     12  H   UNL     1      46.004  -0.482   8.317  0.00  0.00    +0.000 HD
ATOM     13  H   UNL     1      47.317  -1.069   7.302  0.00  0.00    +0.000 HD
ENDBRANCH   6   9
ENDBRANCH   1   3
BRANCH   1  14
ATOM     14  C   UNL     1      43.465   4.587  11.186  0.00  0.00    +0.000 C 
BRANCH  14  18
ATOM     15  C   UNL     1      46.776   4.940  13.822  0.00  0.00    +0.000 A 
ATOM     16  C   UNL     1      46.338   6.102  13.206  0.00  0.00    +0.000 A 
ATOM     17  C   UNL     1      45.259   6.018  12.326  0.00  0.00    +0.000 A 
ATOM     18  C   UNL     1      44.667   4.775  12.072  0.00  0.00    +0.000 A 
ATOM     19  C   UNL     1      45.175   3.679  12.763  0.00  0.00    +0.000 A 
ATOM     20  N   UNL     1      46.211   3.733  13.623  0.00  0.00    +0.000 NA
BRANCH  15  22
ATOM     21  C   UNL     1      47.564   4.542  15.980  0.00  0.00    +0.000 C 
ATOM     22  O   UNL     1      47.852   5.054  14.680  0.00  0.00    +0.000 OA
ENDBRANCH  15  22
ENDBRANCH  14  18
ENDBRANCH   1  14
TORSDOF 5
ENDMDL
MODEL 2
REMARK VINA RESULT:    -7.548      1.232      6.418
REMARK INTER + INTRA:         -10.246
REMARK INTER:                  -9.749
REMARK INTRA:                  -0.497
REMARK UNBOUND:                -0.492
REMARK  Name = 
REMARK  6 active torsions:
REMARK  status: ('A' for Active; 'I' for Inactive)
REMARK    1  A    between atoms: C_1  and  O_2
REMARK    2  A    between atoms: O_2  and  C_3
REMARK    3  A    between atoms: C_6  and  C_7
REMARK    4  A    between atoms: C_7  and  N_8
REMARK    5  A    between atoms: N_8  and  C_9
REMARK    6  A    between atoms: C_12  and  C_13
REMARK                            x       y       z     vdW  Elec       q    Type
REMARK                         _______ _______ _______ _____ _____    ______ ____
ROOT
ATOM      1  N   UNL     1      44.517   5.381  10.477  0.00  0.00    +0.000 N 
ATOM      2  H   UNL     1      43.841   6.130  10.618  0.00  0.00    +0.000 HD
ENDROOT
BRANCH   1   3
ATOM      3  C   UNL     1      45.304   5.166  11.616  0.00  0.00    +0.000 A 
ATOM      4  C   UNL     1      46.252   6.079  12.085  0.00  0.00    +0.000 A 
ATOM      5  C   UNL     1      46.945   5.839  13.273  0.00  0.00    +0.000 A 
ATOM      6  C   UNL     1      46.650   4.689  13.987  0.00  0.00    +0.000 A 
ATOM      7  N   UNL     1      45.713   3.782  13.602  0.00  0.00    +0.000 NA
ATOM      8  C   UNL     1      45.062   4.061  12.445  0.00  0.00    +0.000 A 
BRANCH   6   9
ATOM      9  C   UNL     1      47.375   4.409  15.268  0.00  0.00    +0.000 C 
ATOM     10  N   UNL     1      47.767   5.517  15.972  0.00  0.00    +0.000 N 
ATOM     11  O   UNL     1      47.606   3.276  15.664  0.00  0.00    +0.000 OA
ATOM     12  H   UNL     1      47.570   6.438  15.601  0.00  0.00    +0.000 HD
ATOM     13  H   UNL     1      48.276   5.402  16.836  0.00  0.00    +0.000 HD
ENDBRANCH   6   9
ENDBRANCH   1   3
BRANCH   1  14
ATOM     14  C   UNL     1      43.905   4.219   9.836  0.00  0.00    +0.000 C 
BRANCH  14  18
ATOM     15  C   UNL     1      46.692   2.033   7.493  0.00  0.00    +0.000 A 
ATOM     16  C   UNL     1      46.573   3.387   7.224  0.00  0.00    +0.000 A 
ATOM     17  C   UNL     1      45.658   4.132   7.969  0.00  0.00    +0.000 A 
ATOM     18  C   UNL     1      44.877   3.497   8.942  0.00  0.00    +0.000 A 
ATOM     19  C   UNL     1      45.095   2.137   9.141  0.00  0.00    +0.000 A 
ATOM     20  N   UNL     1      45.977   1.395   8.441  0.00  0.00    +0.000 NA
BRANCH  15  22
ATOM     21  C   UNL     1      48.091   2.079   5.629  0.00  0.00    +0.000 C 
ATOM     22  O   UNL     1      47.598   1.321   6.732  0.00  0.00    +0.000 OA
ENDBRANCH  15  22
ENDBRANCH  14  18
ENDBRANCH   1  14
TORSDOF 5
ENDMDL
MODEL 3
REMARK VINA RESULT:    -7.085      1.856      6.640
REMARK INTER + INTRA:          -9.648
REMARK INTER:                  -9.120
REMARK INTRA:                  -0.528
REMARK UNBOUND:                -0.492
REMARK  Name = 
REMARK  6 active torsions:
REMARK  status: ('A' for Active; 'I' for Inactive)
REMARK    1  A    between atoms: C_1  and  O_2
REMARK    2  A    between atoms: O_2  and  C_3
REMARK    3  A    between atoms: C_6  and  C_7
REMARK    4  A    between atoms: C_7  and  N_8
REMARK    5  A    between atoms: N_8  and  C_9
REMARK    6  A    between atoms: C_12  and  C_13
REMARK                            x       y       z     vdW  Elec       q    Type
REMARK                         _______ _______ _______ _____ _____    ______ ____
ROOT
ATOM      1  N   UNL     1      44.635   2.842  12.164  0.00  0.00    +0.000 N 
ATOM      2  H   UNL     1      45.088   1.931  12.114  0.00  0.00    +0.000 HD
ENDROOT
BRANCH   1   3
ATOM      3  C   UNL     1      45.500   3.828  12.658  0.00  0.00    +0.000 A 
ATOM      4  C   UNL     1      45.204   5.195  12.644  0.00  0.00    +0.000 A 
ATOM      5  C   UNL     1      46.075   6.118  13.226  0.00  0.00    +0.000 A 
ATOM      6  C   UNL     1      47.223   5.644  13.840  0.00  0.00    +0.000 A 
ATOM      7  N   UNL     1      47.546   4.325  13.919  0.00  0.00    +0.000 NA
ATOM      8  C   UNL     1      46.667   3.466  13.345  0.00  0.00    +0.000 A 
BRANCH   6   9
ATOM      9  C   UNL     1      48.172   6.612  14.478  0.00  0.00    +0.000 C 
ATOM     10  N   UNL     1      47.811   7.930  14.388  0.00  0.00    +0.000 N 
ATOM     11  O   UNL     1      49.200   6.260  15.040  0.00  0.00    +0.000 OA
ATOM     12  H   UNL     1      46.961   8.181  13.899  0.00  0.00    +0.000 HD
ATOM     13  H   UNL     1      48.415   8.638  14.779  0.00  0.00    +0.000 HD
ENDBRANCH   6   9
ENDBRANCH   1   3
BRANCH   1  14
ATOM     14  C   UNL     1      43.882   3.137  10.948  0.00  0.00    +0.000 C 
BRANCH  14  18
ATOM     15  C   UNL     1      46.231   3.233   7.412  0.00  0.00    +0.000 A 
ATOM     16  C   UNL     1      46.036   1.994   8.001  0.00  0.00    +0.000 A 
ATOM     17  C   UNL     1      45.279   1.930   9.171  0.00  0.00    +0.000 A 
ATOM     18  C   UNL     1      44.759   3.106   9.725  0.00  0.00    +0.000 A 
ATOM     19  C   UNL     1      44.999   4.290   9.036  0.00  0.00    +0.000 A 
ATOM     20  N   UNL     1      45.722   4.380   7.902  0.00  0.00    +0.000 NA
BRANCH  15  22
ATOM     21  C   UNL     1      48.001   2.255   6.251  0.00  0.00    +0.000 C 
ATOM     22  O   UNL     1      46.994   3.265   6.262  0.00  0.00    +0.000 OA
ENDBRANCH  15  22
ENDBRANCH  14  18
ENDBRANCH   1  14
TORSDOF 5
ENDMDL
MODEL 4
REMARK VINA RESULT:    -6.706      1.949      6.667
REMARK INTER + INTRA:          -9.158
REMARK INTER:                  -8.627
REMARK INTRA:                  -0.532
REMARK UNBOUND:                -0.492
REMARK  Name = 
REMARK  6 active torsions:
REMARK  status: ('A' for Active; 'I' for Inactive)
REMARK    1  A    between atoms: C_1  and  O_2
REMARK    2  A    between atoms: O_2  and  C_3
REMARK    3  A    between atoms: C_6  and  C_7
REMARK    4  A    between atoms: C_7  and  N_8
REMARK    5  A    between atoms: N_8  and  C_9
REMARK    6  A    between atoms: C_12  and  C_13
REMARK                            x       y       z     vdW  Elec       q    Type
REMARK                         _______ _______ _______ _____ _____    ______ ____
ROOT
ATOM      1  N   UNL     1      44.071   4.042  11.639  0.00  0.00    +0.000 N 
ATOM      2  H   UNL     1      44.351   3.077  11.807  0.00  0.00    +0.000 HD
ENDROOT
BRANCH   1   3
ATOM      3  C   UNL     1      44.954   4.953  12.233  0.00  0.00    +0.000 A 
ATOM      4  C   UNL     1      46.075   4.572  12.977  0.00  0.00    +0.000 A 
ATOM      5  C   UNL     1      46.960   5.531  13.474  0.00  0.00    +0.000 A 
ATOM      6  C   UNL     1      46.714   6.864  13.189  0.00  0.00    +0.000 A 
ATOM      7  N   UNL     1      45.663   7.294  12.440  0.00  0.00    +0.000 NA
ATOM      8  C   UNL     1      44.835   6.325  11.974  0.00  0.00    +0.000 A 
BRANCH   6   9
ATOM      9  C   UNL     1      47.650   7.913  13.705  0.00  0.00    +0.000 C 
ATOM     10  N   UNL     1      47.072   8.880  14.484  0.00  0.00    +0.000 N 
ATOM     11  O   UNL     1      48.847   7.917  13.453  0.00  0.00    +0.000 OA
ATOM     12  H   UNL     1      46.074   8.850  14.656  0.00  0.00    +0.000 HD
ATOM     13  H   UNL     1      47.640   9.629  14.850  0.00  0.00    +0.000 HD
ENDBRANCH   6   9
ENDBRANCH   1   3
BRANCH   1  14
ATOM     14  C   UNL     1      43.699   4.258  10.243  0.00  0.00    +0.000 C 
BRANCH  14  18
ATOM     15  C   UNL     1      46.349   2.065   7.753  0.00  0.00    +0.000 A 
ATOM     16  C   UNL     1      46.267   3.430   7.532  0.00  0.00    +0.000 A 
ATOM     17  C   UNL     1      45.397   4.178   8.326  0.00  0.00    +0.000 A 
ATOM     18  C   UNL     1      44.622   3.536   9.299  0.00  0.00    +0.000 A 
ATOM     19  C   UNL     1      44.801   2.164   9.447  0.00  0.00    +0.000 A 
ATOM     20  N   UNL     1      45.639   1.419   8.698  0.00  0.00    +0.000 NA
BRANCH  15  22
ATOM     21  C   UNL     1      47.903   2.187   6.019  0.00  0.00    +0.000 C 
ATOM     22  O   UNL     1      47.210   1.351   6.944  0.00  0.00    +0.000 OA
ENDBRANCH  15  22
ENDBRANCH  14  18
ENDBRANCH   1  14
TORSDOF 5
ENDMDL
MODEL 5
REMARK VINA RESULT:    -6.171      2.019      6.842
REMARK INTER + INTRA:          -8.467
REMARK INTER:                  -7.985
REMARK INTRA:                  -0.482
REMARK UNBOUND:                -0.492
REMARK  Name = 
REMARK  6 active torsions:
REMARK  status: ('A' for Active; 'I' for Inactive)
REMARK    1  A    between atoms: C_1  and  O_2
REMARK    2  A    between atoms: O_2  and  C_3
REMARK    3  A    between atoms: C_6  and  C_7
REMARK    4  A    between atoms: C_7  and  N_8
REMARK    5  A    between atoms: N_8  and  C_9
REMARK    6  A    between atoms: C_12  and  C_13
REMARK                            x       y       z     vdW  Elec       q    Type
REMARK                         _______ _______ _______ _____ _____    ______ ____
ROOT
ATOM      1  N   UNL     1      46.018   6.259  11.492  0.00  0.00    +0.000 N 
ATOM      2  H   UNL     1      45.948   7.274  11.536  0.00  0.00    +0.000 HD
ENDROOT
BRANCH   1   3
ATOM      3  C   UNL     1      46.396   5.708  12.723  0.00  0.00    +0.000 A 
ATOM      4  C   UNL     1      45.849   4.532  13.247  0.00  0.00    +0.000 A 
ATOM      5  C   UNL     1      46.329   3.994  14.442  0.00  0.00    +0.000 A 
ATOM      6  C   UNL     1      47.377   4.637  15.080  0.00  0.00    +0.000 A 
ATOM      7  N   UNL     1      47.975   5.761  14.602  0.00  0.00    +0.000 NA
ATOM      8  C   UNL     1      47.479   6.244  13.435  0.00  0.00    +0.000 A 
BRANCH   6   9
ATOM      9  C   UNL     1      47.915   4.078  16.361  0.00  0.00    +0.000 C 
ATOM     10  N   UNL     1      47.042   3.298  17.072  0.00  0.00    +0.000 N 
ATOM     11  O   UNL     1      49.053   4.297  16.754  0.00  0.00    +0.000 OA
ATOM     12  H   UNL     1      46.103   3.155  16.720  0.00  0.00    +0.000 HD
ATOM     13  H   UNL     1      47.332   2.904  17.955  0.00  0.00    +0.000 HD
ENDBRANCH   6   9
ENDBRANCH   1   3
BRANCH   1  14
ATOM     14  C   UNL     1      44.875   5.670  10.799  0.00  0.00    +0.000 C 
BRANCH  14  18
ATOM     15  C   UNL     1      46.084   3.088   7.652  0.00  0.00    +0.000 A 
ATOM     16  C   UNL     1      45.306   2.532   8.655  0.00  0.00    +0.000 A 
ATOM     17  C   UNL     1      44.901   3.351   9.709  0.00  0.00    +0.000 A 
ATOM     18  C   UNL     1      45.305   4.691   9.739  0.00  0.00    +0.000 A 
ATOM     19  C   UNL     1      46.068   5.147   8.669  0.00  0.00    +0.000 A 
ATOM     20  N   UNL     1      46.468   4.380   7.635  0.00  0.00    +0.000 NA
BRANCH  15  22
ATOM     21  C   UNL     1      47.869   1.938   6.688  0.00  0.00    +0.000 C 
ATOM     22  O   UNL     1      46.478   2.249   6.629  0.00  0.00    +0.000 OA
ENDBRANCH  15  22
ENDBRANCH  14  18
ENDBRANCH   1  14
TORSDOF 5
ENDMDL
MODEL 6
REMARK VINA RESULT:    -6.043      3.217      5.676
REMARK INTER + INTRA:          -8.301
REMARK INTER:                  -7.930
REMARK INTRA:                  -0.371
REMARK UNBOUND:                -0.492
REMARK  Name = 
REMARK  6 active torsions:
REMARK  status: ('A' for Active; 'I' for Inactive)
REMARK    1  A    between atoms: C_1  and  O_2
REMARK    2  A    between atoms: O_2  and  C_3
REMARK    3  A    between atoms: C_6  and  C_7
REMARK    4  A    between atoms: C_7  and  N_8
REMARK    5  A    between atoms: N_8  and  C_9
REMARK    6  A    between atoms: C_12  and  C_13
REMARK                            x       y       z     vdW  Elec       q    Type
REMARK                         _______ _______ _______ _____ _____    ______ ____
ROOT
ATOM      1  N   UNL     1      47.313   5.219  15.094  0.00  0.00    +0.000 N 
ATOM      2  H   UNL     1      48.283   5.307  14.796  0.00  0.00    +0.000 HD
ENDROOT
BRANCH   1   3
ATOM      3  C   UNL     1      46.463   4.914  14.022  0.00  0.00    +0.000 A 
ATOM      4  C   UNL     1      45.832   5.881  13.235  0.00  0.00    +0.000 A 
ATOM      5  C   UNL     1      45.063   5.509  12.131  0.00  0.00    +0.000 A 
ATOM      6  C   UNL     1      44.964   4.163  11.820  0.00  0.00    +0.000 A 
ATOM      7  N   UNL     1      45.584   3.179  12.525  0.00  0.00    +0.000 NA
ATOM      8  C   UNL     1      46.325   3.589  13.585  0.00  0.00    +0.000 A 
BRANCH   6   9
ATOM      9  C   UNL     1      44.149   3.736  10.638  0.00  0.00    +0.000 C 
ATOM     10  N   UNL     1      44.177   4.592   9.569  0.00  0.00    +0.000 N 
ATOM     11  O   UNL     1      43.501   2.699  10.618  0.00  0.00    +0.000 OA
ATOM     12  H   UNL     1      44.713   5.449   9.631  0.00  0.00    +0.000 HD
ATOM     13  H   UNL     1      43.636   4.376   8.745  0.00  0.00    +0.000 HD
ENDBRANCH   6   9
ENDBRANCH   1   3
BRANCH   1  14
ATOM     14  C   UNL     1      47.194   4.422  16.312  0.00  0.00    +0.000 C 
BRANCH  14  18
ATOM     15  C   UNL     1      50.671   2.145  17.189  0.00  0.00    +0.000 A 
ATOM     16  C   UNL     1      50.589   3.408  17.753  0.00  0.00    +0.000 A 
ATOM     17  C   UNL     1      49.465   4.186  17.475  0.00  0.00    +0.000 A 
ATOM     18  C   UNL     1      48.470   3.687  16.627  0.00  0.00    +0.000 A 
ATOM     19  C   UNL     1      48.646   2.398  16.134  0.00  0.00    +0.000 A 
ATOM     20  N   UNL     1      49.718   1.622  16.391  0.00  0.00    +0.000 NA
BRANCH  15  22
ATOM     21  C   UNL     1      52.823   2.188  18.084  0.00  0.00    +0.000 C 
ATOM     22  O   UNL     1      51.800   1.404  17.473  0.00  0.00    +0.000 OA
ENDBRANCH  15  22
ENDBRANCH  14  18
ENDBRANCH   1  14
TORSDOF 5
ENDMDL
MODEL 7
REMARK VINA RESULT:    -5.586      3.106      7.421
REMARK INTER + INTRA:          -7.711
REMARK INTER:                  -7.308
REMARK INTRA:                  -0.403
REMARK UNBOUND:                -0.492
REMARK  Name = 
REMARK  6 active torsions:
REMARK  status: ('A' for Active; 'I' for Inactive)
REMARK    1  A    between atoms: C_1  and  O_2
REMARK    2  A    between atoms: O_2  and  C_3
REMARK    3  A    between atoms: C_6  and  C_7
REMARK    4  A    between atoms: C_7  and  N_8
REMARK    5  A    between atoms: N_8  and  C_9
REMARK    6  A    between atoms: C_12  and  C_13
REMARK                            x       y       z     vdW  Elec       q    Type
REMARK                         _______ _______ _______ _____ _____    ______ ____
ROOT
ATOM      1  N   UNL     1      46.373   4.620  15.037  0.00  0.00    +0.000 N 
ATOM      2  H   UNL     1      45.708   3.888  14.795  0.00  0.00    +0.000 HD
ENDROOT
BRANCH   1   3
ATOM      3  C   UNL     1      47.508   4.105  15.676  0.00  0.00    +0.000 A 
ATOM      4  C   UNL     1      48.181   4.763  16.710  0.00  0.00    +0.000 A 
ATOM      5  C   UNL     1      49.258   4.156  17.359  0.00  0.00    +0.000 A 
ATOM      6  C   UNL     1      49.624   2.878  16.973  0.00  0.00    +0.000 A 
ATOM      7  N   UNL     1      48.986   2.171  16.001  0.00  0.00    +0.000 NA
ATOM      8  C   UNL     1      47.942   2.800  15.403  0.00  0.00    +0.000 A 
BRANCH   6   9
ATOM      9  C   UNL     1      50.772   2.200  17.656  0.00  0.00    +0.000 C 
ATOM     10  N   UNL     1      51.505   2.996  18.496  0.00  0.00    +0.000 N 
ATOM     11  O   UNL     1      51.045   1.021  17.481  0.00  0.00    +0.000 OA
ATOM     12  H   UNL     1      51.255   3.972  18.600  0.00  0.00    +0.000 HD
ATOM     13  H   UNL     1      52.304   2.610  18.975  0.00  0.00    +0.000 HD
ENDBRANCH   6   9
ENDBRANCH   1   3
BRANCH   1  14
ATOM     14  C   UNL     1      46.573   5.552  13.930  0.00  0.00    +0.000 C 
BRANCH  14  18
ATOM     15  C   UNL     1      44.827   3.949  10.407  0.00  0.00    +0.000 A 
ATOM     16  C   UNL     1      45.308   5.246  10.334  0.00  0.00    +0.000 A 
ATOM     17  C   UNL     1      45.878   5.806  11.477  0.00  0.00    +0.000 A 
ATOM     18  C   UNL     1      45.928   5.062  12.662  0.00  0.00    +0.000 A 
ATOM     19  C   UNL     1      45.434   3.762  12.614  0.00  0.00    +0.000 A 
ATOM     20  N   UNL     1      44.885   3.194  11.522  0.00  0.00    +0.000 NA
BRANCH  15  22
ATOM     21  C   UNL     1      45.080   3.623   8.112  0.00  0.00    +0.000 C 
ATOM     22  O   UNL     1      44.259   3.426   9.262  0.00  0.00    +0.000 OA
ENDBRANCH  15  22
ENDBRANCH  14  18
ENDBRANCH   1  14
TORSDOF 5
ENDMDL
MODEL 8
REMARK VINA RESULT:    -5.524      2.188      6.968
REMARK INTER + INTRA:          -7.631
REMARK INTER:                  -7.578
REMARK INTRA:                  -0.053
REMARK UNBOUND:                -0.492
REMARK  Name = 
REMARK  6 active torsions:
REMARK  status: ('A' for Active; 'I' for Inactive)
REMARK    1  A    between atoms: C_1  and  O_2
REMARK    2  A    between atoms: O_2  and  C_3
REMARK    3  A    between atoms: C_6  and  C_7
REMARK    4  A    between atoms: C_7  and  N_8
REMARK    5  A    between atoms: N_8  and  C_9
REMARK    6  A    between atoms: C_12  and  C_13
REMARK                            x       y       z     vdW  Elec       q    Type
REMARK                         _______ _______ _______ _____ _____    ______ ____
ROOT
ATOM      1  N   UNL     1      46.919   6.551  12.454  0.00  0.00    +0.000 N 
ATOM      2  H   UNL     1      47.300   7.493  12.382  0.00  0.00    +0.000 HD
ENDROOT
BRANCH   1   3
ATOM      3  C   UNL     1      47.269   5.937  13.665  0.00  0.00    +0.000 A 
ATOM      4  C   UNL     1      48.147   6.503  14.594  0.00  0.00    +0.000 A 
ATOM      5  C   UNL     1      48.390   5.876  15.818  0.00  0.00    +0.000 A 
ATOM      6  C   UNL     1      47.720   4.697  16.098  0.00  0.00    +0.000 A 
ATOM      7  N   UNL     1      46.826   4.118  15.251  0.00  0.00    +0.000 NA
ATOM      8  C   UNL     1      46.619   4.766  14.078  0.00  0.00    +0.000 A 
BRANCH   6   9
ATOM      9  C   UNL     1      47.957   4.006  17.406  0.00  0.00    +0.000 C 
ATOM     10  N   UNL     1      47.261   4.514  18.470  0.00  0.00    +0.000 N 
ATOM     11  O   UNL     1      48.716   3.055  17.525  0.00  0.00    +0.000 OA
ATOM     12  H   UNL     1      46.654   5.313  18.333  0.00  0.00    +0.000 HD
ATOM     13  H   UNL     1      47.387   4.109  19.386  0.00  0.00    +0.000 HD
ENDBRANCH   6   9
ENDBRANCH   1   3
BRANCH   1  14
ATOM     14  C   UNL     1      45.519   6.504  12.041  0.00  0.00    +0.000 C 
BRANCH  14  18
ATOM     15  C   UNL     1      44.814   3.218   9.445  0.00  0.00    +0.000 A 
ATOM     16  C   UNL     1      45.467   4.314   8.905  0.00  0.00    +0.000 A 
ATOM     17  C   UNL     1      45.704   5.414   9.729  0.00  0.00    +0.000 A 
ATOM     18  C   UNL     1      45.262   5.394  11.057  0.00  0.00    +0.000 A 
ATOM     19  C   UNL     1      44.636   4.232  11.498  0.00  0.00    +0.000 A 
ATOM     20  N   UNL     1      44.400   3.152  10.726  0.00  0.00    +0.000 NA
BRANCH  15  22
ATOM     21  C   UNL     1      45.774   1.411   8.327  0.00  0.00    +0.000 C 
ATOM     22  O   UNL     1      44.584   2.148   8.603  0.00  0.00    +0.000 OA
ENDBRANCH  15  22
ENDBRANCH  14  18
ENDBRANCH   1  14
TORSDOF 5
ENDMDL
MODEL 9
REMARK VINA RESULT:    -5.423      4.153      5.669
REMARK INTER + INTRA:          -7.501
REMARK INTER:                  -7.050
REMARK INTRA:                  -0.451
REMARK UNBOUND:                -0.492
REMARK  Name = 
REMARK  6 active torsions:
REMARK  status: ('A' for Active; 'I' for Inactive)
REMARK    1  A    between atoms: C_1  and  O_2
REMARK    2  A    between atoms: O_2  and  C_3
REMARK    3  A    between atoms: C_6  and  C_7
REMARK    4  A    between atoms: C_7  and  N_8
REMARK    5  A    between atoms: N_8  and  C_9
REMARK    6  A    between atoms: C_12  and  C_13
REMARK                            x       y       z     vdW  Elec       q    Type
REMARK                         _______ _______ _______ _____ _____    ______ ____
ROOT
ATOM      1  N   UNL     1      46.601   7.251  13.516  0.00  0.00    +0.000 N 
ATOM      2  H   UNL     1      46.270   7.436  14.461  0.00  0.00    +0.000 HD
ENDROOT
BRANCH   1   3
ATOM      3  C   UNL     1      45.880   6.218  12.902  0.00  0.00    +0.000 A 
ATOM      4  C   UNL     1      45.309   6.321  11.630  0.00  0.00    +0.000 A 
ATOM      5  C   UNL     1      44.674   5.225  11.044  0.00  0.00    +0.000 A 
ATOM      6  C   UNL     1      44.647   4.029  11.741  0.00  0.00    +0.000 A 
ATOM      7  N   UNL     1      45.217   3.855  12.964  0.00  0.00    +0.000 NA
ATOM      8  C   UNL     1      45.828   4.946  13.490  0.00  0.00    +0.000 A 
BRANCH   6   9
ATOM      9  C   UNL     1      43.977   2.835  11.133  0.00  0.00    +0.000 C 
ATOM     10  N   UNL     1      44.618   2.291  10.052  0.00  0.00    +0.000 N 
ATOM     11  O   UNL     1      42.929   2.372  11.563  0.00  0.00    +0.000 OA
ATOM     12  H   UNL     1      45.475   2.714   9.717  0.00  0.00    +0.000 HD
ATOM     13  H   UNL     1      44.213   1.496   9.582  0.00  0.00    +0.000 HD
ENDBRANCH   6   9
ENDBRANCH   1   3
BRANCH   1  14
ATOM     14  C   UNL     1      46.801   8.488  12.765  0.00  0.00    +0.000 C 
BRANCH  14  18
ATOM     15  C   UNL     1      50.717   9.038  11.217  0.00  0.00    +0.000 A 
ATOM     16  C   UNL     1      50.308   7.733  11.438  0.00  0.00    +0.000 A 
ATOM     17  C   UNL     1      49.031   7.518  11.957  0.00  0.00    +0.000 A 
ATOM     18  C   UNL     1      48.213   8.614  12.258  0.00  0.00    +0.000 A 
ATOM     19  C   UNL     1      48.719   9.878  11.975  0.00  0.00    +0.000 A 
ATOM     20  N   UNL     1      49.946  10.114  11.468  0.00  0.00    +0.000 NA
BRANCH  15  22
ATOM     21  C   UNL     1      52.609   7.985  10.351  0.00  0.00    +0.000 C 
ATOM     22  O   UNL     1      51.990   9.218  10.713  0.00  0.00    +0.000 OA
ENDBRANCH  15  22
ENDBRANCH  14  18
ENDBRANCH   1  14
TORSDOF 5
ENDMDL
