MODEL 1
REMARK VINA RESULT:    -7.594      0.000      0.000
REMARK INTER + INTRA:         -11.838
REMARK INTER:                 -10.702
REMARK INTRA:                  -1.136
REMARK UNBOUND:                -1.136
REMARK  Name = 
REMARK  9 active torsions:
REMARK  status: ('A' for Active; 'I' for Inactive)
REMARK    1  A    between atoms: C_1  and  C_2
REMARK    2  A    between atoms: C_2  and  N_3
REMARK    3  A    between atoms: C_2  and  C_26
REMARK    4  A    between atoms: N_3  and  C_4
REMARK    5  A    between atoms: C_4  and  C_5
REMARK    6  A    between atoms: C_8  and  C_9
REMARK    7  A    between atoms: C_9  and  N_10
REMARK    8  A    between atoms: C_11  and  C_13
REMARK    9  A    between atoms: N_19  and  C_20
REMARK                            x       y       z     vdW  Elec       q    Type
REMARK                         _______ _______ _______ _____ _____    ______ ____
ROOT
ATOM      1  C   UNL     1      44.843   6.511  11.794  0.00  0.00    +0.000 A 
ATOM      2  C   UNL     1      44.773   7.897  11.641  0.00  0.00    +0.000 A 
ATOM      3  C   UNL     1      45.691   8.711  12.297  0.00  0.00    +0.000 A 
ATOM      4  C   UNL     1      46.662   8.120  13.098  0.00  0.00    +0.000 A 
ATOM      5  N   UNL     1      46.744   6.776  13.279  0.00  0.00    +0.000 NA
ATOM      6  C   UNL     1      45.844   6.011  12.620  0.00  0.00    +0.000 A 
ENDROOT
BRANCH   1   7
ATOM      7  C   UNL     1      43.855   5.588  11.133  0.00  0.00    +0.000 C 
BRANCH   7   8
ATOM      8  N   UNL     1      44.304   5.172   9.802  0.00  0.00    +0.000 NA
ATOM      9  H   UNL     1      43.730   5.654   9.109  0.00  0.00    +0.000 HD
BRANCH   8  11
ATOM     10  C   UNL     1      44.091   2.918  10.880  0.00  0.00    +0.000 C 
ATOM     11  C   UNL     1      44.139   3.722   9.574  0.00  0.00    +0.000 C 
BRANCH  11  12
ATOM     12  C   UNL     1      45.251   3.174   8.688  0.00  0.00    +0.000 A 
ATOM     13  C   UNL     1      45.602   1.825   8.717  0.00  0.00    +0.000 A 
ATOM     14  N   UNL     1      46.536   1.283   7.897  0.00  0.00    +0.000 NA
ATOM     15  C   UNL     1      47.125   2.151   7.046  0.00  0.00    +0.000 A 
ATOM     16  C   UNL     1      46.803   3.497   7.022  0.00  0.00    +0.000 A 
ATOM     17  N   UNL     1      45.866   4.038   7.835  0.00  0.00    +0.000 NA
ENDBRANCH  11  12
ENDBRANCH   8  11
ENDBRANCH   7   8
ENDBRANCH   1   7
BRANCH   4  18
ATOM     18  C   UNL     1      47.635   8.982  13.858  0.00  0.00    +0.000 C 
BRANCH  18  19
ATOM     19  N   UNL     1      47.764   8.546  15.226  0.00  0.00    +0.000 N 
ATOM     20  C   UNL     1      48.947   8.532  15.910  0.00  0.00    +0.000 C 
ATOM     21  O   UNL     1      49.980   9.035  15.475  0.00  0.00    +0.000 OA
ATOM     22  H   UNL     1      46.931   8.152  15.640  0.00  0.00    +0.000 HD
BRANCH  20  23
ATOM     23  C   UNL     1      48.880   7.918  17.237  0.00  0.00    +0.000 A 
ATOM     24  C   UNL     1      49.027   8.679  18.387  0.00  0.00    +0.000 A 
ATOM     25  S   UNL     1      48.848   7.766  19.820  0.00  0.00    +0.000 S 
ATOM     26  C   UNL     1      48.625   6.323  18.944  0.00  0.00    +0.000 A 
ATOM     27  N   UNL     1      48.414   5.140  19.579  0.00  0.00    +0.000 NA
ATOM     28  C   UNL     1      48.281   4.123  18.787  0.00  0.00    +0.000 A 
ATOM     29  N   UNL     1      48.352   4.165  17.412  0.00  0.00    +0.000 N 
ATOM     30  C   UNL     1      48.194   2.963  16.620  0.00  0.00    +0.000 C 
ATOM     31  C   UNL     1      48.583   5.357  16.731  0.00  0.00    +0.000 A 
ATOM     32  O   UNL     1      48.667   5.411  15.508  0.00  0.00    +0.000 OA
ATOM     33  C   UNL     1      48.695   6.528  17.584  0.00  0.00    +0.000 A 
ENDBRANCH  20  23
ENDBRANCH  18  19
ENDBRANCH   4  18
TORSDOF 7
ENDMDL
MODEL 2
REMARK VINA RESULT:    -7.490      1.565      2.620
REMARK INTER + INTRA:         -11.690
REMARK INTER:                 -10.677
REMARK INTRA:                  -1.013
REMARK UNBOUND:                -1.136
REMARK  Name = 
REMARK  9 active torsions:
REMARK  status: ('A' for Active; 'I' for Inactive)
REMARK    1  A    between atoms: C_1  and  C_2
REMARK    2  A    between atoms: C_2  and  N_3
REMARK    3  A    between atoms: C_2  and  C_26
REMARK    4  A    between atoms: N_3  and  C_4
REMARK    5  A    between atoms: C_4  and  C_5
REMARK    6  A    between atoms: C_8  and  C_9
REMARK    7  A    between atoms: C_9  and  N_10
REMARK    8  A    between atoms: C_11  and  C_13
REMARK    9  A    between atoms: N_19  and  C_20
REMARK                            x       y       z     vdW  Elec       q    Type
REMARK                         _______ _______ _______ _____ _____    ______ ____
ROOT
ATOM      1  C   UNL     1      44.748   5.661  11.564  0.00  0.00    +0.000 A 
ATOM      2  C   UNL     1      45.434   4.917  12.526  0.00  0.00    +0.000 A 
ATOM      3  C   UNL     1      46.442   5.519  13.274  0.00  0.00    +0.000 A 
ATOM      4  C   UNL     1      46.747   6.855  13.040  0.00  0.00    +0.000 A 
ATOM      5  N   UNL     1      46.108   7.598  12.098  0.00  0.00    +0.000 NA
ATOM      6  C   UNL     1      45.127   6.989  11.395  0.00  0.00    +0.000 A 
ENDROOT
BRANCH   1   7
ATOM      7  C   UNL     1      43.673   5.050  10.707  0.00  0.00    +0.000 C 
BRANCH   7   8
ATOM      8  N   UNL     1      44.153   4.762   9.353  0.00  0.00    +0.000 NA
ATOM      9  H   UNL     1      43.492   5.168   8.689  0.00  0.00    +0.000 HD
BRANCH   8  11
ATOM     10  C   UNL     1      44.166   2.458  10.342  0.00  0.00    +0.000 C 
ATOM     11  C   UNL     1      44.223   3.315   9.069  0.00  0.00    +0.000 C 
BRANCH  11  12
ATOM     12  C   UNL     1      45.483   2.966   8.286  0.00  0.00    +0.000 A 
ATOM     13  C   UNL     1      46.001   1.672   8.285  0.00  0.00    +0.000 A 
ATOM     14  N   UNL     1      47.078   1.304   7.548  0.00  0.00    +0.000 NA
ATOM     15  C   UNL     1      47.634   2.291   6.814  0.00  0.00    +0.000 A 
ATOM     16  C   UNL     1      47.145   3.586   6.823  0.00  0.00    +0.000 A 
ATOM     17  N   UNL     1      46.066   3.953   7.553  0.00  0.00    +0.000 NA
ENDBRANCH  11  12
ENDBRANCH   8  11
ENDBRANCH   7   8
ENDBRANCH   1   7
BRANCH   4  18
ATOM     18  C   UNL     1      47.868   7.514  13.799  0.00  0.00    +0.000 C 
BRANCH  18  19
ATOM     19  N   UNL     1      47.906   7.070  15.169  0.00  0.00    +0.000 N 
ATOM     20  C   UNL     1      49.039   6.628  15.794  0.00  0.00    +0.000 C 
ATOM     21  O   UNL     1      50.158   6.715  15.293  0.00  0.00    +0.000 OA
ATOM     22  H   UNL     1      47.012   7.010  15.635  0.00  0.00    +0.000 HD
BRANCH  20  23
ATOM     23  C   UNL     1      48.828   6.090  17.138  0.00  0.00    +0.000 A 
ATOM     24  C   UNL     1      49.058   4.752  17.419  0.00  0.00    +0.000 A 
ATOM     25  S   UNL     1      48.810   4.361  19.064  0.00  0.00    +0.000 S 
ATOM     26  C   UNL     1      48.337   5.956  19.432  0.00  0.00    +0.000 A 
ATOM     27  N   UNL     1      47.987   6.311  20.696  0.00  0.00    +0.000 NA
ATOM     28  C   UNL     1      47.630   7.549  20.826  0.00  0.00    +0.000 A 
ATOM     29  N   UNL     1      47.574   8.476  19.808  0.00  0.00    +0.000 N 
ATOM     30  C   UNL     1      47.155   9.839  20.062  0.00  0.00    +0.000 C 
ATOM     31  C   UNL     1      47.911   8.142  18.499  0.00  0.00    +0.000 A 
ATOM     32  O   UNL     1      47.850   8.949  17.577  0.00  0.00    +0.000 OA
ATOM     33  C   UNL     1      48.357   6.770  18.322  0.00  0.00    +0.000 A 
ENDBRANCH  20  23
ENDBRANCH  18  19
ENDBRANCH   4  18
TORSDOF 7
ENDMDL
MODEL 3
REMARK VINA RESULT:    -7.461      2.864      8.503
REMARK INTER + INTRA:         -11.650
REMARK INTER:                 -10.251
REMARK INTRA:                  -1.400
REMARK UNBOUND:                -1.136
REMARK  Name = 
REMARK  9 active torsions:
REMARK  status: ('A' for Active; 'I' for Inactive)
REMARK    1  A    between atoms: C_1  and  C_2
REMARK    2  A    between atoms: C_2  and  N_3
REMARK    3  A    between atoms: C_2  and  C_26
REMARK    4  A    between atoms: N_3  and  C_4
REMARK    5  A    between atoms: C_4  and  C_5
REMARK    6  A    between atoms: C_8  and  C_9
REMARK    7  A    between atoms: C_9  and  N_10
REMARK    8  A    between atoms: C_11  and  C_13
REMARK    9  A    between atoms: N_19  and  C_20
REMARK                            x       y       z     vdW  Elec       q    Type
REMARK                         _______ _______ _______ _____ _____    ______ ____
ROOT
ATOM      1  C   UNL     1      48.962   7.683  16.068  0.00  0.00    +0.000 A 
ATOM      2  C   UNL     1      48.343   8.861  15.645  0.00  0.00    +0.000 A 
ATOM      3  C   UNL     1      47.772   8.924  14.378  0.00  0.00    +0.000 A 
ATOM      4  C   UNL     1      47.835   7.806  13.555  0.00  0.00    +0.000 A 
ATOM      5  N   UNL     1      48.445   6.653  13.932  0.00  0.00    +0.000 NA
ATOM      6  C   UNL     1      48.982   6.617  15.173  0.00  0.00    +0.000 A 
ENDROOT
BRANCH   1   7
ATOM      7  C   UNL     1      49.623   7.572  17.415  0.00  0.00    +0.000 C 
BRANCH   7   8
ATOM      8  N   UNL     1      48.640   7.449  18.495  0.00  0.00    +0.000 NA
ATOM      9  H   UNL     1      48.774   8.233  19.136  0.00  0.00    +0.000 HD
BRANCH   8  11
ATOM     10  C   UNL     1      50.226   6.057  19.849  0.00  0.00    +0.000 C 
ATOM     11  C   UNL     1      48.808   6.210  19.279  0.00  0.00    +0.000 C 
BRANCH  11  12
ATOM     12  C   UNL     1      48.467   4.980  18.448  0.00  0.00    +0.000 A 
ATOM     13  C   UNL     1      47.177   4.769  17.961  0.00  0.00    +0.000 A 
ATOM     14  N   UNL     1      46.847   3.726  17.161  0.00  0.00    +0.000 NA
ATOM     15  C   UNL     1      47.861   2.882  16.872  0.00  0.00    +0.000 A 
ATOM     16  C   UNL     1      49.140   3.065  17.367  0.00  0.00    +0.000 A 
ATOM     17  N   UNL     1      49.473   4.110  18.160  0.00  0.00    +0.000 NA
ENDBRANCH  11  12
ENDBRANCH   8  11
ENDBRANCH   7   8
ENDBRANCH   1   7
BRANCH   4  18
ATOM     18  C   UNL     1      47.270   7.866  12.160  0.00  0.00    +0.000 C 
BRANCH  18  19
ATOM     19  N   UNL     1      46.573   6.651  11.823  0.00  0.00    +0.000 N 
ATOM     20  C   UNL     1      45.222   6.580  11.625  0.00  0.00    +0.000 C 
ATOM     21  O   UNL     1      44.500   7.573  11.562  0.00  0.00    +0.000 OA
ATOM     22  H   UNL     1      47.131   5.809  11.831  0.00  0.00    +0.000 HD
BRANCH  20  23
ATOM     23  C   UNL     1      44.701   5.227  11.434  0.00  0.00    +0.000 A 
ATOM     24  C   UNL     1      43.959   4.598  12.422  0.00  0.00    +0.000 A 
ATOM     25  S   UNL     1      43.399   3.052  11.958  0.00  0.00    +0.000 S 
ATOM     26  C   UNL     1      44.178   3.159  10.446  0.00  0.00    +0.000 A 
ATOM     27  N   UNL     1      44.097   2.149   9.541  0.00  0.00    +0.000 NA
ATOM     28  C   UNL     1      44.754   2.359   8.444  0.00  0.00    +0.000 A 
ATOM     29  N   UNL     1      45.503   3.481   8.162  0.00  0.00    +0.000 N 
ATOM     30  C   UNL     1      46.205   3.612   6.902  0.00  0.00    +0.000 C 
ATOM     31  C   UNL     1      45.620   4.526   9.074  0.00  0.00    +0.000 A 
ATOM     32  O   UNL     1      46.296   5.525   8.848  0.00  0.00    +0.000 OA
ATOM     33  C   UNL     1      44.861   4.346  10.300  0.00  0.00    +0.000 A 
ENDBRANCH  20  23
ENDBRANCH  18  19
ENDBRANCH   4  18
TORSDOF 7
ENDMDL
MODEL 4
REMARK VINA RESULT:    -7.337      4.909      9.721
REMARK INTER + INTRA:         -11.475
REMARK INTER:                 -10.579
REMARK INTRA:                  -0.896
REMARK UNBOUND:                -1.136
REMARK  Name = 
REMARK  9 active torsions:
REMARK  status: ('A' for Active; 'I' for Inactive)
REMARK    1  A    between atoms: C_1  and  C_2
REMARK    2  A    between atoms: C_2  and  N_3
REMARK    3  A    between atoms: C_2  and  C_26
REMARK    4  A    between atoms: N_3  and  C_4
REMARK    5  A    between atoms: C_4  and  C_5
REMARK    6  A    between atoms: C_8  and  C_9
REMARK    7  A    between atoms: C_9  and  N_10
REMARK    8  A    between atoms: C_11  and  C_13
REMARK    9  A    between atoms: N_19  and  C_20
REMARK                            x       y       z     vdW  Elec       q    Type
REMARK                         _______ _______ _______ _____ _____    ______ ____
ROOT
ATOM      1  C   UNL     1      51.414   2.775  17.684  0.00  0.00    +0.000 A 
ATOM      2  C   UNL     1      50.769   3.906  18.190  0.00  0.00    +0.000 A 
ATOM      3  C   UNL     1      49.402   4.069  17.985  0.00  0.00    +0.000 A 
ATOM      4  C   UNL     1      48.708   3.098  17.273  0.00  0.00    +0.000 A 
ATOM      5  N   UNL     1      49.312   1.997  16.755  0.00  0.00    +0.000 NA
ATOM      6  C   UNL     1      50.638   1.860  16.979  0.00  0.00    +0.000 A 
ENDROOT
BRANCH   1   7
ATOM      7  C   UNL     1      52.895   2.565  17.850  0.00  0.00    +0.000 C 
BRANCH   7   8
ATOM      8  N   UNL     1      53.190   1.389  18.672  0.00  0.00    +0.000 NA
ATOM      9  H   UNL     1      53.219   1.685  19.649  0.00  0.00    +0.000 HD
BRANCH   8  11
ATOM     10  C   UNL     1      55.062   1.262  17.009  0.00  0.00    +0.000 C 
ATOM     11  C   UNL     1      54.503   0.790  18.358  0.00  0.00    +0.000 C 
BRANCH  11  12
ATOM     12  C   UNL     1      54.431  -0.731  18.368  0.00  0.00    +0.000 A 
ATOM     13  C   UNL     1      54.890  -1.485  17.288  0.00  0.00    +0.000 A 
ATOM     14  N   UNL     1      54.908  -2.841  17.284  0.00  0.00    +0.000 NA
ATOM     15  C   UNL     1      54.432  -3.424  18.405  0.00  0.00    +0.000 A 
ATOM     16  C   UNL     1      53.951  -2.689  19.475  0.00  0.00    +0.000 A 
ATOM     17  N   UNL     1      53.939  -1.336  19.483  0.00  0.00    +0.000 NA
ENDBRANCH  11  12
ENDBRANCH   8  11
ENDBRANCH   7   8
ENDBRANCH   1   7
BRANCH   4  18
ATOM     18  C   UNL     1      47.239   3.278  16.994  0.00  0.00    +0.000 C 
BRANCH  18  19
ATOM     19  N   UNL     1      47.012   4.323  16.028  0.00  0.00    +0.000 N 
ATOM     20  C   UNL     1      47.135   4.151  14.678  0.00  0.00    +0.000 C 
ATOM     21  O   UNL     1      47.298   3.051  14.154  0.00  0.00    +0.000 OA
ATOM     22  H   UNL     1      46.843   5.243  16.411  0.00  0.00    +0.000 HD
BRANCH  20  23
ATOM     23  C   UNL     1      47.001   5.376  13.889  0.00  0.00    +0.000 A 
ATOM     24  C   UNL     1      48.018   6.317  13.847  0.00  0.00    +0.000 A 
ATOM     25  S   UNL     1      47.671   7.632  12.813  0.00  0.00    +0.000 S 
ATOM     26  C   UNL     1      46.132   7.006  12.436  0.00  0.00    +0.000 A 
ATOM     27  N   UNL     1      45.298   7.657  11.583  0.00  0.00    +0.000 NA
ATOM     28  C   UNL     1      44.154   7.076  11.405  0.00  0.00    +0.000 A 
ATOM     29  N   UNL     1      43.748   5.906  12.010  0.00  0.00    +0.000 N 
ATOM     30  C   UNL     1      42.440   5.344  11.743  0.00  0.00    +0.000 C 
ATOM     31  C   UNL     1      44.571   5.223  12.900  0.00  0.00    +0.000 A 
ATOM     32  O   UNL     1      44.220   4.190  13.461  0.00  0.00    +0.000 OA
ATOM     33  C   UNL     1      45.881   5.822  13.093  0.00  0.00    +0.000 A 
ENDBRANCH  20  23
ENDBRANCH  18  19
ENDBRANCH   4  18
TORSDOF 7
ENDMDL
MODEL 5
REMARK VINA RESULT:    -7.172      2.097      2.345
REMARK INTER + INTRA:         -11.243
REMARK INTER:                 -10.076
REMARK INTRA:                  -1.167
REMARK UNBOUND:                -1.136
REMARK  Name = 
REMARK  9 active torsions:
REMARK  status: ('A' for Active; 'I' for Inactive)
REMARK    1  A    between atoms: C_1  and  C_2
REMARK    2  A    between atoms: C_2  and  N_3
REMARK    3  A    between atoms: C_2  and  C_26
REMARK    4  A    between atoms: N_3  and  C_4
REMARK    5  A    between atoms: C_4  and  C_5
REMARK    6  A    between atoms: C_8  and  C_9
REMARK    7  A    between atoms: C_9  and  N_10
REMARK    8  A    between atoms: C_11  and  C_13
REMARK    9  A    between atoms: N_19  and  C_20
REMARK                            x       y       z     vdW  Elec       q    Type
REMARK                         _______ _______ _______ _____ _____    ______ ____
ROOT
ATOM      1  C   UNL     1      45.423   6.432  12.168  0.00  0.00    +0.000 A 
ATOM      2  C   UNL     1      46.487   5.624  12.574  0.00  0.00    +0.000 A 
ATOM      3  C   UNL     1      47.737   6.191  12.804  0.00  0.00    +0.000 A 
ATOM      4  C   UNL     1      47.899   7.559  12.618  0.00  0.00    +0.000 A 
ATOM      5  N   UNL     1      46.887   8.368  12.208  0.00  0.00    +0.000 NA
ATOM      6  C   UNL     1      45.681   7.790  12.003  0.00  0.00    +0.000 A 
ENDROOT
BRANCH   1   7
ATOM      7  C   UNL     1      44.061   5.864  11.876  0.00  0.00    +0.000 C 
BRANCH   7   8
ATOM      8  N   UNL     1      43.898   5.546  10.455  0.00  0.00    +0.000 NA
ATOM      9  H   UNL     1      43.063   6.027  10.116  0.00  0.00    +0.000 HD
BRANCH   8  11
ATOM     10  C   UNL     1      43.685   3.282  11.513  0.00  0.00    +0.000 C 
ATOM     11  C   UNL     1      43.697   4.102  10.215  0.00  0.00    +0.000 C 
BRANCH  11  12
ATOM     12  C   UNL     1      44.763   3.545   9.280  0.00  0.00    +0.000 A 
ATOM     13  C   UNL     1      45.079   2.187   9.268  0.00  0.00    +0.000 A 
ATOM     14  N   UNL     1      45.970   1.640   8.405  0.00  0.00    +0.000 NA
ATOM     15  C   UNL     1      46.552   2.511   7.553  0.00  0.00    +0.000 A 
ATOM     16  C   UNL     1      46.266   3.865   7.569  0.00  0.00    +0.000 A 
ATOM     17  N   UNL     1      45.372   4.412   8.425  0.00  0.00    +0.000 NA
ENDBRANCH  11  12
ENDBRANCH   8  11
ENDBRANCH   7   8
ENDBRANCH   1   7
BRANCH   4  18
ATOM     18  C   UNL     1      49.253   8.189  12.810  0.00  0.00    +0.000 C 
BRANCH  18  19
ATOM     19  N   UNL     1      50.040   7.459  13.771  0.00  0.00    +0.000 N 
ATOM     20  C   UNL     1      50.283   7.896  15.043  0.00  0.00    +0.000 C 
ATOM     21  O   UNL     1      49.725   8.875  15.534  0.00  0.00    +0.000 OA
ATOM     22  H   UNL     1      50.496   6.627  13.423  0.00  0.00    +0.000 HD
BRANCH  20  23
ATOM     23  C   UNL     1      51.223   7.074  15.806  0.00  0.00    +0.000 A 
ATOM     24  C   UNL     1      52.592   7.267  15.704  0.00  0.00    +0.000 A 
ATOM     25  S   UNL     1      53.492   6.239  16.730  0.00  0.00    +0.000 S 
ATOM     26  C   UNL     1      52.080   5.472  17.297  0.00  0.00    +0.000 A 
ATOM     27  N   UNL     1      52.143   4.476  18.219  0.00  0.00    +0.000 NA
ATOM     28  C   UNL     1      50.995   3.971  18.542  0.00  0.00    +0.000 A 
ATOM     29  N   UNL     1      49.778   4.355  18.023  0.00  0.00    +0.000 N 
ATOM     30  C   UNL     1      48.550   3.719  18.452  0.00  0.00    +0.000 C 
ATOM     31  C   UNL     1      49.679   5.361  17.066  0.00  0.00    +0.000 A 
ATOM     32  O   UNL     1      48.606   5.704  16.580  0.00  0.00    +0.000 OA
ATOM     33  C   UNL     1      50.944   5.981  16.709  0.00  0.00    +0.000 A 
ENDBRANCH  20  23
ENDBRANCH  18  19
ENDBRANCH   4  18
TORSDOF 7
ENDMDL
MODEL 6
REMARK VINA RESULT:    -6.644      5.096      6.729
REMARK INTER + INTRA:         -10.498
REMARK INTER:                  -9.345
REMARK INTRA:                  -1.153
REMARK UNBOUND:                -1.136
REMARK  Name = 
REMARK  9 active torsions:
REMARK  status: ('A' for Active; 'I' for Inactive)
REMARK    1  A    between atoms: C_1  and  C_2
REMARK    2  A    between atoms: C_2  and  N_3
REMARK    3  A    between atoms: C_2  and  C_26
REMARK    4  A    between atoms: N_3  and  C_4
REMARK    5  A    between atoms: C_4  and  C_5
REMARK    6  A    between atoms: C_8  and  C_9
REMARK    7  A    between atoms: C_9  and  N_10
REMARK    8  A    between atoms: C_11  and  C_13
REMARK    9  A    between atoms: N_19  and  C_20
REMARK                            x       y       z     vdW  Elec       q    Type
REMARK                         _______ _______ _______ _____ _____    ______ ____
ROOT
ATOM      1  C   UNL     1      46.000   6.492  12.350  0.00  0.00    +0.000 A 
ATOM      2  C   UNL     1      46.464   7.751  11.964  0.00  0.00    +0.000 A 
ATOM      3  C   UNL     1      47.809   8.069  12.123  0.00  0.00    +0.000 A 
ATOM      4  C   UNL     1      48.665   7.120  12.670  0.00  0.00    +0.000 A 
ATOM      5  N   UNL     1      48.238   5.893  13.070  0.00  0.00    +0.000 NA
ATOM      6  C   UNL     1      46.928   5.609  12.893  0.00  0.00    +0.000 A 
ENDROOT
BRANCH   1   7
ATOM      7  C   UNL     1      44.549   6.109  12.229  0.00  0.00    +0.000 C 
BRANCH   7   8
ATOM      8  N   UNL     1      44.129   6.004  10.829  0.00  0.00    +0.000 NA
ATOM      9  H   UNL     1      43.395   6.695  10.665  0.00  0.00    +0.000 HD
BRANCH   8  11
ATOM     10  C   UNL     1      43.260   3.841  11.754  0.00  0.00    +0.000 C 
ATOM     11  C   UNL     1      43.562   4.680  10.504  0.00  0.00    +0.000 C 
BRANCH  11  12
ATOM     12  C   UNL     1      44.487   3.894   9.584  0.00  0.00    +0.000 A 
ATOM     13  C   UNL     1      44.579   2.504   9.662  0.00  0.00    +0.000 A 
ATOM     14  N   UNL     1      45.336   1.762   8.818  0.00  0.00    +0.000 NA
ATOM     15  C   UNL     1      46.020   2.466   7.891  0.00  0.00    +0.000 A 
ATOM     16  C   UNL     1      45.957   3.847   7.816  0.00  0.00    +0.000 A 
ATOM     17  N   UNL     1      45.196   4.589   8.653  0.00  0.00    +0.000 NA
ENDBRANCH  11  12
ENDBRANCH   8  11
ENDBRANCH   7   8
ENDBRANCH   1   7
BRANCH   4  18
ATOM     18  C   UNL     1      50.114   7.457  12.901  0.00  0.00    +0.000 C 
BRANCH  18  19
ATOM     19  N   UNL     1      50.745   7.915  11.689  0.00  0.00    +0.000 N 
ATOM     20  C   UNL     1      51.912   8.628  11.662  0.00  0.00    +0.000 C 
ATOM     21  O   UNL     1      52.610   8.808  12.657  0.00  0.00    +0.000 OA
ATOM     22  H   UNL     1      50.223   7.762  10.838  0.00  0.00    +0.000 HD
BRANCH  20  23
ATOM     23  C   UNL     1      52.302   9.116  10.339  0.00  0.00    +0.000 A 
ATOM     24  C   UNL     1      52.179  10.455  10.004  0.00  0.00    +0.000 A 
ATOM     25  S   UNL     1      52.754  10.809   8.435  0.00  0.00    +0.000 S 
ATOM     26  C   UNL     1      53.132   9.174   8.141  0.00  0.00    +0.000 A 
ATOM     27  N   UNL     1      53.674   8.779   6.959  0.00  0.00    +0.000 NA
ATOM     28  C   UNL     1      53.890   7.505   6.868  0.00  0.00    +0.000 A 
ATOM     29  N   UNL     1      53.605   6.573   7.843  0.00  0.00    +0.000 N 
ATOM     30  C   UNL     1      53.883   5.167   7.635  0.00  0.00    +0.000 C 
ATOM     31  C   UNL     1      53.035   6.942   9.058  0.00  0.00    +0.000 A 
ATOM     32  O   UNL     1      52.759   6.125   9.930  0.00  0.00    +0.000 OA
ATOM     33  C   UNL     1      52.817   8.370   9.214  0.00  0.00    +0.000 A 
ENDBRANCH  20  23
ENDBRANCH  18  19
ENDBRANCH   4  18
TORSDOF 7
ENDMDL
MODEL 7
REMARK VINA RESULT:    -6.588      3.755      8.882
REMARK INTER + INTRA:         -10.420
REMARK INTER:                  -9.058
REMARK INTRA:                  -1.362
REMARK UNBOUND:                -1.136
REMARK  Name = 
REMARK  9 active torsions:
REMARK  status: ('A' for Active; 'I' for Inactive)
REMARK    1  A    between atoms: C_1  and  C_2
REMARK    2  A    between atoms: C_2  and  N_3
REMARK    3  A    between atoms: C_2  and  C_26
REMARK    4  A    between atoms: N_3  and  C_4
REMARK    5  A    between atoms: C_4  and  C_5
REMARK    6  A    between atoms: C_8  and  C_9
REMARK    7  A    between atoms: C_9  and  N_10
REMARK    8  A    between atoms: C_11  and  C_13
REMARK    9  A    between atoms: N_19  and  C_20
REMARK                            x       y       z     vdW  Elec       q    Type
REMARK                         _______ _______ _______ _____ _____    ______ ____
ROOT
ATOM      1  C   UNL     1      51.217   3.803  18.450  0.00  0.00    +0.000 A 
ATOM      2  C   UNL     1      50.214   4.597  19.010  0.00  0.00    +0.000 A 
ATOM      3  C   UNL     1      48.905   4.477  18.554  0.00  0.00    +0.000 A 
ATOM      4  C   UNL     1      48.625   3.567  17.541  0.00  0.00    +0.000 A 
ATOM      5  N   UNL     1      49.583   2.794  16.966  0.00  0.00    +0.000 NA
ATOM      6  C   UNL     1      50.844   2.925  17.437  0.00  0.00    +0.000 A 
ENDROOT
BRANCH   1   7
ATOM      7  C   UNL     1      52.654   3.916  18.884  0.00  0.00    +0.000 C 
BRANCH   7   8
ATOM      8  N   UNL     1      53.221   5.225  18.552  0.00  0.00    +0.000 NA
ATOM      9  H   UNL     1      52.599   5.944  18.924  0.00  0.00    +0.000 HD
BRANCH   8  11
ATOM     10  C   UNL     1      54.778   5.569  16.617  0.00  0.00    +0.000 C 
ATOM     11  C   UNL     1      53.324   5.448  17.096  0.00  0.00    +0.000 C 
BRANCH  11  12
ATOM     12  C   UNL     1      52.551   6.690  16.673  0.00  0.00    +0.000 A 
ATOM     13  C   UNL     1      53.060   7.970  16.891  0.00  0.00    +0.000 A 
ATOM     14  N   UNL     1      52.437   9.098  16.468  0.00  0.00    +0.000 NA
ATOM     15  C   UNL     1      51.267   8.901  15.825  0.00  0.00    +0.000 A 
ATOM     16  C   UNL     1      50.737   7.638  15.623  0.00  0.00    +0.000 A 
ATOM     17  N   UNL     1      51.361   6.511  16.038  0.00  0.00    +0.000 NA
ENDBRANCH  11  12
ENDBRANCH   8  11
ENDBRANCH   7   8
ENDBRANCH   1   7
BRANCH   4  18
ATOM     18  C   UNL     1      47.226   3.456  16.995  0.00  0.00    +0.000 C 
BRANCH  18  19
ATOM     19  N   UNL     1      46.979   4.448  15.979  0.00  0.00    +0.000 N 
ATOM     20  C   UNL     1      47.151   4.225  14.641  0.00  0.00    +0.000 C 
ATOM     21  O   UNL     1      47.381   3.113  14.171  0.00  0.00    +0.000 OA
ATOM     22  H   UNL     1      46.755   5.374  16.316  0.00  0.00    +0.000 HD
BRANCH  20  23
ATOM     23  C   UNL     1      46.983   5.407  13.796  0.00  0.00    +0.000 A 
ATOM     24  C   UNL     1      47.989   6.354  13.678  0.00  0.00    +0.000 A 
ATOM     25  S   UNL     1      47.600   7.613  12.590  0.00  0.00    +0.000 S 
ATOM     26  C   UNL     1      46.057   6.955  12.289  0.00  0.00    +0.000 A 
ATOM     27  N   UNL     1      45.193   7.555  11.429  0.00  0.00    +0.000 NA
ATOM     28  C   UNL     1      44.050   6.956  11.313  0.00  0.00    +0.000 A 
ATOM     29  N   UNL     1      43.673   5.815  11.986  0.00  0.00    +0.000 N 
ATOM     30  C   UNL     1      42.364   5.229  11.785  0.00  0.00    +0.000 C 
ATOM     31  C   UNL     1      44.527   5.185  12.886  0.00  0.00    +0.000 A 
ATOM     32  O   UNL     1      44.203   4.178  13.508  0.00  0.00    +0.000 OA
ATOM     33  C   UNL     1      45.837   5.803  13.011  0.00  0.00    +0.000 A 
ENDBRANCH  20  23
ENDBRANCH  18  19
ENDBRANCH   4  18
TORSDOF 7
ENDMDL
MODEL 8
REMARK VINA RESULT:    -6.472      2.047      2.653
REMARK INTER + INTRA:         -10.256
REMARK INTER:                  -9.306
REMARK INTRA:                  -0.951
REMARK UNBOUND:                -1.136
REMARK  Name = 
REMARK  9 active torsions:
REMARK  status: ('A' for Active; 'I' for Inactive)
REMARK    1  A    between atoms: C_1  and  C_2
REMARK    2  A    between atoms: C_2  and  N_3
REMARK    3  A    between atoms: C_2  and  C_26
REMARK    4  A    between atoms: N_3  and  C_4
REMARK    5  A    between atoms: C_4  and  C_5
REMARK    6  A    between atoms: C_8  and  C_9
REMARK    7  A    between atoms: C_9  and  N_10
REMARK    8  A    between atoms: C_11  and  C_13
REMARK    9  A    between atoms: N_19  and  C_20
REMARK                            x       y       z     vdW  Elec       q    Type
REMARK                         _______ _______ _______ _____ _____    ______ ____
ROOT
ATOM      1  C   UNL     1      45.589   6.642  12.160  0.00  0.00    +0.000 A 
ATOM      2  C   UNL     1      45.609   7.895  12.778  0.00  0.00    +0.000 A 
ATOM      3  C   UNL     1      46.733   8.293  13.495  0.00  0.00    +0.000 A 
ATOM      4  C   UNL     1      47.816   7.426  13.583  0.00  0.00    +0.000 A 
ATOM      5  N   UNL     1      47.819   6.196  13.007  0.00  0.00    +0.000 NA
ATOM      6  C   UNL     1      46.717   5.841  12.308  0.00  0.00    +0.000 A 
ENDROOT
BRANCH   1   7
ATOM      7  C   UNL     1      44.387   6.151  11.401  0.00  0.00    +0.000 C 
BRANCH   7   8
ATOM      8  N   UNL     1      44.746   5.671  10.064  0.00  0.00    +0.000 NA
ATOM      9  H   UNL     1      44.361   6.324   9.379  0.00  0.00    +0.000 HD
BRANCH   8  11
ATOM     10  C   UNL     1      43.795   3.563  11.031  0.00  0.00    +0.000 C 
ATOM     11  C   UNL     1      44.179   4.341   9.765  0.00  0.00    +0.000 C 
BRANCH  11  12
ATOM     12  C   UNL     1      45.145   3.504   8.935  0.00  0.00    +0.000 A 
ATOM     13  C   UNL     1      45.287   2.134   9.152  0.00  0.00    +0.000 A 
ATOM     14  N   UNL     1      46.082   1.341   8.392  0.00  0.00    +0.000 NA
ATOM     15  C   UNL     1      46.749   1.976   7.405  0.00  0.00    +0.000 A 
ATOM     16  C   UNL     1      46.636   3.339   7.193  0.00  0.00    +0.000 A 
ATOM     17  N   UNL     1      45.838   4.131   7.946  0.00  0.00    +0.000 NA
ENDBRANCH  11  12
ENDBRANCH   8  11
ENDBRANCH   7   8
ENDBRANCH   1   7
BRANCH   4  18
ATOM     18  C   UNL     1      49.024   7.812  14.396  0.00  0.00    +0.000 C 
BRANCH  18  19
ATOM     19  N   UNL     1      49.125   7.020  15.595  0.00  0.00    +0.000 N 
ATOM     20  C   UNL     1      48.805   7.483  16.841  0.00  0.00    +0.000 C 
ATOM     21  O   UNL     1      48.255   8.565  17.034  0.00  0.00    +0.000 OA
ATOM     22  H   UNL     1      49.544   6.108  15.484  0.00  0.00    +0.000 HD
BRANCH  20  23
ATOM     23  C   UNL     1      49.117   6.564  17.936  0.00  0.00    +0.000 A 
ATOM     24  C   UNL     1      48.178   5.653  18.397  0.00  0.00    +0.000 A 
ATOM     25  S   UNL     1      48.780   4.639  19.633  0.00  0.00    +0.000 S 
ATOM     26  C   UNL     1      50.292   5.425  19.623  0.00  0.00    +0.000 A 
ATOM     27  N   UNL     1      51.291   5.038  20.458  0.00  0.00    +0.000 NA
ATOM     28  C   UNL     1      52.376   5.737  20.356  0.00  0.00    +0.000 A 
ATOM     29  N   UNL     1      52.563   6.804  19.504  0.00  0.00    +0.000 N 
ATOM     30  C   UNL     1      53.821   7.522  19.473  0.00  0.00    +0.000 C 
ATOM     31  C   UNL     1      51.556   7.236  18.646  0.00  0.00    +0.000 A 
ATOM     32  O   UNL     1      51.698   8.194  17.893  0.00  0.00    +0.000 OA
ATOM     33  C   UNL     1      50.336   6.448  18.702  0.00  0.00    +0.000 A 
ENDBRANCH  20  23
ENDBRANCH  18  19
ENDBRANCH   4  18
TORSDOF 7
ENDMDL
MODEL 9
REMARK VINA RESULT:    -6.280      2.115      2.579
REMARK INTER + INTRA:          -9.985
REMARK INTER:                  -9.064
REMARK INTRA:                  -0.921
REMARK UNBOUND:                -1.136
REMARK  Name = 
REMARK  9 active torsions:
REMARK  status: ('A' for Active; 'I' for Inactive)
REMARK    1  A    between atoms: C_1  and  C_2
REMARK    2  A    between atoms: C_2  and  N_3
REMARK    3  A    between atoms: C_2  and  C_26
REMARK    4  A    between atoms: N_3  and  C_4
REMARK    5  A    between atoms: C_4  and  C_5
REMARK    6  A    between atoms: C_8  and  C_9
REMARK    7  A    between atoms: C_9  and  N_10
REMARK    8  A    between atoms: C_11  and  C_13
REMARK    9  A    between atoms: N_19  and  C_20
REMARK                            x       y       z     vdW  Elec       q    Type
REMARK                         _______ _______ _______ _____ _____    ______ ____
ROOT
ATOM      1  C   UNL     1      47.528   6.960  12.287  0.00  0.00    +0.000 A 
ATOM      2  C   UNL     1      48.448   7.817  11.677  0.00  0.00    +0.000 A 
ATOM      3  C   UNL     1      49.628   8.144  12.337  0.00  0.00    +0.000 A 
ATOM      4  C   UNL     1      49.864   7.610  13.598  0.00  0.00    +0.000 A 
ATOM      5  N   UNL     1      48.981   6.788  14.223  0.00  0.00    +0.000 NA
ATOM      6  C   UNL     1      47.848   6.479  13.553  0.00  0.00    +0.000 A 
ENDROOT
BRANCH   1   7
ATOM      7  C   UNL     1      46.223   6.600  11.631  0.00  0.00    +0.000 C 
BRANCH   7   8
ATOM      8  N   UNL     1      45.823   5.224  11.934  0.00  0.00    +0.000 NA
ATOM      9  H   UNL     1      46.601   4.608  11.693  0.00  0.00    +0.000 HD
BRANCH   8  11
ATOM     10  C   UNL     1      43.689   3.908  11.951  0.00  0.00    +0.000 C 
ATOM     11  C   UNL     1      44.656   4.783  11.142  0.00  0.00    +0.000 C 
BRANCH  11  12
ATOM     12  C   UNL     1      45.091   4.028   9.893  0.00  0.00    +0.000 A 
ATOM     13  C   UNL     1      45.553   4.702   8.763  0.00  0.00    +0.000 A 
ATOM     14  N   UNL     1      46.014   4.068   7.657  0.00  0.00    +0.000 NA
ATOM     15  C   UNL     1      45.984   2.719   7.715  0.00  0.00    +0.000 A 
ATOM     16  C   UNL     1      45.505   2.037   8.820  0.00  0.00    +0.000 A 
ATOM     17  N   UNL     1      45.052   2.669   9.927  0.00  0.00    +0.000 NA
ENDBRANCH  11  12
ENDBRANCH   8  11
ENDBRANCH   7   8
ENDBRANCH   1   7
BRANCH   4  18
ATOM     18  C   UNL     1      51.110   7.990  14.354  0.00  0.00    +0.000 C 
BRANCH  18  19
ATOM     19  N   UNL     1      50.947   7.786  15.771  0.00  0.00    +0.000 N 
ATOM     20  C   UNL     1      51.727   6.943  16.513  0.00  0.00    +0.000 C 
ATOM     21  O   UNL     1      52.737   6.401  16.070  0.00  0.00    +0.000 OA
ATOM     22  H   UNL     1      50.146   8.237  16.189  0.00  0.00    +0.000 HD
BRANCH  20  23
ATOM     23  C   UNL     1      51.300   6.775  17.902  0.00  0.00    +0.000 A 
ATOM     24  C   UNL     1      51.829   7.562  18.915  0.00  0.00    +0.000 A 
ATOM     25  S   UNL     1      51.139   7.238  20.444  0.00  0.00    +0.000 S 
ATOM     26  C   UNL     1      50.156   6.002  19.804  0.00  0.00    +0.000 A 
ATOM     27  N   UNL     1      49.301   5.303  20.596  0.00  0.00    +0.000 NA
ATOM     28  C   UNL     1      48.631   4.382  19.979  0.00  0.00    +0.000 A 
ATOM     29  N   UNL     1      48.740   4.074  18.640  0.00  0.00    +0.000 N 
ATOM     30  C   UNL     1      47.945   3.017  18.051  0.00  0.00    +0.000 C 
ATOM     31  C   UNL     1      49.617   4.760  17.805  0.00  0.00    +0.000 A 
ATOM     32  O   UNL     1      49.739   4.489  16.614  0.00  0.00    +0.000 OA
ATOM     33  C   UNL     1      50.355   5.832  18.452  0.00  0.00    +0.000 A 
ENDBRANCH  20  23
ENDBRANCH  18  19
ENDBRANCH   4  18
TORSDOF 7
ENDMDL
