MODEL 1
REMARK VINA RESULT:    -8.933      0.000      0.000
REMARK INTER + INTRA:         -12.094
REMARK INTER:                 -11.022
REMARK INTRA:                  -1.072
REMARK UNBOUND:                -1.072
REMARK  Name = 
REMARK  4 active torsions:
REMARK  status: ('A' for Active; 'I' for Inactive)
REMARK    1  A    between atoms: C_2  and  C_4
REMARK    2  A    between atoms: N_8  and  C_9
REMARK    3  A    between atoms: C_9  and  C_10
REMARK    4  A    between atoms: C_14  and  C_15
REMARK                            x       y       z     vdW  Elec       q    Type
REMARK                         _______ _______ _______ _____ _____    ______ ____
ROOT
ATOM      1  C   UNL     1      43.832   4.826  11.360  0.00  0.00    +0.000 C 
ATOM      2  C   UNL     1      42.444   5.158  11.889  0.00  0.00    +0.000 C 
ATOM      3  C   UNL     1      43.156   6.139  11.019  0.00  0.00    +0.000 C 
ENDROOT
BRANCH   1   8
ATOM      4  C   UNL     1      46.593   2.743   7.467  0.00  0.00    +0.000 A 
ATOM      5  C   UNL     1      46.261   4.079   7.679  0.00  0.00    +0.000 A 
ATOM      6  C   UNL     1      45.382   4.414   8.705  0.00  0.00    +0.000 A 
ATOM      7  C   UNL     1      44.836   3.410   9.498  0.00  0.00    +0.000 A 
ATOM      8  N   UNL     1      43.860   3.648  10.468  0.00  0.00    +0.000 N 
ATOM      9  N   UNL     1      45.154   2.110   9.306  0.00  0.00    +0.000 NA
ATOM     10  C   UNL     1      46.011   1.801   8.299  0.00  0.00    +0.000 A 
ATOM     11  H   UNL     1      43.732   2.753  10.937  0.00  0.00    +0.000 HD
BRANCH   4  13
ATOM     12  N   UNL     1      47.410   2.979   5.192  0.00  0.00    +0.000 N 
ATOM     13  C   UNL     1      47.481   2.299   6.376  0.00  0.00    +0.000 C 
ATOM     14  O   UNL     1      48.268   1.375   6.527  0.00  0.00    +0.000 OA
ATOM     15  H   UNL     1      48.077   2.716   4.478  0.00  0.00    +0.000 HD
ATOM     16  H   UNL     1      46.958   3.879   5.102  0.00  0.00    +0.000 HD
ENDBRANCH   4  13
ENDBRANCH   1   8
BRANCH   1  17
ATOM     17  C   UNL     1      45.029   4.864  12.303  0.00  0.00    +0.000 A 
ATOM     18  C   UNL     1      45.567   3.694  12.865  0.00  0.00    +0.000 A 
ATOM     19  C   UNL     1      46.766   3.716  13.576  0.00  0.00    +0.000 A 
ATOM     20  C   UNL     1      47.465   4.911  13.722  0.00  0.00    +0.000 A 
ATOM     21  C   UNL     1      46.961   6.102  13.183  0.00  0.00    +0.000 A 
ATOM     22  C   UNL     1      45.727   6.068  12.517  0.00  0.00    +0.000 A 
BRANCH  21  23
ATOM     23  C   UNL     1      47.783   7.377  13.171  0.00  0.00    +0.000 C 
ATOM     24  C   UNL     1      48.331   7.628  11.752  0.00  0.00    +0.000 C 
ATOM     25  C   UNL     1      49.320   8.786  11.726  0.00  0.00    +0.000 C 
ATOM     26  C   UNL     1      50.362   8.616  12.819  0.00  0.00    +0.000 C 
ATOM     27  O   UNL     1      49.726   8.549  14.096  0.00  0.00    +0.000 OA
ATOM     28  C   UNL     1      48.902   7.386  14.220  0.00  0.00    +0.000 C 
ENDBRANCH  21  23
ENDBRANCH   1  17
TORSDOF 4
ENDMDL
MODEL 2
REMARK VINA RESULT:    -8.448      1.584      2.800
REMARK INTER + INTRA:         -11.496
REMARK INTER:                 -10.862
REMARK INTRA:                  -0.633
REMARK UNBOUND:                -1.072
REMARK  Name = 
REMARK  4 active torsions:
REMARK  status: ('A' for Active; 'I' for Inactive)
REMARK    1  A    between atoms: C_2  and  C_4
REMARK    2  A    between atoms: N_8  and  C_9
REMARK    3  A    between atoms: C_9  and  C_10
REMARK    4  A    between atoms: C_14  and  C_15
REMARK                            x       y       z     vdW  Elec       q    Type
REMARK                         _______ _______ _______ _____ _____    ______ ____
ROOT
ATOM      1  C   UNL     1      43.962   4.871  11.507  0.00  0.00    +0.000 C 
ATOM      2  C   UNL     1      42.872   4.865  12.569  0.00  0.00    +0.000 C 
ATOM      3  C   UNL     1      42.836   5.886  11.482  0.00  0.00    +0.000 C 
ENDROOT
BRANCH   1   8
ATOM      4  C   UNL     1      46.481   2.748   7.473  0.00  0.00    +0.000 A 
ATOM      5  C   UNL     1      46.068   4.067   7.643  0.00  0.00    +0.000 A 
ATOM      6  C   UNL     1      45.270   4.403   8.734  0.00  0.00    +0.000 A 
ATOM      7  C   UNL     1      44.885   3.415   9.633  0.00  0.00    +0.000 A 
ATOM      8  N   UNL     1      43.993   3.644  10.684  0.00  0.00    +0.000 N 
ATOM      9  N   UNL     1      45.283   2.132   9.484  0.00  0.00    +0.000 NA
ATOM     10  C   UNL     1      46.059   1.822   8.413  0.00  0.00    +0.000 A 
ATOM     11  H   UNL     1      43.982   2.773  11.213  0.00  0.00    +0.000 HD
BRANCH   4  13
ATOM     12  N   UNL     1      47.142   2.983   5.148  0.00  0.00    +0.000 N 
ATOM     13  C   UNL     1      47.289   2.300   6.324  0.00  0.00    +0.000 C 
ATOM     14  O   UNL     1      48.080   1.372   6.420  0.00  0.00    +0.000 OA
ATOM     15  H   UNL     1      47.757   2.717   4.390  0.00  0.00    +0.000 HD
ATOM     16  H   UNL     1      46.690   3.886   5.090  0.00  0.00    +0.000 HD
ENDBRANCH   4  13
ENDBRANCH   1   8
BRANCH   1  17
ATOM     17  C   UNL     1      45.359   5.365  11.861  0.00  0.00    +0.000 A 
ATOM     18  C   UNL     1      45.934   6.479  11.227  0.00  0.00    +0.000 A 
ATOM     19  C   UNL     1      47.130   7.034  11.679  0.00  0.00    +0.000 A 
ATOM     20  C   UNL     1      47.768   6.495  12.794  0.00  0.00    +0.000 A 
ATOM     21  C   UNL     1      47.232   5.381  13.452  0.00  0.00    +0.000 A 
ATOM     22  C   UNL     1      46.056   4.805  12.948  0.00  0.00    +0.000 A 
BRANCH  21  23
ATOM     23  C   UNL     1      47.805   4.885  14.766  0.00  0.00    +0.000 C 
ATOM     24  C   UNL     1      46.756   4.024  15.497  0.00  0.00    +0.000 C 
ATOM     25  C   UNL     1      47.205   3.662  16.906  0.00  0.00    +0.000 C 
ATOM     26  C   UNL     1      47.677   4.904  17.646  0.00  0.00    +0.000 C 
ATOM     27  O   UNL     1      48.752   5.518  16.936  0.00  0.00    +0.000 OA
ATOM     28  C   UNL     1      48.333   6.014  15.660  0.00  0.00    +0.000 C 
ENDBRANCH  21  23
ENDBRANCH   1  17
TORSDOF 4
ENDMDL
MODEL 3
REMARK VINA RESULT:    -7.054      2.974      6.794
REMARK INTER + INTRA:          -9.775
REMARK INTER:                  -8.627
REMARK INTRA:                  -1.149
REMARK UNBOUND:                -1.072
REMARK  Name = 
REMARK  4 active torsions:
REMARK  status: ('A' for Active; 'I' for Inactive)
REMARK    1  A    between atoms: C_2  and  C_4
REMARK    2  A    between atoms: N_8  and  C_9
REMARK    3  A    between atoms: C_9  and  C_10
REMARK    4  A    between atoms: C_14  and  C_15
REMARK                            x       y       z     vdW  Elec       q    Type
REMARK                         _______ _______ _______ _____ _____    ______ ____
ROOT
ATOM      1  C   UNL     1      46.454   5.063  13.706  0.00  0.00    +0.000 C 
ATOM      2  C   UNL     1      46.560   4.125  14.900  0.00  0.00    +0.000 C 
ATOM      3  C   UNL     1      47.492   3.959  13.746  0.00  0.00    +0.000 C 
ENDROOT
BRANCH   1   8
ATOM      4  C   UNL     1      48.554   9.375  11.677  0.00  0.00    +0.000 A 
ATOM      5  C   UNL     1      48.999   8.060  11.572  0.00  0.00    +0.000 A 
ATOM      6  C   UNL     1      48.378   7.062  12.319  0.00  0.00    +0.000 A 
ATOM      7  C   UNL     1      47.329   7.393  13.169  0.00  0.00    +0.000 A 
ATOM      8  N   UNL     1      46.730   6.476  14.037  0.00  0.00    +0.000 N 
ATOM      9  N   UNL     1      46.883   8.665  13.277  0.00  0.00    +0.000 NA
ATOM     10  C   UNL     1      47.503   9.625  12.544  0.00  0.00    +0.000 A 
ATOM     11  H   UNL     1      45.947   6.980  14.452  0.00  0.00    +0.000 HD
BRANCH   4  13
ATOM     12  N   UNL     1      50.551  10.524  10.908  0.00  0.00    +0.000 N 
ATOM     13  C   UNL     1      49.185  10.497  10.957  0.00  0.00    +0.000 C 
ATOM     14  O   UNL     1      48.516  11.359  10.402  0.00  0.00    +0.000 OA
ATOM     15  H   UNL     1      50.970  11.254  10.346  0.00  0.00    +0.000 HD
ATOM     16  H   UNL     1      51.124   9.724  11.139  0.00  0.00    +0.000 HD
ENDBRANCH   4  13
ENDBRANCH   1   8
BRANCH   1  17
ATOM     17  C   UNL     1      45.294   4.915  12.729  0.00  0.00    +0.000 A 
ATOM     18  C   UNL     1      44.062   5.557  12.941  0.00  0.00    +0.000 A 
ATOM     19  C   UNL     1      43.071   5.566  11.960  0.00  0.00    +0.000 A 
ATOM     20  C   UNL     1      43.302   4.948  10.734  0.00  0.00    +0.000 A 
ATOM     21  C   UNL     1      44.514   4.292  10.484  0.00  0.00    +0.000 A 
ATOM     22  C   UNL     1      45.477   4.248  11.504  0.00  0.00    +0.000 A 
BRANCH  21  23
ATOM     23  C   UNL     1      44.862   3.768   9.103  0.00  0.00    +0.000 C 
ATOM     24  C   UNL     1      45.393   2.325   9.215  0.00  0.00    +0.000 C 
ATOM     25  C   UNL     1      45.939   1.820   7.887  0.00  0.00    +0.000 C 
ATOM     26  C   UNL     1      46.899   2.836   7.289  0.00  0.00    +0.000 C 
ATOM     27  O   UNL     1      46.234   4.084   7.097  0.00  0.00    +0.000 OA
ATOM     28  C   UNL     1      45.838   4.673   8.340  0.00  0.00    +0.000 C 
ENDBRANCH  21  23
ENDBRANCH   1  17
TORSDOF 4
ENDMDL
MODEL 4
REMARK VINA RESULT:    -6.570      3.248      5.658
REMARK INTER + INTRA:          -9.179
REMARK INTER:                  -8.607
REMARK INTRA:                  -0.572
REMARK UNBOUND:                -1.072
REMARK  Name = 
REMARK  4 active torsions:
REMARK  status: ('A' for Active; 'I' for Inactive)
REMARK    1  A    between atoms: C_2  and  C_4
REMARK    2  A    between atoms: N_8  and  C_9
REMARK    3  A    between atoms: C_9  and  C_10
REMARK    4  A    between atoms: C_14  and  C_15
REMARK                            x       y       z     vdW  Elec       q    Type
REMARK                         _______ _______ _______ _____ _____    ______ ____
ROOT
ATOM      1  C   UNL     1      47.756   8.342  13.035  0.00  0.00    +0.000 C 
ATOM      2  C   UNL     1      47.863   9.846  12.829  0.00  0.00    +0.000 C 
ATOM      3  C   UNL     1      48.367   8.920  11.773  0.00  0.00    +0.000 C 
ENDROOT
BRANCH   1   8
ATOM      4  C   UNL     1      44.632   4.563  11.279  0.00  0.00    +0.000 A 
ATOM      5  C   UNL     1      45.602   5.281  10.585  0.00  0.00    +0.000 A 
ATOM      6  C   UNL     1      46.230   6.361  11.199  0.00  0.00    +0.000 A 
ATOM      7  C   UNL     1      45.871   6.718  12.494  0.00  0.00    +0.000 A 
ATOM      8  N   UNL     1      46.364   7.856  13.138  0.00  0.00    +0.000 N 
ATOM      9  N   UNL     1      44.934   6.028  13.181  0.00  0.00    +0.000 NA
ATOM     10  C   UNL     1      44.330   4.978  12.565  0.00  0.00    +0.000 A 
ATOM     11  H   UNL     1      46.000   7.799  14.088  0.00  0.00    +0.000 HD
BRANCH   4  13
ATOM     12  N   UNL     1      44.195   3.087   9.401  0.00  0.00    +0.000 N 
ATOM     13  C   UNL     1      43.889   3.435  10.687  0.00  0.00    +0.000 C 
ATOM     14  O   UNL     1      43.049   2.816  11.326  0.00  0.00    +0.000 OA
ATOM     15  H   UNL     1      43.735   2.264   9.033  0.00  0.00    +0.000 HD
ATOM     16  H   UNL     1      45.030   3.407   8.929  0.00  0.00    +0.000 HD
ENDBRANCH   4  13
ENDBRANCH   1   8
BRANCH   1  17
ATOM     17  C   UNL     1      48.685   7.647  14.023  0.00  0.00    +0.000 A 
ATOM     18  C   UNL     1      49.998   8.094  14.244  0.00  0.00    +0.000 A 
ATOM     19  C   UNL     1      50.778   7.571  15.275  0.00  0.00    +0.000 A 
ATOM     20  C   UNL     1      50.249   6.601  16.122  0.00  0.00    +0.000 A 
ATOM     21  C   UNL     1      48.947   6.123  15.932  0.00  0.00    +0.000 A 
ATOM     22  C   UNL     1      48.197   6.623  14.857  0.00  0.00    +0.000 A 
BRANCH  21  23
ATOM     23  C   UNL     1      48.285   5.202  16.941  0.00  0.00    +0.000 C 
ATOM     24  C   UNL     1      49.354   4.322  17.618  0.00  0.00    +0.000 C 
ATOM     25  C   UNL     1      48.726   3.246  18.495  0.00  0.00    +0.000 C 
ATOM     26  C   UNL     1      47.643   2.505  17.728  0.00  0.00    +0.000 C 
ATOM     27  O   UNL     1      46.640   3.420  17.289  0.00  0.00    +0.000 OA
ATOM     28  C   UNL     1      47.154   4.358  16.338  0.00  0.00    +0.000 C 
ENDBRANCH  21  23
ENDBRANCH   1  17
TORSDOF 4
ENDMDL
MODEL 5
REMARK VINA RESULT:    -6.332      1.434      2.432
REMARK INTER + INTRA:          -8.885
REMARK INTER:                  -8.888
REMARK INTRA:                   0.003
REMARK UNBOUND:                -1.072
REMARK  Name = 
REMARK  4 active torsions:
REMARK  status: ('A' for Active; 'I' for Inactive)
REMARK    1  A    between atoms: C_2  and  C_4
REMARK    2  A    between atoms: N_8  and  C_9
REMARK    3  A    between atoms: C_9  and  C_10
REMARK    4  A    between atoms: C_14  and  C_15
REMARK                            x       y       z     vdW  Elec       q    Type
REMARK                         _______ _______ _______ _____ _____    ______ ____
ROOT
ATOM      1  C   UNL     1      44.138   4.041  11.850  0.00  0.00    +0.000 C 
ATOM      2  C   UNL     1      45.031   3.406  12.906  0.00  0.00    +0.000 C 
ATOM      3  C   UNL     1      43.592   3.659  13.212  0.00  0.00    +0.000 C 
ENDROOT
BRANCH   1   8
ATOM      4  C   UNL     1      46.514   2.983   7.338  0.00  0.00    +0.000 A 
ATOM      5  C   UNL     1      46.375   4.211   7.980  0.00  0.00    +0.000 A 
ATOM      6  C   UNL     1      45.569   4.308   9.111  0.00  0.00    +0.000 A 
ATOM      7  C   UNL     1      44.902   3.182   9.578  0.00  0.00    +0.000 A 
ATOM      8  N   UNL     1      43.985   3.218  10.632  0.00  0.00    +0.000 N 
ATOM      9  N   UNL     1      45.031   1.983   8.968  0.00  0.00    +0.000 NA
ATOM     10  C   UNL     1      45.819   1.906   7.865  0.00  0.00    +0.000 A 
ATOM     11  H   UNL     1      43.740   2.244  10.801  0.00  0.00    +0.000 HD
BRANCH   4  13
ATOM     12  N   UNL     1      48.635   2.494   6.261  0.00  0.00    +0.000 N 
ATOM     13  C   UNL     1      47.311   2.803   6.111  0.00  0.00    +0.000 C 
ATOM     14  O   UNL     1      46.808   2.898   5.000  0.00  0.00    +0.000 OA
ATOM     15  H   UNL     1      49.153   2.296   5.414  0.00  0.00    +0.000 HD
ATOM     16  H   UNL     1      49.029   2.176   7.136  0.00  0.00    +0.000 HD
ENDBRANCH   4  13
ENDBRANCH   1   8
BRANCH   1  17
ATOM     17  C   UNL     1      44.283   5.524  11.531  0.00  0.00    +0.000 A 
ATOM     18  C   UNL     1      43.189   6.301  11.112  0.00  0.00    +0.000 A 
ATOM     19  C   UNL     1      43.287   7.687  10.997  0.00  0.00    +0.000 A 
ATOM     20  C   UNL     1      44.480   8.329  11.322  0.00  0.00    +0.000 A 
ATOM     21  C   UNL     1      45.595   7.591  11.737  0.00  0.00    +0.000 A 
ATOM     22  C   UNL     1      45.493   6.193  11.794  0.00  0.00    +0.000 A 
BRANCH  21  23
ATOM     23  C   UNL     1      46.844   8.272  12.265  0.00  0.00    +0.000 C 
ATOM     24  C   UNL     1      46.768   9.785  11.984  0.00  0.00    +0.000 C 
ATOM     25  C   UNL     1      48.078  10.487  12.316  0.00  0.00    +0.000 C 
ATOM     26  C   UNL     1      49.248   9.753  11.683  0.00  0.00    +0.000 C 
ATOM     27  O   UNL     1      49.288   8.404  12.147  0.00  0.00    +0.000 OA
ATOM     28  C   UNL     1      48.142   7.659  11.723  0.00  0.00    +0.000 C 
ENDBRANCH  21  23
ENDBRANCH   1  17
TORSDOF 4
ENDMDL
MODEL 6
REMARK VINA RESULT:    -6.326      4.221      8.453
REMARK INTER + INTRA:          -8.877
REMARK INTER:                  -7.925
REMARK INTRA:                  -0.952
REMARK UNBOUND:                -1.072
REMARK  Name = 
REMARK  4 active torsions:
REMARK  status: ('A' for Active; 'I' for Inactive)
REMARK    1  A    between atoms: C_2  and  C_4
REMARK    2  A    between atoms: N_8  and  C_9
REMARK    3  A    between atoms: C_9  and  C_10
REMARK    4  A    between atoms: C_14  and  C_15
REMARK                            x       y       z     vdW  Elec       q    Type
REMARK                         _______ _______ _______ _____ _____    ______ ____
ROOT
ATOM      1  C   UNL     1      49.195   8.135  12.617  0.00  0.00    +0.000 C 
ATOM      2  C   UNL     1      50.060   8.211  11.367  0.00  0.00    +0.000 C 
ATOM      3  C   UNL     1      49.735   9.460  12.116  0.00  0.00    +0.000 C 
ENDROOT
BRANCH   1   8
ATOM      4  C   UNL     1      48.705   7.218  17.720  0.00  0.00    +0.000 A 
ATOM      5  C   UNL     1      48.579   8.426  17.039  0.00  0.00    +0.000 A 
ATOM      6  C   UNL     1      48.899   8.488  15.685  0.00  0.00    +0.000 A 
ATOM      7  C   UNL     1      49.352   7.346  15.033  0.00  0.00    +0.000 A 
ATOM      8  N   UNL     1      49.804   7.349  13.711  0.00  0.00    +0.000 N 
ATOM      9  N   UNL     1      49.474   6.166  15.681  0.00  0.00    +0.000 NA
ATOM     10  C   UNL     1      49.160   6.125  17.002  0.00  0.00    +0.000 A 
ATOM     11  H   UNL     1      49.976   6.370  13.490  0.00  0.00    +0.000 HD
BRANCH   4  13
ATOM     12  N   UNL     1      49.258   7.736  20.028  0.00  0.00    +0.000 N 
ATOM     13  C   UNL     1      48.430   7.076  19.162  0.00  0.00    +0.000 C 
ATOM     14  O   UNL     1      47.485   6.417  19.572  0.00  0.00    +0.000 OA
ATOM     15  H   UNL     1      49.013   7.695  21.009  0.00  0.00    +0.000 HD
ATOM     16  H   UNL     1      49.889   8.469  19.733  0.00  0.00    +0.000 HD
ENDBRANCH   4  13
ENDBRANCH   1   8
BRANCH   1  17
ATOM     17  C   UNL     1      47.699   7.880  12.487  0.00  0.00    +0.000 A 
ATOM     18  C   UNL     1      46.790   8.920  12.231  0.00  0.00    +0.000 A 
ATOM     19  C   UNL     1      45.453   8.659  11.933  0.00  0.00    +0.000 A 
ATOM     20  C   UNL     1      45.002   7.343  11.863  0.00  0.00    +0.000 A 
ATOM     21  C   UNL     1      45.874   6.277  12.116  0.00  0.00    +0.000 A 
ATOM     22  C   UNL     1      47.202   6.563  12.467  0.00  0.00    +0.000 A 
BRANCH  21  23
ATOM     23  C   UNL     1      45.458   4.838  11.874  0.00  0.00    +0.000 C 
ATOM     24  C   UNL     1      44.695   4.737  10.538  0.00  0.00    +0.000 C 
ATOM     25  C   UNL     1      44.086   3.355  10.339  0.00  0.00    +0.000 C 
ATOM     26  C   UNL     1      43.314   2.934  11.579  0.00  0.00    +0.000 C 
ATOM     27  O   UNL     1      44.178   2.925  12.715  0.00  0.00    +0.000 OA
ATOM     28  C   UNL     1      44.653   4.237  13.033  0.00  0.00    +0.000 C 
ENDBRANCH  21  23
ENDBRANCH   1  17
TORSDOF 4
ENDMDL
MODEL 7
REMARK VINA RESULT:    -6.206      4.059      6.410
REMARK INTER + INTRA:          -8.728
REMARK INTER:                  -7.562
REMARK INTRA:                  -1.166
REMARK UNBOUND:                -1.072
REMARK  Name = 
REMARK  4 active torsions:
REMARK  status: ('A' for Active; 'I' for Inactive)
REMARK    1  A    between atoms: C_2  and  C_4
REMARK    2  A    between atoms: N_8  and  C_9
REMARK    3  A    between atoms: C_9  and  C_10
REMARK    4  A    between atoms: C_14  and  C_15
REMARK                            x       y       z     vdW  Elec       q    Type
REMARK                         _______ _______ _______ _____ _____    ______ ____
ROOT
ATOM      1  C   UNL     1      48.954   8.336  12.653  0.00  0.00    +0.000 C 
ATOM      2  C   UNL     1      49.808   9.350  11.905  0.00  0.00    +0.000 C 
ATOM      3  C   UNL     1      50.206   7.912  11.912  0.00  0.00    +0.000 C 
ENDROOT
BRANCH   1   8
ATOM      4  C   UNL     1      44.805   5.192  12.825  0.00  0.00    +0.000 A 
ATOM      5  C   UNL     1      46.154   4.849  12.768  0.00  0.00    +0.000 A 
ATOM      6  C   UNL     1      47.109   5.844  12.575  0.00  0.00    +0.000 A 
ATOM      7  C   UNL     1      46.704   7.165  12.428  0.00  0.00    +0.000 A 
ATOM      8  N   UNL     1      47.584   8.204  12.114  0.00  0.00    +0.000 N 
ATOM      9  N   UNL     1      45.399   7.513  12.486  0.00  0.00    +0.000 NA
ATOM     10  C   UNL     1      44.481   6.530  12.673  0.00  0.00    +0.000 A 
ATOM     11  H   UNL     1      47.020   9.051  12.166  0.00  0.00    +0.000 HD
BRANCH   4  13
ATOM     12  N   UNL     1      44.033   2.892  12.710  0.00  0.00    +0.000 N 
ATOM     13  C   UNL     1      43.728   4.197  12.983  0.00  0.00    +0.000 C 
ATOM     14  O   UNL     1      42.612   4.517  13.368  0.00  0.00    +0.000 OA
ATOM     15  H   UNL     1      43.310   2.209  12.896  0.00  0.00    +0.000 HD
ATOM     16  H   UNL     1      44.983   2.557  12.624  0.00  0.00    +0.000 HD
ENDBRANCH   4  13
ENDBRANCH   1   8
BRANCH   1  17
ATOM     17  C   UNL     1      48.980   8.303  14.176  0.00  0.00    +0.000 A 
ATOM     18  C   UNL     1      48.475   9.362  14.948  0.00  0.00    +0.000 A 
ATOM     19  C   UNL     1      48.336   9.249  16.331  0.00  0.00    +0.000 A 
ATOM     20  C   UNL     1      48.682   8.061  16.969  0.00  0.00    +0.000 A 
ATOM     21  C   UNL     1      49.195   6.983  16.237  0.00  0.00    +0.000 A 
ATOM     22  C   UNL     1      49.378   7.136  14.854  0.00  0.00    +0.000 A 
BRANCH  21  23
ATOM     23  C   UNL     1      49.412   5.623  16.874  0.00  0.00    +0.000 C 
ATOM     24  C   UNL     1      48.189   4.724  16.607  0.00  0.00    +0.000 C 
ATOM     25  C   UNL     1      48.267   3.418  17.386  0.00  0.00    +0.000 C 
ATOM     26  C   UNL     1      48.583   3.692  18.847  0.00  0.00    +0.000 C 
ATOM     27  O   UNL     1      49.818   4.398  18.958  0.00  0.00    +0.000 OA
ATOM     28  C   UNL     1      49.741   5.701  18.371  0.00  0.00    +0.000 C 
ENDBRANCH  21  23
ENDBRANCH   1  17
TORSDOF 4
ENDMDL
