MODEL 1
REMARK VINA RESULT:    -9.024      0.000      0.000
REMARK INTER + INTRA:         -12.877
REMARK INTER:                 -12.189
REMARK INTRA:                  -0.688
REMARK UNBOUND:                -0.688
REMARK  Name = 
REMARK  7 active torsions:
REMARK  status: ('A' for Active; 'I' for Inactive)
REMARK    1  A    between atoms: C_1  and  C_2
REMARK    2  A    between atoms: C_2  and  N_3
REMARK    3  A    between atoms: C_2  and  C_16
REMARK    4  A    between atoms: C_4  and  C_6
REMARK    5  A    between atoms: C_19  and  C_20
REMARK    6  A    between atoms: C_20  and  C_21
REMARK    7  A    between atoms: C_21  and  C_22
REMARK                            x       y       z     vdW  Elec       q    Type
REMARK                         _______ _______ _______ _____ _____    ______ ____
ROOT
ATOM      1  C   UNL     1      47.638   8.835  12.249  0.00  0.00    +0.000 C 
ATOM      2  C   UNL     1      46.603   8.029  13.035  0.00  0.00    +0.000 C 
ENDROOT
BRANCH   2   3
ATOM      3  C   UNL     1      45.936   6.914  12.248  0.00  0.00    +0.000 A 
ATOM      4  C   UNL     1      46.413   6.629  10.960  0.00  0.00    +0.000 A 
ATOM      5  C   UNL     1      45.809   5.651  10.165  0.00  0.00    +0.000 A 
ATOM      6  C   UNL     1      44.713   4.919  10.638  0.00  0.00    +0.000 A 
ATOM      7  C   UNL     1      44.220   5.218  11.916  0.00  0.00    +0.000 A 
ATOM      8  C   UNL     1      44.821   6.205  12.708  0.00  0.00    +0.000 A 
BRANCH   6   9
ATOM      9  C   UNL     1      43.996   3.887   9.787  0.00  0.00    +0.000 C 
BRANCH   9  10
ATOM     10  C   UNL     1      44.703   2.527   9.697  0.00  0.00    +0.000 C 
BRANCH  10  11
ATOM     11  C   UNL     1      45.612   2.349   8.504  0.00  0.00    +0.000 A 
ATOM     12  C   UNL     1      45.671   3.370   7.554  0.00  0.00    +0.000 A 
ATOM     13  C   UNL     1      46.456   3.196   6.420  0.00  0.00    +0.000 A 
ATOM     14  C   UNL     1      47.164   2.013   6.263  0.00  0.00    +0.000 A 
ATOM     15  C   UNL     1      47.059   1.052   7.253  0.00  0.00    +0.000 A 
ATOM     16  N   UNL     1      46.299   1.193   8.366  0.00  0.00    +0.000 NA
ENDBRANCH  10  11
ENDBRANCH   9  10
ENDBRANCH   6   9
ENDBRANCH   2   3
BRANCH   2  17
ATOM     17  N   UNL     1      47.195   7.471  14.233  0.00  0.00    +0.000 N 
ATOM     18  C   UNL     1      48.370   6.767  14.212  0.00  0.00    +0.000 C 
ATOM     19  O   UNL     1      49.032   6.624  13.189  0.00  0.00    +0.000 OA
ATOM     20  H   UNL     1      46.607   7.442  15.061  0.00  0.00    +0.000 HD
BRANCH  18  21
ATOM     21  C   UNL     1      48.836   6.238  15.499  0.00  0.00    +0.000 A 
ATOM     22  C   UNL     1      49.929   6.821  16.126  0.00  0.00    +0.000 A 
ATOM     23  S   UNL     1      50.334   6.089  17.611  0.00  0.00    +0.000 S 
ATOM     24  C   UNL     1      49.092   4.937  17.444  0.00  0.00    +0.000 A 
ATOM     25  N   UNL     1      48.913   3.963  18.376  0.00  0.00    +0.000 NA
ATOM     26  C   UNL     1      47.964   3.133  18.102  0.00  0.00    +0.000 A 
ATOM     27  N   UNL     1      47.168   3.195  16.987  0.00  0.00    +0.000 N 
ATOM     28  C   UNL     1      47.276   4.193  16.047  0.00  0.00    +0.000 A 
ATOM     29  O   UNL     1      46.492   4.271  15.107  0.00  0.00    +0.000 OA
ATOM     30  C   UNL     1      48.357   5.130  16.288  0.00  0.00    +0.000 A 
ATOM     31  H   UNL     1      46.425   2.526  16.846  0.00  0.00    +0.000 HD
ENDBRANCH  18  21
ENDBRANCH   2  17
TORSDOF 6
ENDMDL
MODEL 2
REMARK VINA RESULT:    -8.335      2.041      2.367
REMARK INTER + INTRA:         -11.947
REMARK INTER:                 -11.442
REMARK INTRA:                  -0.506
REMARK UNBOUND:                -0.688
REMARK  Name = 
REMARK  7 active torsions:
REMARK  status: ('A' for Active; 'I' for Inactive)
REMARK    1  A    between atoms: C_1  and  C_2
REMARK    2  A    between atoms: C_2  and  N_3
REMARK    3  A    between atoms: C_2  and  C_16
REMARK    4  A    between atoms: C_4  and  C_6
REMARK    5  A    between atoms: C_19  and  C_20
REMARK    6  A    between atoms: C_20  and  C_21
REMARK    7  A    between atoms: C_21  and  C_22
REMARK                            x       y       z     vdW  Elec       q    Type
REMARK                         _______ _______ _______ _____ _____    ______ ____
ROOT
ATOM      1  C   UNL     1      49.089   7.044  12.972  0.00  0.00    +0.000 C 
ATOM      2  C   UNL     1      47.697   6.759  13.537  0.00  0.00    +0.000 C 
ENDROOT
BRANCH   2   3
ATOM      3  C   UNL     1      46.796   5.944  12.625  0.00  0.00    +0.000 A 
ATOM      4  C   UNL     1      46.527   6.437  11.340  0.00  0.00    +0.000 A 
ATOM      5  C   UNL     1      45.665   5.760  10.472  0.00  0.00    +0.000 A 
ATOM      6  C   UNL     1      45.052   4.563  10.859  0.00  0.00    +0.000 A 
ATOM      7  C   UNL     1      45.301   4.080  12.152  0.00  0.00    +0.000 A 
ATOM      8  C   UNL     1      46.158   4.764  13.024  0.00  0.00    +0.000 A 
BRANCH   6   9
ATOM      9  C   UNL     1      44.068   3.827   9.967  0.00  0.00    +0.000 C 
BRANCH   9  10
ATOM     10  C   UNL     1      44.499   2.406   9.575  0.00  0.00    +0.000 C 
BRANCH  10  11
ATOM     11  C   UNL     1      45.522   2.323   8.468  0.00  0.00    +0.000 A 
ATOM     12  C   UNL     1      45.641   3.401   7.589  0.00  0.00    +0.000 A 
ATOM     13  C   UNL     1      46.536   3.316   6.529  0.00  0.00    +0.000 A 
ATOM     14  C   UNL     1      47.292   2.163   6.374  0.00  0.00    +0.000 A 
ATOM     15  C   UNL     1      47.121   1.142   7.292  0.00  0.00    +0.000 A 
ATOM     16  N   UNL     1      46.255   1.196   8.331  0.00  0.00    +0.000 NA
ENDBRANCH  10  11
ENDBRANCH   9  10
ENDBRANCH   6   9
ENDBRANCH   2   3
BRANCH   2  17
ATOM     17  N   UNL     1      47.794   6.093  14.820  0.00  0.00    +0.000 N 
ATOM     18  C   UNL     1      48.576   6.570  15.838  0.00  0.00    +0.000 C 
ATOM     19  O   UNL     1      49.189   7.630  15.754  0.00  0.00    +0.000 OA
ATOM     20  H   UNL     1      47.423   5.149  14.872  0.00  0.00    +0.000 HD
BRANCH  18  21
ATOM     21  C   UNL     1      48.596   5.776  17.072  0.00  0.00    +0.000 A 
ATOM     22  C   UNL     1      48.947   4.435  17.018  0.00  0.00    +0.000 A 
ATOM     23  S   UNL     1      48.924   3.663  18.538  0.00  0.00    +0.000 S 
ATOM     24  C   UNL     1      48.398   5.084  19.313  0.00  0.00    +0.000 A 
ATOM     25  N   UNL     1      48.138   5.097  20.647  0.00  0.00    +0.000 NA
ATOM     26  C   UNL     1      47.707   6.228  21.095  0.00  0.00    +0.000 A 
ATOM     27  N   UNL     1      47.522   7.352  20.331  0.00  0.00    +0.000 N 
ATOM     28  C   UNL     1      47.823   7.401  18.990  0.00  0.00    +0.000 A 
ATOM     29  O   UNL     1      47.731   8.446  18.354  0.00  0.00    +0.000 OA
ATOM     30  C   UNL     1      48.274   6.142  18.429  0.00  0.00    +0.000 A 
ATOM     31  H   UNL     1      47.204   8.213  20.749  0.00  0.00    +0.000 HD
ENDBRANCH  18  21
ENDBRANCH   2  17
TORSDOF 6
ENDMDL
MODEL 3
REMARK VINA RESULT:    -8.208      2.786      3.727
REMARK INTER + INTRA:         -11.774
REMARK INTER:                 -10.477
REMARK INTRA:                  -1.297
REMARK UNBOUND:                -0.688
REMARK  Name = 
REMARK  7 active torsions:
REMARK  status: ('A' for Active; 'I' for Inactive)
REMARK    1  A    between atoms: C_1  and  C_2
REMARK    2  A    between atoms: C_2  and  N_3
REMARK    3  A    between atoms: C_2  and  C_16
REMARK    4  A    between atoms: C_4  and  C_6
REMARK    5  A    between atoms: C_19  and  C_20
REMARK    6  A    between atoms: C_20  and  C_21
REMARK    7  A    between atoms: C_21  and  C_22
REMARK                            x       y       z     vdW  Elec       q    Type
REMARK                         _______ _______ _______ _____ _____    ______ ____
ROOT
ATOM      1  C   UNL     1      47.194   4.356  15.949  0.00  0.00    +0.000 C 
ATOM      2  C   UNL     1      47.661   5.171  14.742  0.00  0.00    +0.000 C 
ENDROOT
BRANCH   2   3
ATOM      3  C   UNL     1      46.792   5.025  13.504  0.00  0.00    +0.000 A 
ATOM      4  C   UNL     1      46.103   3.819  13.310  0.00  0.00    +0.000 A 
ATOM      5  C   UNL     1      45.330   3.604  12.166  0.00  0.00    +0.000 A 
ATOM      6  C   UNL     1      45.214   4.593  11.182  0.00  0.00    +0.000 A 
ATOM      7  C   UNL     1      45.920   5.791  11.362  0.00  0.00    +0.000 A 
ATOM      8  C   UNL     1      46.702   6.002  12.505  0.00  0.00    +0.000 A 
BRANCH   6   9
ATOM      9  C   UNL     1      44.429   4.378   9.901  0.00  0.00    +0.000 C 
BRANCH   9  10
ATOM     10  C   UNL     1      44.404   2.926   9.401  0.00  0.00    +0.000 C 
BRANCH  10  11
ATOM     11  C   UNL     1      45.508   2.555   8.439  0.00  0.00    +0.000 A 
ATOM     12  C   UNL     1      45.976   3.529   7.555  0.00  0.00    +0.000 A 
ATOM     13  C   UNL     1      46.949   3.187   6.623  0.00  0.00    +0.000 A 
ATOM     14  C   UNL     1      47.432   1.888   6.597  0.00  0.00    +0.000 A 
ATOM     15  C   UNL     1      46.922   0.982   7.511  0.00  0.00    +0.000 A 
ATOM     16  N   UNL     1      45.973   1.286   8.426  0.00  0.00    +0.000 NA
ENDBRANCH  10  11
ENDBRANCH   9  10
ENDBRANCH   6   9
ENDBRANCH   2   3
BRANCH   2  17
ATOM     17  N   UNL     1      47.761   6.575  15.084  0.00  0.00    +0.000 N 
ATOM     18  C   UNL     1      48.965   7.199  15.276  0.00  0.00    +0.000 C 
ATOM     19  O   UNL     1      50.036   6.627  15.104  0.00  0.00    +0.000 OA
ATOM     20  H   UNL     1      46.904   7.035  15.376  0.00  0.00    +0.000 HD
BRANCH  18  21
ATOM     21  C   UNL     1      48.911   8.619  15.643  0.00  0.00    +0.000 A 
ATOM     22  C   UNL     1      49.350   9.578  14.741  0.00  0.00    +0.000 A 
ATOM     23  S   UNL     1      49.215  11.174  15.323  0.00  0.00    +0.000 S 
ATOM     24  C   UNL     1      48.610  10.636  16.820  0.00  0.00    +0.000 A 
ATOM     25  N   UNL     1      48.321  11.516  17.815  0.00  0.00    +0.000 NA
ATOM     26  C   UNL     1      47.911  10.967  18.909  0.00  0.00    +0.000 A 
ATOM     27  N   UNL     1      47.752   9.618  19.095  0.00  0.00    +0.000 N 
ATOM     28  C   UNL     1      47.978   8.695  18.101  0.00  0.00    +0.000 A 
ATOM     29  O   UNL     1      47.741   7.503  18.271  0.00  0.00    +0.000 OA
ATOM     30  C   UNL     1      48.481   9.258  16.862  0.00  0.00    +0.000 A 
ATOM     31  H   UNL     1      47.403   9.256  19.970  0.00  0.00    +0.000 HD
ENDBRANCH  18  21
ENDBRANCH   2  17
TORSDOF 6
ENDMDL
MODEL 4
REMARK VINA RESULT:    -7.892      2.955      4.334
REMARK INTER + INTRA:         -11.349
REMARK INTER:                 -10.077
REMARK INTRA:                  -1.272
REMARK UNBOUND:                -0.688
REMARK  Name = 
REMARK  7 active torsions:
REMARK  status: ('A' for Active; 'I' for Inactive)
REMARK    1  A    between atoms: C_1  and  C_2
REMARK    2  A    between atoms: C_2  and  N_3
REMARK    3  A    between atoms: C_2  and  C_16
REMARK    4  A    between atoms: C_4  and  C_6
REMARK    5  A    between atoms: C_19  and  C_20
REMARK    6  A    between atoms: C_20  and  C_21
REMARK    7  A    between atoms: C_21  and  C_22
REMARK                            x       y       z     vdW  Elec       q    Type
REMARK                         _______ _______ _______ _____ _____    ______ ____
ROOT
ATOM      1  C   UNL     1      47.481   3.309  16.681  0.00  0.00    +0.000 C 
ATOM      2  C   UNL     1      47.944   4.602  16.011  0.00  0.00    +0.000 C 
ENDROOT
BRANCH   2   3
ATOM      3  C   UNL     1      47.312   4.877  14.656  0.00  0.00    +0.000 A 
ATOM      4  C   UNL     1      47.499   6.140  14.077  0.00  0.00    +0.000 A 
ATOM      5  C   UNL     1      46.900   6.472  12.858  0.00  0.00    +0.000 A 
ATOM      6  C   UNL     1      46.104   5.546  12.175  0.00  0.00    +0.000 A 
ATOM      7  C   UNL     1      45.897   4.290  12.763  0.00  0.00    +0.000 A 
ATOM      8  C   UNL     1      46.490   3.961  13.989  0.00  0.00    +0.000 A 
BRANCH   6   9
ATOM      9  C   UNL     1      45.393   5.885  10.876  0.00  0.00    +0.000 C 
BRANCH   9  10
ATOM     10  C   UNL     1      44.549   4.744  10.291  0.00  0.00    +0.000 C 
BRANCH  10  11
ATOM     11  C   UNL     1      45.230   3.918   9.226  0.00  0.00    +0.000 A 
ATOM     12  C   UNL     1      45.218   2.528   9.352  0.00  0.00    +0.000 A 
ATOM     13  C   UNL     1      45.891   1.756   8.412  0.00  0.00    +0.000 A 
ATOM     14  C   UNL     1      46.555   2.387   7.371  0.00  0.00    +0.000 A 
ATOM     15  C   UNL     1      46.514   3.768   7.311  0.00  0.00    +0.000 A 
ATOM     16  N   UNL     1      45.869   4.545   8.213  0.00  0.00    +0.000 NA
ENDBRANCH  10  11
ENDBRANCH   9  10
ENDBRANCH   6   9
ENDBRANCH   2   3
BRANCH   2  17
ATOM     17  N   UNL     1      47.708   5.738  16.878  0.00  0.00    +0.000 N 
ATOM     18  C   UNL     1      48.609   6.133  17.832  0.00  0.00    +0.000 C 
ATOM     19  O   UNL     1      49.703   5.593  17.965  0.00  0.00    +0.000 OA
ATOM     20  H   UNL     1      46.763   6.110  16.895  0.00  0.00    +0.000 HD
BRANCH  18  21
ATOM     21  C   UNL     1      48.224   7.286  18.654  0.00  0.00    +0.000 A 
ATOM     22  C   UNL     1      47.929   7.102  19.998  0.00  0.00    +0.000 A 
ATOM     23  S   UNL     1      47.506   8.542  20.806  0.00  0.00    +0.000 S 
ATOM     24  C   UNL     1      47.655   9.453  19.377  0.00  0.00    +0.000 A 
ATOM     25  N   UNL     1      47.384  10.785  19.365  0.00  0.00    +0.000 NA
ATOM     26  C   UNL     1      47.497  11.341  18.206  0.00  0.00    +0.000 A 
ATOM     27  N   UNL     1      47.869  10.689  17.058  0.00  0.00    +0.000 N 
ATOM     28  C   UNL     1      48.206   9.357  17.033  0.00  0.00    +0.000 A 
ATOM     29  O   UNL     1      48.621   8.823  16.009  0.00  0.00    +0.000 OA
ATOM     30  C   UNL     1      48.056   8.675  18.305  0.00  0.00    +0.000 A 
ATOM     31  H   UNL     1      47.962  11.191  16.188  0.00  0.00    +0.000 HD
ENDBRANCH  18  21
ENDBRANCH   2  17
TORSDOF 6
ENDMDL
MODEL 5
REMARK VINA RESULT:    -7.531      2.322      3.357
REMARK INTER + INTRA:         -10.861
REMARK INTER:                  -9.829
REMARK INTRA:                  -1.032
REMARK UNBOUND:                -0.688
REMARK  Name = 
REMARK  7 active torsions:
REMARK  status: ('A' for Active; 'I' for Inactive)
REMARK    1  A    between atoms: C_1  and  C_2
REMARK    2  A    between atoms: C_2  and  N_3
REMARK    3  A    between atoms: C_2  and  C_16
REMARK    4  A    between atoms: C_4  and  C_6
REMARK    5  A    between atoms: C_19  and  C_20
REMARK    6  A    between atoms: C_20  and  C_21
REMARK    7  A    between atoms: C_21  and  C_22
REMARK                            x       y       z     vdW  Elec       q    Type
REMARK                         _______ _______ _______ _____ _____    ______ ____
ROOT
ATOM      1  C   UNL     1      47.339   8.749  12.818  0.00  0.00    +0.000 C 
ATOM      2  C   UNL     1      47.100   7.477  13.632  0.00  0.00    +0.000 C 
ENDROOT
BRANCH   2   3
ATOM      3  C   UNL     1      46.475   6.332  12.852  0.00  0.00    +0.000 A 
ATOM      4  C   UNL     1      46.158   6.540  11.502  0.00  0.00    +0.000 A 
ATOM      5  C   UNL     1      45.533   5.545  10.744  0.00  0.00    +0.000 A 
ATOM      6  C   UNL     1      45.214   4.306  11.312  0.00  0.00    +0.000 A 
ATOM      7  C   UNL     1      45.508   4.104  12.668  0.00  0.00    +0.000 A 
ATOM      8  C   UNL     1      46.126   5.105  13.429  0.00  0.00    +0.000 A 
BRANCH   6   9
ATOM      9  C   UNL     1      44.487   3.220  10.539  0.00  0.00    +0.000 C 
BRANCH   9  10
ATOM     10  C   UNL     1      44.404   3.459   9.024  0.00  0.00    +0.000 C 
BRANCH  10  11
ATOM     11  C   UNL     1      45.490   2.801   8.206  0.00  0.00    +0.000 A 
ATOM     12  C   UNL     1      45.994   3.483   7.098  0.00  0.00    +0.000 A 
ATOM     13  C   UNL     1      46.951   2.865   6.300  0.00  0.00    +0.000 A 
ATOM     14  C   UNL     1      47.382   1.588   6.628  0.00  0.00    +0.000 A 
ATOM     15  C   UNL     1      46.839   0.982   7.747  0.00  0.00    +0.000 A 
ATOM     16  N   UNL     1      45.904   1.558   8.539  0.00  0.00    +0.000 NA
ENDBRANCH  10  11
ENDBRANCH   9  10
ENDBRANCH   6   9
ENDBRANCH   2   3
BRANCH   2  17
ATOM     17  N   UNL     1      48.336   7.016  14.232  0.00  0.00    +0.000 N 
ATOM     18  C   UNL     1      48.839   7.559  15.385  0.00  0.00    +0.000 C 
ATOM     19  O   UNL     1      48.240   8.422  16.020  0.00  0.00    +0.000 OA
ATOM     20  H   UNL     1      48.924   6.416  13.661  0.00  0.00    +0.000 HD
BRANCH  18  21
ATOM     21  C   UNL     1      50.113   7.010  15.862  0.00  0.00    +0.000 A 
ATOM     22  C   UNL     1      50.116   6.081  16.893  0.00  0.00    +0.000 A 
ATOM     23  S   UNL     1      51.676   5.543  17.321  0.00  0.00    +0.000 S 
ATOM     24  C   UNL     1      52.404   6.569  16.176  0.00  0.00    +0.000 A 
ATOM     25  N   UNL     1      53.757   6.631  16.052  0.00  0.00    +0.000 NA
ATOM     26  C   UNL     1      54.173   7.481  15.174  0.00  0.00    +0.000 A 
ATOM     27  N   UNL     1      53.359   8.268  14.401  0.00  0.00    +0.000 N 
ATOM     28  C   UNL     1      51.987   8.201  14.452  0.00  0.00    +0.000 A 
ATOM     29  O   UNL     1      51.287   8.853  13.684  0.00  0.00    +0.000 OA
ATOM     30  C   UNL     1      51.468   7.288  15.453  0.00  0.00    +0.000 A 
ATOM     31  H   UNL     1      53.750   8.896  13.715  0.00  0.00    +0.000 HD
ENDBRANCH  18  21
ENDBRANCH   2  17
TORSDOF 6
ENDMDL
MODEL 6
REMARK VINA RESULT:    -7.368      2.537      4.207
REMARK INTER + INTRA:         -10.640
REMARK INTER:                  -9.504
REMARK INTRA:                  -1.136
REMARK UNBOUND:                -0.688
REMARK  Name = 
REMARK  7 active torsions:
REMARK  status: ('A' for Active; 'I' for Inactive)
REMARK    1  A    between atoms: C_1  and  C_2
REMARK    2  A    between atoms: C_2  and  N_3
REMARK    3  A    between atoms: C_2  and  C_16
REMARK    4  A    between atoms: C_4  and  C_6
REMARK    5  A    between atoms: C_19  and  C_20
REMARK    6  A    between atoms: C_20  and  C_21
REMARK    7  A    between atoms: C_21  and  C_22
REMARK                            x       y       z     vdW  Elec       q    Type
REMARK                         _______ _______ _______ _____ _____    ______ ____
ROOT
ATOM      1  C   UNL     1      47.141   3.968  16.396  0.00  0.00    +0.000 C 
ATOM      2  C   UNL     1      47.838   4.834  15.347  0.00  0.00    +0.000 C 
ENDROOT
BRANCH   2   3
ATOM      3  C   UNL     1      47.030   5.071  14.081  0.00  0.00    +0.000 A 
ATOM      4  C   UNL     1      46.095   4.099  13.695  0.00  0.00    +0.000 A 
ATOM      5  C   UNL     1      45.360   4.233  12.514  0.00  0.00    +0.000 A 
ATOM      6  C   UNL     1      45.529   5.349  11.686  0.00  0.00    +0.000 A 
ATOM      7  C   UNL     1      46.480   6.310  12.058  0.00  0.00    +0.000 A 
ATOM      8  C   UNL     1      47.223   6.171  13.237  0.00  0.00    +0.000 A 
BRANCH   6   9
ATOM      9  C   UNL     1      44.789   5.505  10.370  0.00  0.00    +0.000 C 
BRANCH   9  10
ATOM     10  C   UNL     1      44.258   4.193   9.774  0.00  0.00    +0.000 C 
BRANCH  10  11
ATOM     11  C   UNL     1      45.181   3.508   8.795  0.00  0.00    +0.000 A 
ATOM     12  C   UNL     1      45.378   2.131   8.916  0.00  0.00    +0.000 A 
ATOM     13  C   UNL     1      46.271   1.496   8.061  0.00  0.00    +0.000 A 
ATOM     14  C   UNL     1      46.941   2.246   7.105  0.00  0.00    +0.000 A 
ATOM     15  C   UNL     1      46.686   3.605   7.044  0.00  0.00    +0.000 A 
ATOM     16  N   UNL     1      45.825   4.250   7.866  0.00  0.00    +0.000 NA
ENDBRANCH  10  11
ENDBRANCH   9  10
ENDBRANCH   6   9
ENDBRANCH   2   3
BRANCH   2  17
ATOM     17  N   UNL     1      48.213   6.115  15.911  0.00  0.00    +0.000 N 
ATOM     18  C   UNL     1      49.408   6.313  16.552  0.00  0.00    +0.000 C 
ATOM     19  O   UNL     1      50.265   5.437  16.628  0.00  0.00    +0.000 OA
ATOM     20  H   UNL     1      47.477   6.809  15.996  0.00  0.00    +0.000 HD
BRANCH  18  21
ATOM     21  C   UNL     1      49.641   7.655  17.095  0.00  0.00    +0.000 A 
ATOM     22  C   UNL     1      49.296   7.932  18.410  0.00  0.00    +0.000 A 
ATOM     23  S   UNL     1      49.638   9.535  18.882  0.00  0.00    +0.000 S 
ATOM     24  C   UNL     1      50.214   9.926  17.329  0.00  0.00    +0.000 A 
ATOM     25  N   UNL     1      50.634  11.186  17.036  0.00  0.00    +0.000 NA
ATOM     26  C   UNL     1      51.005  11.353  15.811  0.00  0.00    +0.000 A 
ATOM     27  N   UNL     1      51.006  10.371  14.854  0.00  0.00    +0.000 N 
ATOM     28  C   UNL     1      50.643   9.071  15.118  0.00  0.00    +0.000 A 
ATOM     29  O   UNL     1      50.740   8.196  14.263  0.00  0.00    +0.000 OA
ATOM     30  C   UNL     1      50.178   8.840  16.473  0.00  0.00    +0.000 A 
ATOM     31  H   UNL     1      51.332  10.563  13.919  0.00  0.00    +0.000 HD
ENDBRANCH  18  21
ENDBRANCH   2  17
TORSDOF 6
ENDMDL
MODEL 7
REMARK VINA RESULT:    -6.992      3.289      4.684
REMARK INTER + INTRA:         -10.133
REMARK INTER:                  -9.184
REMARK INTRA:                  -0.950
REMARK UNBOUND:                -0.688
REMARK  Name = 
REMARK  7 active torsions:
REMARK  status: ('A' for Active; 'I' for Inactive)
REMARK    1  A    between atoms: C_1  and  C_2
REMARK    2  A    between atoms: C_2  and  N_3
REMARK    3  A    between atoms: C_2  and  C_16
REMARK    4  A    between atoms: C_4  and  C_6
REMARK    5  A    between atoms: C_19  and  C_20
REMARK    6  A    between atoms: C_20  and  C_21
REMARK    7  A    between atoms: C_21  and  C_22
REMARK                            x       y       z     vdW  Elec       q    Type
REMARK                         _______ _______ _______ _____ _____    ______ ____
ROOT
ATOM      1  C   UNL     1      48.524   7.148  17.927  0.00  0.00    +0.000 C 
ATOM      2  C   UNL     1      48.627   5.838  17.145  0.00  0.00    +0.000 C 
ENDROOT
BRANCH   2   3
ATOM      3  C   UNL     1      48.202   5.933  15.689  0.00  0.00    +0.000 A 
ATOM      4  C   UNL     1      48.617   7.046  14.944  0.00  0.00    +0.000 A 
ATOM      5  C   UNL     1      48.215   7.217  13.616  0.00  0.00    +0.000 A 
ATOM      6  C   UNL     1      47.393   6.275  12.988  0.00  0.00    +0.000 A 
ATOM      7  C   UNL     1      46.957   5.173  13.739  0.00  0.00    +0.000 A 
ATOM      8  C   UNL     1      47.352   5.007  15.072  0.00  0.00    +0.000 A 
BRANCH   6   9
ATOM      9  C   UNL     1      46.891   6.451  11.566  0.00  0.00    +0.000 C 
BRANCH   9  10
ATOM     10  C   UNL     1      45.419   6.070  11.354  0.00  0.00    +0.000 C 
BRANCH  10  11
ATOM     11  C   UNL     1      45.182   4.889  10.443  0.00  0.00    +0.000 A 
ATOM     12  C   UNL     1      45.564   4.995   9.104  0.00  0.00    +0.000 A 
ATOM     13  C   UNL     1      45.298   3.940   8.239  0.00  0.00    +0.000 A 
ATOM     14  C   UNL     1      44.663   2.807   8.728  0.00  0.00    +0.000 A 
ATOM     15  C   UNL     1      44.324   2.777  10.069  0.00  0.00    +0.000 A 
ATOM     16  N   UNL     1      44.567   3.790  10.934  0.00  0.00    +0.000 NA
ENDBRANCH  10  11
ENDBRANCH   9  10
ENDBRANCH   6   9
ENDBRANCH   2   3
BRANCH   2  17
ATOM     17  N   UNL     1      49.975   5.312  17.208  0.00  0.00    +0.000 N 
ATOM     18  C   UNL     1      50.338   4.323  18.084  0.00  0.00    +0.000 C 
ATOM     19  O   UNL     1      49.528   3.772  18.822  0.00  0.00    +0.000 OA
ATOM     20  H   UNL     1      50.694   5.841  16.722  0.00  0.00    +0.000 HD
BRANCH  18  21
ATOM     21  C   UNL     1      51.744   3.908  18.052  0.00  0.00    +0.000 A 
ATOM     22  C   UNL     1      52.740   4.836  18.321  0.00  0.00    +0.000 A 
ATOM     23  S   UNL     1      54.315   4.188  18.246  0.00  0.00    +0.000 S 
ATOM     24  C   UNL     1      53.722   2.655  17.805  0.00  0.00    +0.000 A 
ATOM     25  N   UNL     1      54.571   1.626  17.542  0.00  0.00    +0.000 NA
ATOM     26  C   UNL     1      53.988   0.534  17.179  0.00  0.00    +0.000 A 
ATOM     27  N   UNL     1      52.631   0.373  17.065  0.00  0.00    +0.000 N 
ATOM     28  C   UNL     1      51.732   1.367  17.373  0.00  0.00    +0.000 A 
ATOM     29  O   UNL     1      50.522   1.164  17.347  0.00  0.00    +0.000 OA
ATOM     30  C   UNL     1      52.340   2.630  17.749  0.00  0.00    +0.000 A 
ATOM     31  H   UNL     1      52.238  -0.518  16.799  0.00  0.00    +0.000 HD
ENDBRANCH  18  21
ENDBRANCH   2  17
TORSDOF 6
ENDMDL
MODEL 8
REMARK VINA RESULT:    -6.941      3.822      8.280
REMARK INTER + INTRA:         -10.064
REMARK INTER:                  -8.999
REMARK INTRA:                  -1.065
REMARK UNBOUND:                -0.688
REMARK  Name = 
REMARK  7 active torsions:
REMARK  status: ('A' for Active; 'I' for Inactive)
REMARK    1  A    between atoms: C_1  and  C_2
REMARK    2  A    between atoms: C_2  and  N_3
REMARK    3  A    between atoms: C_2  and  C_16
REMARK    4  A    between atoms: C_4  and  C_6
REMARK    5  A    between atoms: C_19  and  C_20
REMARK    6  A    between atoms: C_20  and  C_21
REMARK    7  A    between atoms: C_21  and  C_22
REMARK                            x       y       z     vdW  Elec       q    Type
REMARK                         _______ _______ _______ _____ _____    ______ ____
ROOT
ATOM      1  C   UNL     1      48.563   9.215  16.126  0.00  0.00    +0.000 C 
ATOM      2  C   UNL     1      48.958   8.023  15.254  0.00  0.00    +0.000 C 
ENDROOT
BRANCH   2   3
ATOM      3  C   UNL     1      49.611   6.875  16.007  0.00  0.00    +0.000 A 
ATOM      4  C   UNL     1      48.784   5.942  16.648  0.00  0.00    +0.000 A 
ATOM      5  C   UNL     1      49.324   4.895  17.401  0.00  0.00    +0.000 A 
ATOM      6  C   UNL     1      50.709   4.742  17.527  0.00  0.00    +0.000 A 
ATOM      7  C   UNL     1      51.538   5.688  16.906  0.00  0.00    +0.000 A 
ATOM      8  C   UNL     1      50.996   6.742  16.160  0.00  0.00    +0.000 A 
BRANCH   6   9
ATOM      9  C   UNL     1      51.334   3.651  18.378  0.00  0.00    +0.000 C 
BRANCH   9  10
ATOM     10  C   UNL     1      51.523   2.308  17.659  0.00  0.00    +0.000 C 
BRANCH  10  11
ATOM     11  C   UNL     1      52.870   1.653  17.856  0.00  0.00    +0.000 A 
ATOM     12  C   UNL     1      54.009   2.461  17.853  0.00  0.00    +0.000 A 
ATOM     13  C   UNL     1      55.260   1.867  17.973  0.00  0.00    +0.000 A 
ATOM     14  C   UNL     1      55.345   0.488  18.096  0.00  0.00    +0.000 A 
ATOM     15  C   UNL     1      54.169  -0.241  18.097  0.00  0.00    +0.000 A 
ATOM     16  N   UNL     1      52.938   0.309  17.979  0.00  0.00    +0.000 NA
ENDBRANCH  10  11
ENDBRANCH   9  10
ENDBRANCH   6   9
ENDBRANCH   2   3
BRANCH   2  17
ATOM     17  N   UNL     1      47.809   7.517  14.532  0.00  0.00    +0.000 N 
ATOM     18  C   UNL     1      47.926   6.849  13.341  0.00  0.00    +0.000 C 
ATOM     19  O   UNL     1      49.015   6.576  12.846  0.00  0.00    +0.000 OA
ATOM     20  H   UNL     1      46.898   7.851  14.833  0.00  0.00    +0.000 HD
BRANCH  18  21
ATOM     21  C   UNL     1      46.674   6.417  12.710  0.00  0.00    +0.000 A 
ATOM     22  C   UNL     1      45.857   7.355  12.094  0.00  0.00    +0.000 A 
ATOM     23  S   UNL     1      44.447   6.686  11.409  0.00  0.00    +0.000 S 
ATOM     24  C   UNL     1      44.856   5.126  11.954  0.00  0.00    +0.000 A 
ATOM     25  N   UNL     1      44.031   4.069  11.732  0.00  0.00    +0.000 NA
ATOM     26  C   UNL     1      44.445   2.955  12.237  0.00  0.00    +0.000 A 
ATOM     27  N   UNL     1      45.616   2.799  12.932  0.00  0.00    +0.000 N 
ATOM     28  C   UNL     1      46.508   3.827  13.133  0.00  0.00    +0.000 A 
ATOM     29  O   UNL     1      47.588   3.635  13.682  0.00  0.00    +0.000 OA
ATOM     30  C   UNL     1      46.069   5.111  12.620  0.00  0.00    +0.000 A 
ATOM     31  H   UNL     1      45.893   1.893  13.280  0.00  0.00    +0.000 HD
ENDBRANCH  18  21
ENDBRANCH   2  17
TORSDOF 6
ENDMDL
MODEL 9
REMARK VINA RESULT:    -6.922      3.147      5.605
REMARK INTER + INTRA:         -10.038
REMARK INTER:                  -9.114
REMARK INTRA:                  -0.923
REMARK UNBOUND:                -0.688
REMARK  Name = 
REMARK  7 active torsions:
REMARK  status: ('A' for Active; 'I' for Inactive)
REMARK    1  A    between atoms: C_1  and  C_2
REMARK    2  A    between atoms: C_2  and  N_3
REMARK    3  A    between atoms: C_2  and  C_16
REMARK    4  A    between atoms: C_4  and  C_6
REMARK    5  A    between atoms: C_19  and  C_20
REMARK    6  A    between atoms: C_20  and  C_21
REMARK    7  A    between atoms: C_21  and  C_22
REMARK                            x       y       z     vdW  Elec       q    Type
REMARK                         _______ _______ _______ _____ _____    ______ ____
ROOT
ATOM      1  C   UNL     1      47.154   4.522  18.408  0.00  0.00    +0.000 C 
ATOM      2  C   UNL     1      47.807   3.770  17.248  0.00  0.00    +0.000 C 
ENDROOT
BRANCH   2   3
ATOM      3  C   UNL     1      47.721   4.478  15.905  0.00  0.00    +0.000 A 
ATOM      4  C   UNL     1      48.237   5.777  15.802  0.00  0.00    +0.000 A 
ATOM      5  C   UNL     1      48.141   6.500  14.610  0.00  0.00    +0.000 A 
ATOM      6  C   UNL     1      47.534   5.942  13.479  0.00  0.00    +0.000 A 
ATOM      7  C   UNL     1      46.996   4.651  13.586  0.00  0.00    +0.000 A 
ATOM      8  C   UNL     1      47.085   3.931  14.785  0.00  0.00    +0.000 A 
BRANCH   6   9
ATOM      9  C   UNL     1      47.362   6.713  12.183  0.00  0.00    +0.000 C 
BRANCH   9  10
ATOM     10  C   UNL     1      45.940   7.234  11.931  0.00  0.00    +0.000 C 
BRANCH  10  11
ATOM     11  C   UNL     1      44.877   6.171  11.795  0.00  0.00    +0.000 A 
ATOM     12  C   UNL     1      44.875   5.375  10.648  0.00  0.00    +0.000 A 
ATOM     13  C   UNL     1      43.867   4.432  10.479  0.00  0.00    +0.000 A 
ATOM     14  C   UNL     1      42.891   4.303  11.456  0.00  0.00    +0.000 A 
ATOM     15  C   UNL     1      42.967   5.125  12.568  0.00  0.00    +0.000 A 
ATOM     16  N   UNL     1      43.934   6.053  12.757  0.00  0.00    +0.000 NA
ENDBRANCH  10  11
ENDBRANCH   9  10
ENDBRANCH   6   9
ENDBRANCH   2   3
BRANCH   2  17
ATOM     17  N   UNL     1      49.197   3.487  17.542  0.00  0.00    +0.000 N 
ATOM     18  C   UNL     1      49.868   2.437  16.973  0.00  0.00    +0.000 C 
ATOM     19  O   UNL     1      49.355   1.711  16.126  0.00  0.00    +0.000 OA
ATOM     20  H   UNL     1      49.602   3.969  18.339  0.00  0.00    +0.000 HD
BRANCH  18  21
ATOM     21  C   UNL     1      51.265   2.256  17.384  0.00  0.00    +0.000 A 
ATOM     22  C   UNL     1      51.756   0.977  17.601  0.00  0.00    +0.000 A 
ATOM     23  S   UNL     1      53.395   0.946  18.069  0.00  0.00    +0.000 S 
ATOM     24  C   UNL     1      53.491   2.645  18.043  0.00  0.00    +0.000 A 
ATOM     25  N   UNL     1      54.638   3.286  18.393  0.00  0.00    +0.000 NA
ATOM     26  C   UNL     1      54.556   4.574  18.370  0.00  0.00    +0.000 A 
ATOM     27  N   UNL     1      53.435   5.280  18.017  0.00  0.00    +0.000 N 
ATOM     28  C   UNL     1      52.271   4.676  17.603  0.00  0.00    +0.000 A 
ATOM     29  O   UNL     1      51.315   5.336  17.209  0.00  0.00    +0.000 OA
ATOM     30  C   UNL     1      52.298   3.226  17.651  0.00  0.00    +0.000 A 
ATOM     31  H   UNL     1      53.447   6.289  17.997  0.00  0.00    +0.000 HD
ENDBRANCH  18  21
ENDBRANCH   2  17
TORSDOF 6
ENDMDL
