MODEL 1
REMARK VINA RESULT:    -8.617      0.000      0.000
REMARK INTER + INTRA:         -13.358
REMARK INTER:                 -12.648
REMARK INTRA:                  -0.711
REMARK UNBOUND:                -0.711
REMARK  Name = 
REMARK  9 active torsions:
REMARK  status: ('A' for Active; 'I' for Inactive)
REMARK    1  A    between atoms: C_1  and  C_2
REMARK    2  A    between atoms: C_2  and  N_3
REMARK    3  A    between atoms: N_3  and  C_4
REMARK    4  A    between atoms: C_6  and  C_7
REMARK    5  A    between atoms: C_7  and  C_8
REMARK    6  A    between atoms: C_8  and  N_9
REMARK    7  A    between atoms: N_9  and  C_10
REMARK    8  A    between atoms: C_13  and  C_14
REMARK    9  A    between atoms: C_20  and  C_21
REMARK                            x       y       z     vdW  Elec       q    Type
REMARK                         _______ _______ _______ _____ _____    ______ ____
ROOT
ATOM      1  C   UNL     1      46.837   4.867  13.939  0.00  0.00    +0.000 A 
ATOM      2  C   UNL     1      45.489   4.889  13.533  0.00  0.00    +0.000 A 
ATOM      3  C   UNL     1      45.023   5.801  12.567  0.00  0.00    +0.000 A 
ATOM      4  C   UNL     1      45.915   6.750  12.053  0.00  0.00    +0.000 A 
ATOM      5  C   UNL     1      47.250   6.779  12.478  0.00  0.00    +0.000 A 
ATOM      6  C   UNL     1      47.703   5.813  13.393  0.00  0.00    +0.000 A 
ENDROOT
BRANCH   5   7
ATOM      7  C   UNL     1      48.203   7.853  12.013  0.00  0.00    +0.000 C 
ATOM      8  F   UNL     1      48.896   7.519  10.889  0.00  0.00    +0.000 F 
ATOM      9  F   UNL     1      47.561   9.019  11.720  0.00  0.00    +0.000 F 
ATOM     10  F   UNL     1      49.137   8.166  12.952  0.00  0.00    +0.000 F 
ENDBRANCH   5   7
BRANCH   1  11
ATOM     11  N   UNL     1      47.255   3.943  14.925  0.00  0.00    +0.000 N 
ATOM     12  H   UNL     1      47.760   3.166  14.503  0.00  0.00    +0.000 HD
BRANCH  11  14
ATOM     13  C   UNL     1      48.553   5.516  16.305  0.00  0.00    +0.000 C 
ATOM     14  C   UNL     1      47.752   4.228  16.269  0.00  0.00    +0.000 C 
ATOM     15  C   UNL     1      46.778   3.979  17.443  0.00  0.00    +0.000 C 
ATOM     16  O   UNL     1      47.333   2.663  17.690  0.00  0.00    +0.000 OA
ATOM     17  C   UNL     1      48.473   2.980  16.852  0.00  0.00    +0.000 C 
ENDBRANCH  11  14
ENDBRANCH   1  11
BRANCH   3  18
ATOM     18  C   UNL     1      43.573   5.804  12.125  0.00  0.00    +0.000 C 
BRANCH  18  19
ATOM     19  C   UNL     1      43.262   4.624  11.198  0.00  0.00    +0.000 C 
BRANCH  19  20
ATOM     20  N   UNL     1      43.705   4.868   9.828  0.00  0.00    +0.000 N 
ATOM     21  H   UNL     1      43.700   5.824   9.486  0.00  0.00    +0.000 HD
BRANCH  20  22
ATOM     22  C   UNL     1      44.510   3.953   9.157  0.00  0.00    +0.000 A 
ATOM     23  C   UNL     1      45.459   4.330   8.202  0.00  0.00    +0.000 A 
ATOM     24  C   UNL     1      46.307   3.388   7.618  0.00  0.00    +0.000 A 
ATOM     25  C   UNL     1      46.196   2.066   8.012  0.00  0.00    +0.000 A 
ATOM     26  N   UNL     1      45.296   1.633   8.934  0.00  0.00    +0.000 NA
ATOM     27  C   UNL     1      44.495   2.584   9.478  0.00  0.00    +0.000 A 
BRANCH  25  28
ATOM     28  C   UNL     1      47.113   1.039   7.419  0.00  0.00    +0.000 C 
ATOM     29  N   UNL     1      46.787  -0.263   7.664  0.00  0.00    +0.000 N 
ATOM     30  O   UNL     1      48.105   1.346   6.761  0.00  0.00    +0.000 OA
ATOM     31  H   UNL     1      45.978  -0.474   8.235  0.00  0.00    +0.000 HD
ATOM     32  H   UNL     1      47.383  -1.003   7.315  0.00  0.00    +0.000 HD
ENDBRANCH  25  28
ENDBRANCH  20  22
ENDBRANCH  19  20
ENDBRANCH  18  19
ENDBRANCH   3  18
TORSDOF 8
ENDMDL
MODEL 2
REMARK VINA RESULT:    -8.269      3.344      4.852
REMARK INTER + INTRA:         -12.846
REMARK INTER:                 -11.765
REMARK INTRA:                  -1.082
REMARK UNBOUND:                -0.711
REMARK  Name = 
REMARK  9 active torsions:
REMARK  status: ('A' for Active; 'I' for Inactive)
REMARK    1  A    between atoms: C_1  and  C_2
REMARK    2  A    between atoms: C_2  and  N_3
REMARK    3  A    between atoms: N_3  and  C_4
REMARK    4  A    between atoms: C_6  and  C_7
REMARK    5  A    between atoms: C_7  and  C_8
REMARK    6  A    between atoms: C_8  and  N_9
REMARK    7  A    between atoms: N_9  and  C_10
REMARK    8  A    between atoms: C_13  and  C_14
REMARK    9  A    between atoms: C_20  and  C_21
REMARK                            x       y       z     vdW  Elec       q    Type
REMARK                         _______ _______ _______ _____ _____    ______ ____
ROOT
ATOM      1  C   UNL     1      45.413   8.606  12.466  0.00  0.00    +0.000 A 
ATOM      2  C   UNL     1      44.885   7.309  12.317  0.00  0.00    +0.000 A 
ATOM      3  C   UNL     1      45.717   6.177  12.239  0.00  0.00    +0.000 A 
ATOM      4  C   UNL     1      47.105   6.360  12.244  0.00  0.00    +0.000 A 
ATOM      5  C   UNL     1      47.655   7.646  12.343  0.00  0.00    +0.000 A 
ATOM      6  C   UNL     1      46.799   8.752  12.488  0.00  0.00    +0.000 A 
ENDROOT
BRANCH   5   7
ATOM      7  C   UNL     1      49.142   7.877  12.251  0.00  0.00    +0.000 C 
ATOM      8  F   UNL     1      49.674   8.462  13.360  0.00  0.00    +0.000 F 
ATOM      9  F   UNL     1      49.834   6.716  12.078  0.00  0.00    +0.000 F 
ATOM     10  F   UNL     1      49.485   8.676  11.204  0.00  0.00    +0.000 F 
ENDBRANCH   5   7
BRANCH   1  11
ATOM     11  N   UNL     1      44.537   9.715  12.523  0.00  0.00    +0.000 N 
ATOM     12  H   UNL     1      44.720  10.281  13.350  0.00  0.00    +0.000 HD
BRANCH  11  14
ATOM     13  C   UNL     1      45.124  11.515  10.949  0.00  0.00    +0.000 C 
ATOM     14  C   UNL     1      44.060  10.540  11.415  0.00  0.00    +0.000 C 
ATOM     15  C   UNL     1      43.236   9.830  10.317  0.00  0.00    +0.000 C 
ATOM     16  O   UNL     1      41.984  10.218  10.936  0.00  0.00    +0.000 OA
ATOM     17  C   UNL     1      42.685  11.174  11.769  0.00  0.00    +0.000 C 
ENDBRANCH  11  14
ENDBRANCH   1  11
BRANCH   3  18
ATOM     18  C   UNL     1      45.136   4.784  12.095  0.00  0.00    +0.000 C 
BRANCH  18  19
ATOM     19  C   UNL     1      43.713   4.820  11.528  0.00  0.00    +0.000 C 
BRANCH  19  20
ATOM     20  N   UNL     1      43.700   4.763  10.069  0.00  0.00    +0.000 N 
ATOM     21  H   UNL     1      43.228   5.508   9.564  0.00  0.00    +0.000 HD
BRANCH  20  22
ATOM     22  C   UNL     1      44.637   4.010   9.368  0.00  0.00    +0.000 A 
ATOM     23  C   UNL     1      44.692   2.614   9.430  0.00  0.00    +0.000 A 
ATOM     24  C   UNL     1      45.591   1.893   8.643  0.00  0.00    +0.000 A 
ATOM     25  C   UNL     1      46.426   2.591   7.788  0.00  0.00    +0.000 A 
ATOM     26  N   UNL     1      46.424   3.946   7.680  0.00  0.00    +0.000 NA
ATOM     27  C   UNL     1      45.531   4.605   8.462  0.00  0.00    +0.000 A 
BRANCH  25  28
ATOM     28  C   UNL     1      47.383   1.838   6.912  0.00  0.00    +0.000 C 
ATOM     29  N   UNL     1      48.424   2.562   6.409  0.00  0.00    +0.000 N 
ATOM     30  O   UNL     1      47.236   0.646   6.653  0.00  0.00    +0.000 OA
ATOM     31  H   UNL     1      48.493   3.549   6.622  0.00  0.00    +0.000 HD
ATOM     32  H   UNL     1      49.088   2.118   5.787  0.00  0.00    +0.000 HD
ENDBRANCH  25  28
ENDBRANCH  20  22
ENDBRANCH  19  20
ENDBRANCH  18  19
ENDBRANCH   3  18
TORSDOF 8
ENDMDL
MODEL 3
REMARK VINA RESULT:    -8.176      2.821      4.120
REMARK INTER + INTRA:         -12.710
REMARK INTER:                 -11.592
REMARK INTRA:                  -1.118
REMARK UNBOUND:                -0.711
REMARK  Name = 
REMARK  9 active torsions:
REMARK  status: ('A' for Active; 'I' for Inactive)
REMARK    1  A    between atoms: C_1  and  C_2
REMARK    2  A    between atoms: C_2  and  N_3
REMARK    3  A    between atoms: N_3  and  C_4
REMARK    4  A    between atoms: C_6  and  C_7
REMARK    5  A    between atoms: C_7  and  C_8
REMARK    6  A    between atoms: C_8  and  N_9
REMARK    7  A    between atoms: N_9  and  C_10
REMARK    8  A    between atoms: C_13  and  C_14
REMARK    9  A    between atoms: C_20  and  C_21
REMARK                            x       y       z     vdW  Elec       q    Type
REMARK                         _______ _______ _______ _____ _____    ______ ____
ROOT
ATOM      1  C   UNL     1      47.395   6.752  12.341  0.00  0.00    +0.000 A 
ATOM      2  C   UNL     1      46.061   6.698  11.894  0.00  0.00    +0.000 A 
ATOM      3  C   UNL     1      45.089   5.932  12.562  0.00  0.00    +0.000 A 
ATOM      4  C   UNL     1      45.481   5.154  13.658  0.00  0.00    +0.000 A 
ATOM      5  C   UNL     1      46.814   5.154  14.093  0.00  0.00    +0.000 A 
ATOM      6  C   UNL     1      47.749   5.982  13.447  0.00  0.00    +0.000 A 
ENDROOT
BRANCH   5   7
ATOM      7  C   UNL     1      47.280   4.251  15.207  0.00  0.00    +0.000 C 
ATOM      8  F   UNL     1      46.374   4.113  16.214  0.00  0.00    +0.000 F 
ATOM      9  F   UNL     1      47.542   2.987  14.769  0.00  0.00    +0.000 F 
ATOM     10  F   UNL     1      48.428   4.689  15.791  0.00  0.00    +0.000 F 
ENDBRANCH   5   7
BRANCH   1  11
ATOM     11  N   UNL     1      48.341   7.524  11.626  0.00  0.00    +0.000 N 
ATOM     12  H   UNL     1      48.076   7.608  10.646  0.00  0.00    +0.000 HD
BRANCH  11  14
ATOM     13  C   UNL     1      50.503   8.394  12.421  0.00  0.00    +0.000 C 
ATOM     14  C   UNL     1      49.059   8.712  12.081  0.00  0.00    +0.000 C 
ATOM     15  C   UNL     1      48.797  10.026  11.311  0.00  0.00    +0.000 C 
ATOM     16  O   UNL     1      47.804  10.452  12.277  0.00  0.00    +0.000 OA
ATOM     17  C   UNL     1      48.255   9.431  13.201  0.00  0.00    +0.000 C 
ENDBRANCH  11  14
ENDBRANCH   1  11
BRANCH   3  18
ATOM     18  C   UNL     1      43.651   5.895  12.081  0.00  0.00    +0.000 C 
BRANCH  18  19
ATOM     19  C   UNL     1      43.374   4.656  11.224  0.00  0.00    +0.000 C 
BRANCH  19  20
ATOM     20  N   UNL     1      43.762   4.852   9.829  0.00  0.00    +0.000 N 
ATOM     21  H   UNL     1      43.734   5.795   9.453  0.00  0.00    +0.000 HD
BRANCH  20  22
ATOM     22  C   UNL     1      44.551   3.920   9.163  0.00  0.00    +0.000 A 
ATOM     23  C   UNL     1      45.383   4.255   8.090  0.00  0.00    +0.000 A 
ATOM     24  C   UNL     1      46.224   3.306   7.507  0.00  0.00    +0.000 A 
ATOM     25  C   UNL     1      46.227   2.021   8.022  0.00  0.00    +0.000 A 
ATOM     26  N   UNL     1      45.444   1.631   9.062  0.00  0.00    +0.000 NA
ATOM     27  C   UNL     1      44.645   2.588   9.600  0.00  0.00    +0.000 A 
BRANCH  25  28
ATOM     28  C   UNL     1      47.141   0.991   7.431  0.00  0.00    +0.000 C 
ATOM     29  N   UNL     1      46.773  -0.309   7.620  0.00  0.00    +0.000 N 
ATOM     30  O   UNL     1      48.165   1.294   6.822  0.00  0.00    +0.000 OA
ATOM     31  H   UNL     1      45.937  -0.517   8.152  0.00  0.00    +0.000 HD
ATOM     32  H   UNL     1      47.364  -1.053   7.270  0.00  0.00    +0.000 HD
ENDBRANCH  25  28
ENDBRANCH  20  22
ENDBRANCH  19  20
ENDBRANCH  18  19
ENDBRANCH   3  18
TORSDOF 8
ENDMDL
MODEL 4
REMARK VINA RESULT:    -7.761      1.856      2.314
REMARK INTER + INTRA:         -12.102
REMARK INTER:                 -11.281
REMARK INTRA:                  -0.820
REMARK UNBOUND:                -0.711
REMARK  Name = 
REMARK  9 active torsions:
REMARK  status: ('A' for Active; 'I' for Inactive)
REMARK    1  A    between atoms: C_1  and  C_2
REMARK    2  A    between atoms: C_2  and  N_3
REMARK    3  A    between atoms: N_3  and  C_4
REMARK    4  A    between atoms: C_6  and  C_7
REMARK    5  A    between atoms: C_7  and  C_8
REMARK    6  A    between atoms: C_8  and  N_9
REMARK    7  A    between atoms: N_9  and  C_10
REMARK    8  A    between atoms: C_13  and  C_14
REMARK    9  A    between atoms: C_20  and  C_21
REMARK                            x       y       z     vdW  Elec       q    Type
REMARK                         _______ _______ _______ _____ _____    ______ ____
ROOT
ATOM      1  C   UNL     1      47.697   5.562  15.024  0.00  0.00    +0.000 A 
ATOM      2  C   UNL     1      46.726   4.715  14.457  0.00  0.00    +0.000 A 
ATOM      3  C   UNL     1      46.305   4.862  13.122  0.00  0.00    +0.000 A 
ATOM      4  C   UNL     1      46.822   5.922  12.367  0.00  0.00    +0.000 A 
ATOM      5  C   UNL     1      47.754   6.808  12.925  0.00  0.00    +0.000 A 
ATOM      6  C   UNL     1      48.206   6.595  14.239  0.00  0.00    +0.000 A 
ENDROOT
BRANCH   5   7
ATOM      7  C   UNL     1      48.250   8.013  12.165  0.00  0.00    +0.000 C 
ATOM      8  F   UNL     1      49.063   8.824  12.898  0.00  0.00    +0.000 F 
ATOM      9  F   UNL     1      48.969   7.666  11.061  0.00  0.00    +0.000 F 
ATOM     10  F   UNL     1      47.236   8.803  11.718  0.00  0.00    +0.000 F 
ENDBRANCH   5   7
BRANCH   1  11
ATOM     11  N   UNL     1      48.075   5.385  16.375  0.00  0.00    +0.000 N 
ATOM     12  H   UNL     1      48.183   4.396  16.596  0.00  0.00    +0.000 HD
BRANCH  11  14
ATOM     13  C   UNL     1      50.438   5.912  16.821  0.00  0.00    +0.000 C 
ATOM     14  C   UNL     1      48.990   6.205  17.166  0.00  0.00    +0.000 C 
ATOM     15  C   UNL     1      48.607   7.689  17.365  0.00  0.00    +0.000 C 
ATOM     16  O   UNL     1      47.999   7.410  18.651  0.00  0.00    +0.000 OA
ATOM     17  C   UNL     1      48.633   6.107  18.676  0.00  0.00    +0.000 C 
ENDBRANCH  11  14
ENDBRANCH   1  11
BRANCH   3  18
ATOM     18  C   UNL     1      45.271   3.933  12.517  0.00  0.00    +0.000 C 
BRANCH  18  19
ATOM     19  C   UNL     1      44.252   4.699  11.667  0.00  0.00    +0.000 C 
BRANCH  19  20
ATOM     20  N   UNL     1      43.846   3.948  10.482  0.00  0.00    +0.000 N 
ATOM     21  H   UNL     1      42.877   4.011  10.183  0.00  0.00    +0.000 HD
BRANCH  20  22
ATOM     22  C   UNL     1      44.780   3.530   9.539  0.00  0.00    +0.000 A 
ATOM     23  C   UNL     1      45.079   2.184   9.309  0.00  0.00    +0.000 A 
ATOM     24  C   UNL     1      45.958   1.805   8.292  0.00  0.00    +0.000 A 
ATOM     25  C   UNL     1      46.522   2.794   7.505  0.00  0.00    +0.000 A 
ATOM     26  N   UNL     1      46.274   4.119   7.677  0.00  0.00    +0.000 NA
ATOM     27  C   UNL     1      45.411   4.440   8.674  0.00  0.00    +0.000 A 
BRANCH  25  28
ATOM     28  C   UNL     1      47.448   2.411   6.390  0.00  0.00    +0.000 C 
ATOM     29  N   UNL     1      47.320   3.129   5.238  0.00  0.00    +0.000 N 
ATOM     30  O   UNL     1      48.266   1.499   6.499  0.00  0.00    +0.000 OA
ATOM     31  H   UNL     1      46.614   3.853   5.178  0.00  0.00    +0.000 HD
ATOM     32  H   UNL     1      47.897   2.900   4.438  0.00  0.00    +0.000 HD
ENDBRANCH  25  28
ENDBRANCH  20  22
ENDBRANCH  19  20
ENDBRANCH  18  19
ENDBRANCH   3  18
TORSDOF 8
ENDMDL
MODEL 5
REMARK VINA RESULT:    -6.770      2.878      7.824
REMARK INTER + INTRA:         -10.647
REMARK INTER:                  -9.544
REMARK INTRA:                  -1.103
REMARK UNBOUND:                -0.711
REMARK  Name = 
REMARK  9 active torsions:
REMARK  status: ('A' for Active; 'I' for Inactive)
REMARK    1  A    between atoms: C_1  and  C_2
REMARK    2  A    between atoms: C_2  and  N_3
REMARK    3  A    between atoms: N_3  and  C_4
REMARK    4  A    between atoms: C_6  and  C_7
REMARK    5  A    between atoms: C_7  and  C_8
REMARK    6  A    between atoms: C_8  and  N_9
REMARK    7  A    between atoms: N_9  and  C_10
REMARK    8  A    between atoms: C_13  and  C_14
REMARK    9  A    between atoms: C_20  and  C_21
REMARK                            x       y       z     vdW  Elec       q    Type
REMARK                         _______ _______ _______ _____ _____    ______ ____
ROOT
ATOM      1  C   UNL     1      45.478   4.147   8.798  0.00  0.00    +0.000 A 
ATOM      2  C   UNL     1      46.164   5.321   9.162  0.00  0.00    +0.000 A 
ATOM      3  C   UNL     1      46.003   5.908  10.431  0.00  0.00    +0.000 A 
ATOM      4  C   UNL     1      45.084   5.342  11.323  0.00  0.00    +0.000 A 
ATOM      5  C   UNL     1      44.353   4.200  10.965  0.00  0.00    +0.000 A 
ATOM      6  C   UNL     1      44.586   3.597   9.717  0.00  0.00    +0.000 A 
ENDROOT
BRANCH   5   7
ATOM      7  C   UNL     1      43.288   3.631  11.868  0.00  0.00    +0.000 C 
ATOM      8  F   UNL     1      42.867   2.389  11.501  0.00  0.00    +0.000 F 
ATOM      9  F   UNL     1      43.716   3.511  13.157  0.00  0.00    +0.000 F 
ATOM     10  F   UNL     1      42.172   4.408  11.916  0.00  0.00    +0.000 F 
ENDBRANCH   5   7
BRANCH   1  11
ATOM     11  N   UNL     1      45.660   3.603   7.506  0.00  0.00    +0.000 N 
ATOM     12  H   UNL     1      45.728   4.342   6.807  0.00  0.00    +0.000 HD
BRANCH  11  14
ATOM     13  C   UNL     1      46.259   1.287   8.088  0.00  0.00    +0.000 C 
ATOM     14  C   UNL     1      46.461   2.442   7.125  0.00  0.00    +0.000 C 
ATOM     15  C   UNL     1      46.518   2.093   5.620  0.00  0.00    +0.000 C 
ATOM     16  O   UNL     1      47.766   2.810   5.451  0.00  0.00    +0.000 OA
ATOM     17  C   UNL     1      47.939   2.861   6.888  0.00  0.00    +0.000 C 
ENDBRANCH  11  14
ENDBRANCH   1  11
BRANCH   3  18
ATOM     18  C   UNL     1      46.760   7.164  10.817  0.00  0.00    +0.000 C 
BRANCH  18  19
ATOM     19  C   UNL     1      46.654   7.448  12.319  0.00  0.00    +0.000 C 
BRANCH  19  20
ATOM     20  N   UNL     1      47.832   6.992  13.052  0.00  0.00    +0.000 N 
ATOM     21  H   UNL     1      48.672   7.561  13.009  0.00  0.00    +0.000 HD
BRANCH  20  22
ATOM     22  C   UNL     1      47.720   6.095  14.110  0.00  0.00    +0.000 A 
ATOM     23  C   UNL     1      46.968   4.919  14.034  0.00  0.00    +0.000 A 
ATOM     24  C   UNL     1      46.954   4.003  15.087  0.00  0.00    +0.000 A 
ATOM     25  C   UNL     1      47.712   4.281  16.212  0.00  0.00    +0.000 A 
ATOM     26  N   UNL     1      48.463   5.405  16.349  0.00  0.00    +0.000 NA
ATOM     27  C   UNL     1      48.450   6.264  15.299  0.00  0.00    +0.000 A 
BRANCH  25  28
ATOM     28  C   UNL     1      47.735   3.300  17.346  0.00  0.00    +0.000 C 
ATOM     29  N   UNL     1      48.921   3.189  18.012  0.00  0.00    +0.000 N 
ATOM     30  O   UNL     1      46.753   2.629  17.654  0.00  0.00    +0.000 OA
ATOM     31  H   UNL     1      49.716   3.739  17.708  0.00  0.00    +0.000 HD
ATOM     32  H   UNL     1      49.010   2.523  18.769  0.00  0.00    +0.000 HD
ENDBRANCH  25  28
ENDBRANCH  20  22
ENDBRANCH  19  20
ENDBRANCH  18  19
ENDBRANCH   3  18
TORSDOF 8
ENDMDL
MODEL 6
REMARK VINA RESULT:    -6.745      3.604      5.255
REMARK INTER + INTRA:         -10.610
REMARK INTER:                  -9.661
REMARK INTRA:                  -0.949
REMARK UNBOUND:                -0.711
REMARK  Name = 
REMARK  9 active torsions:
REMARK  status: ('A' for Active; 'I' for Inactive)
REMARK    1  A    between atoms: C_1  and  C_2
REMARK    2  A    between atoms: C_2  and  N_3
REMARK    3  A    between atoms: N_3  and  C_4
REMARK    4  A    between atoms: C_6  and  C_7
REMARK    5  A    between atoms: C_7  and  C_8
REMARK    6  A    between atoms: C_8  and  N_9
REMARK    7  A    between atoms: N_9  and  C_10
REMARK    8  A    between atoms: C_13  and  C_14
REMARK    9  A    between atoms: C_20  and  C_21
REMARK                            x       y       z     vdW  Elec       q    Type
REMARK                         _______ _______ _______ _____ _____    ______ ____
ROOT
ATOM      1  C   UNL     1      49.436   5.908  17.250  0.00  0.00    +0.000 A 
ATOM      2  C   UNL     1      49.248   6.452  15.965  0.00  0.00    +0.000 A 
ATOM      3  C   UNL     1      48.749   7.754  15.780  0.00  0.00    +0.000 A 
ATOM      4  C   UNL     1      48.369   8.496  16.905  0.00  0.00    +0.000 A 
ATOM      5  C   UNL     1      48.502   7.957  18.193  0.00  0.00    +0.000 A 
ATOM      6  C   UNL     1      49.067   6.679  18.350  0.00  0.00    +0.000 A 
ENDROOT
BRANCH   5   7
ATOM      7  C   UNL     1      48.008   8.696  19.411  0.00  0.00    +0.000 C 
ATOM      8  F   UNL     1      49.008   9.152  20.216  0.00  0.00    +0.000 F 
ATOM      9  F   UNL     1      47.268   9.793  19.084  0.00  0.00    +0.000 F 
ATOM     10  F   UNL     1      47.209   7.929  20.202  0.00  0.00    +0.000 F 
ENDBRANCH   5   7
BRANCH   1  11
ATOM     11  N   UNL     1      49.925   4.587  17.386  0.00  0.00    +0.000 N 
ATOM     12  H   UNL     1      50.792   4.574  17.920  0.00  0.00    +0.000 HD
BRANCH  11  14
ATOM     13  C   UNL     1      48.560   3.314  18.991  0.00  0.00    +0.000 C 
ATOM     14  C   UNL     1      49.157   3.363  17.597  0.00  0.00    +0.000 C 
ATOM     15  C   UNL     1      48.251   2.894  16.435  0.00  0.00    +0.000 C 
ATOM     16  O   UNL     1      49.267   1.983  15.946  0.00  0.00    +0.000 OA
ATOM     17  C   UNL     1      49.999   2.121  17.189  0.00  0.00    +0.000 C 
ENDBRANCH  11  14
ENDBRANCH   1  11
BRANCH   3  18
ATOM     18  C   UNL     1      48.568   8.336  14.391  0.00  0.00    +0.000 C 
BRANCH  18  19
ATOM     19  C   UNL     1      48.010   7.297  13.412  0.00  0.00    +0.000 C 
BRANCH  19  20
ATOM     20  N   UNL     1      46.550   7.268  13.411  0.00  0.00    +0.000 N 
ATOM     21  H   UNL     1      46.053   8.143  13.553  0.00  0.00    +0.000 HD
BRANCH  20  22
ATOM     22  C   UNL     1      45.850   6.226  12.812  0.00  0.00    +0.000 A 
ATOM     23  C   UNL     1      45.562   6.189  11.444  0.00  0.00    +0.000 A 
ATOM     24  C   UNL     1      44.935   5.083  10.869  0.00  0.00    +0.000 A 
ATOM     25  C   UNL     1      44.610   4.011  11.683  0.00  0.00    +0.000 A 
ATOM     26  N   UNL     1      44.862   3.984  13.019  0.00  0.00    +0.000 NA
ATOM     27  C   UNL     1      45.476   5.079  13.533  0.00  0.00    +0.000 A 
BRANCH  25  28
ATOM     28  C   UNL     1      43.961   2.800  11.085  0.00  0.00    +0.000 C 
ATOM     29  N   UNL     1      44.563   2.291   9.972  0.00  0.00    +0.000 N 
ATOM     30  O   UNL     1      42.942   2.300  11.558  0.00  0.00    +0.000 OA
ATOM     31  H   UNL     1      45.384   2.750   9.596  0.00  0.00    +0.000 HD
ATOM     32  H   UNL     1      44.156   1.491   9.503  0.00  0.00    +0.000 HD
ENDBRANCH  25  28
ENDBRANCH  20  22
ENDBRANCH  19  20
ENDBRANCH  18  19
ENDBRANCH   3  18
TORSDOF 8
ENDMDL
MODEL 7
REMARK VINA RESULT:    -6.601      3.526      7.881
REMARK INTER + INTRA:         -10.399
REMARK INTER:                  -9.513
REMARK INTRA:                  -0.886
REMARK UNBOUND:                -0.711
REMARK  Name = 
REMARK  9 active torsions:
REMARK  status: ('A' for Active; 'I' for Inactive)
REMARK    1  A    between atoms: C_1  and  C_2
REMARK    2  A    between atoms: C_2  and  N_3
REMARK    3  A    between atoms: N_3  and  C_4
REMARK    4  A    between atoms: C_6  and  C_7
REMARK    5  A    between atoms: C_7  and  C_8
REMARK    6  A    between atoms: C_8  and  N_9
REMARK    7  A    between atoms: N_9  and  C_10
REMARK    8  A    between atoms: C_13  and  C_14
REMARK    9  A    between atoms: C_20  and  C_21
REMARK                            x       y       z     vdW  Elec       q    Type
REMARK                         _______ _______ _______ _____ _____    ______ ____
ROOT
ATOM      1  C   UNL     1      46.312   4.658  13.337  0.00  0.00    +0.000 A 
ATOM      2  C   UNL     1      46.736   4.518  14.673  0.00  0.00    +0.000 A 
ATOM      3  C   UNL     1      47.682   5.390  15.243  0.00  0.00    +0.000 A 
ATOM      4  C   UNL     1      48.261   6.376  14.435  0.00  0.00    +0.000 A 
ATOM      5  C   UNL     1      47.890   6.504  13.088  0.00  0.00    +0.000 A 
ATOM      6  C   UNL     1      46.893   5.663  12.565  0.00  0.00    +0.000 A 
ENDROOT
BRANCH   5   7
ATOM      7  C   UNL     1      48.570   7.492  12.174  0.00  0.00    +0.000 C 
ATOM      8  F   UNL     1      48.273   7.311  10.857  0.00  0.00    +0.000 F 
ATOM      9  F   UNL     1      48.224   8.779  12.458  0.00  0.00    +0.000 F 
ATOM     10  F   UNL     1      49.927   7.441  12.264  0.00  0.00    +0.000 F 
ENDBRANCH   5   7
BRANCH   1  11
ATOM     11  N   UNL     1      45.371   3.747  12.804  0.00  0.00    +0.000 N 
ATOM     12  H   UNL     1      45.276   2.929  13.404  0.00  0.00    +0.000 HD
BRANCH  11  14
ATOM     13  C   UNL     1      43.307   5.087  12.883  0.00  0.00    +0.000 C 
ATOM     14  C   UNL     1      44.114   4.050  12.124  0.00  0.00    +0.000 C 
ATOM     15  C   UNL     1      44.166   4.196  10.586  0.00  0.00    +0.000 C 
ATOM     16  O   UNL     1      43.754   2.820  10.392  0.00  0.00    +0.000 OA
ATOM     17  C   UNL     1      43.356   2.736  11.783  0.00  0.00    +0.000 C 
ENDBRANCH  11  14
ENDBRANCH   1  11
BRANCH   3  18
ATOM     18  C   UNL     1      48.118   5.240  16.687  0.00  0.00    +0.000 C 
BRANCH  18  19
ATOM     19  C   UNL     1      49.614   5.524  16.858  0.00  0.00    +0.000 C 
BRANCH  19  20
ATOM     20  N   UNL     1      50.157   4.912  18.068  0.00  0.00    +0.000 N 
ATOM     21  H   UNL     1      49.726   5.145  18.957  0.00  0.00    +0.000 HD
BRANCH  20  22
ATOM     22  C   UNL     1      50.910   3.743  18.009  0.00  0.00    +0.000 A 
ATOM     23  C   UNL     1      50.452   2.572  17.397  0.00  0.00    +0.000 A 
ATOM     24  C   UNL     1      51.273   1.450  17.283  0.00  0.00    +0.000 A 
ATOM     25  C   UNL     1      52.562   1.523  17.782  0.00  0.00    +0.000 A 
ATOM     26  N   UNL     1      53.069   2.629  18.388  0.00  0.00    +0.000 NA
ATOM     27  C   UNL     1      52.235   3.697  18.473  0.00  0.00    +0.000 A 
BRANCH  25  28
ATOM     28  C   UNL     1      53.473   0.340  17.648  0.00  0.00    +0.000 C 
ATOM     29  N   UNL     1      53.237  -0.693  18.508  0.00  0.00    +0.000 N 
ATOM     30  O   UNL     1      54.385   0.302  16.824  0.00  0.00    +0.000 OA
ATOM     31  H   UNL     1      52.495  -0.612  19.192  0.00  0.00    +0.000 HD
ATOM     32  H   UNL     1      53.836  -1.509  18.487  0.00  0.00    +0.000 HD
ENDBRANCH  25  28
ENDBRANCH  20  22
ENDBRANCH  19  20
ENDBRANCH  18  19
ENDBRANCH   3  18
TORSDOF 8
ENDMDL
MODEL 8
REMARK VINA RESULT:    -6.553      3.343      7.180
REMARK INTER + INTRA:         -10.329
REMARK INTER:                  -9.179
REMARK INTRA:                  -1.150
REMARK UNBOUND:                -0.711
REMARK  Name = 
REMARK  9 active torsions:
REMARK  status: ('A' for Active; 'I' for Inactive)
REMARK    1  A    between atoms: C_1  and  C_2
REMARK    2  A    between atoms: C_2  and  N_3
REMARK    3  A    between atoms: N_3  and  C_4
REMARK    4  A    between atoms: C_6  and  C_7
REMARK    5  A    between atoms: C_7  and  C_8
REMARK    6  A    between atoms: C_8  and  N_9
REMARK    7  A    between atoms: N_9  and  C_10
REMARK    8  A    between atoms: C_13  and  C_14
REMARK    9  A    between atoms: C_20  and  C_21
REMARK                            x       y       z     vdW  Elec       q    Type
REMARK                         _______ _______ _______ _____ _____    ______ ____
ROOT
ATOM      1  C   UNL     1      45.508   6.776  11.452  0.00  0.00    +0.000 A 
ATOM      2  C   UNL     1      46.627   7.326  12.106  0.00  0.00    +0.000 A 
ATOM      3  C   UNL     1      46.677   8.684  12.469  0.00  0.00    +0.000 A 
ATOM      4  C   UNL     1      45.611   9.517  12.108  0.00  0.00    +0.000 A 
ATOM      5  C   UNL     1      44.507   9.003  11.414  0.00  0.00    +0.000 A 
ATOM      6  C   UNL     1      44.454   7.628  11.125  0.00  0.00    +0.000 A 
ENDROOT
BRANCH   5   7
ATOM      7  C   UNL     1      43.395   9.898  10.928  0.00  0.00    +0.000 C 
ATOM      8  F   UNL     1      42.219   9.243  10.717  0.00  0.00    +0.000 F 
ATOM      9  F   UNL     1      43.109  10.892  11.815  0.00  0.00    +0.000 F 
ATOM     10  F   UNL     1      43.696  10.518   9.755  0.00  0.00    +0.000 F 
ENDBRANCH   5   7
BRANCH   1  11
ATOM     11  N   UNL     1      45.510   5.408  11.092  0.00  0.00    +0.000 N 
ATOM     12  H   UNL     1      46.401   5.145  10.672  0.00  0.00    +0.000 HD
BRANCH  11  14
ATOM     13  C   UNL     1      45.865   3.745  12.872  0.00  0.00    +0.000 C 
ATOM     14  C   UNL     1      44.918   4.287  11.818  0.00  0.00    +0.000 C 
ATOM     15  C   UNL     1      43.431   4.419  12.219  0.00  0.00    +0.000 C 
ATOM     16  O   UNL     1      42.999   3.681  11.048  0.00  0.00    +0.000 OA
ATOM     17  C   UNL     1      44.359   3.234  10.820  0.00  0.00    +0.000 C 
ENDBRANCH  11  14
ENDBRANCH   1  11
BRANCH   3  18
ATOM     18  C   UNL     1      47.882   9.261  13.188  0.00  0.00    +0.000 C 
BRANCH  18  19
ATOM     19  C   UNL     1      48.990   8.217  13.361  0.00  0.00    +0.000 C 
BRANCH  19  20
ATOM     20  N   UNL     1      49.403   8.077  14.755  0.00  0.00    +0.000 N 
ATOM     21  H   UNL     1      49.626   8.920  15.275  0.00  0.00    +0.000 HD
BRANCH  20  22
ATOM     22  C   UNL     1      49.089   6.936  15.488  0.00  0.00    +0.000 A 
ATOM     23  C   UNL     1      49.507   6.740  16.807  0.00  0.00    +0.000 A 
ATOM     24  C   UNL     1      49.096   5.622  17.535  0.00  0.00    +0.000 A 
ATOM     25  C   UNL     1      48.253   4.711  16.923  0.00  0.00    +0.000 A 
ATOM     26  N   UNL     1      47.810   4.842  15.645  0.00  0.00    +0.000 NA
ATOM     27  C   UNL     1      48.232   5.946  14.978  0.00  0.00    +0.000 A 
BRANCH  25  28
ATOM     28  C   UNL     1      47.776   3.516  17.692  0.00  0.00    +0.000 C 
ATOM     29  N   UNL     1      48.614   3.064  18.669  0.00  0.00    +0.000 N 
ATOM     30  O   UNL     1      46.702   2.967  17.454  0.00  0.00    +0.000 OA
ATOM     31  H   UNL     1      49.503   3.526  18.815  0.00  0.00    +0.000 HD
ATOM     32  H   UNL     1      48.362   2.243  19.205  0.00  0.00    +0.000 HD
ENDBRANCH  25  28
ENDBRANCH  20  22
ENDBRANCH  19  20
ENDBRANCH  18  19
ENDBRANCH   3  18
TORSDOF 8
ENDMDL
MODEL 9
REMARK VINA RESULT:    -6.427      2.744      7.506
REMARK INTER + INTRA:         -10.143
REMARK INTER:                  -9.399
REMARK INTRA:                  -0.744
REMARK UNBOUND:                -0.711
REMARK  Name = 
REMARK  9 active torsions:
REMARK  status: ('A' for Active; 'I' for Inactive)
REMARK    1  A    between atoms: C_1  and  C_2
REMARK    2  A    between atoms: C_2  and  N_3
REMARK    3  A    between atoms: N_3  and  C_4
REMARK    4  A    between atoms: C_6  and  C_7
REMARK    5  A    between atoms: C_7  and  C_8
REMARK    6  A    between atoms: C_8  and  N_9
REMARK    7  A    between atoms: N_9  and  C_10
REMARK    8  A    between atoms: C_13  and  C_14
REMARK    9  A    between atoms: C_20  and  C_21
REMARK                            x       y       z     vdW  Elec       q    Type
REMARK                         _______ _______ _______ _____ _____    ______ ____
ROOT
ATOM      1  C   UNL     1      45.922   5.437  12.426  0.00  0.00    +0.000 A 
ATOM      2  C   UNL     1      47.126   5.511  13.151  0.00  0.00    +0.000 A 
ATOM      3  C   UNL     1      47.666   6.744  13.562  0.00  0.00    +0.000 A 
ATOM      4  C   UNL     1      47.019   7.924  13.176  0.00  0.00    +0.000 A 
ATOM      5  C   UNL     1      45.845   7.877  12.413  0.00  0.00    +0.000 A 
ATOM      6  C   UNL     1      45.291   6.630  12.076  0.00  0.00    +0.000 A 
ENDROOT
BRANCH   5   7
ATOM      7  C   UNL     1      45.185   9.135  11.903  0.00  0.00    +0.000 C 
ATOM      8  F   UNL     1      44.499   9.818  12.860  0.00  0.00    +0.000 F 
ATOM      9  F   UNL     1      46.088  10.019  11.392  0.00  0.00    +0.000 F 
ATOM     10  F   UNL     1      44.295   8.890  10.903  0.00  0.00    +0.000 F 
ENDBRANCH   5   7
BRANCH   1  11
ATOM     11  N   UNL     1      45.426   4.176  12.021  0.00  0.00    +0.000 N 
ATOM     12  H   UNL     1      45.302   3.560  12.823  0.00  0.00    +0.000 HD
BRANCH  11  14
ATOM     13  C   UNL     1      43.024   4.026  11.503  0.00  0.00    +0.000 C 
ATOM     14  C   UNL     1      44.441   3.890  10.980  0.00  0.00    +0.000 C 
ATOM     15  C   UNL     1      44.723   4.463   9.573  0.00  0.00    +0.000 C 
ATOM     16  O   UNL     1      45.317   3.217   9.130  0.00  0.00    +0.000 OA
ATOM     17  C   UNL     1      44.768   2.538  10.287  0.00  0.00    +0.000 C 
ENDBRANCH  11  14
ENDBRANCH   1  11
BRANCH   3  18
ATOM     18  C   UNL     1      48.956   6.810  14.357  0.00  0.00    +0.000 C 
BRANCH  18  19
ATOM     19  C   UNL     1      48.708   7.270  15.798  0.00  0.00    +0.000 C 
BRANCH  19  20
ATOM     20  N   UNL     1      48.246   6.179  16.653  0.00  0.00    +0.000 N 
ATOM     21  H   UNL     1      47.245   6.030  16.739  0.00  0.00    +0.000 HD
BRANCH  20  22
ATOM     22  C   UNL     1      49.083   5.117  16.981  0.00  0.00    +0.000 A 
ATOM     23  C   UNL     1      48.634   3.796  17.076  0.00  0.00    +0.000 A 
ATOM     24  C   UNL     1      49.524   2.750  17.322  0.00  0.00    +0.000 A 
ATOM     25  C   UNL     1      50.869   3.046  17.460  0.00  0.00    +0.000 A 
ATOM     26  N   UNL     1      51.370   4.307  17.380  0.00  0.00    +0.000 NA
ATOM     27  C   UNL     1      50.468   5.292  17.136  0.00  0.00    +0.000 A 
BRANCH  25  28
ATOM     28  C   UNL     1      51.849   1.936  17.698  0.00  0.00    +0.000 C 
ATOM     29  N   UNL     1      51.324   0.677  17.733  0.00  0.00    +0.000 N 
ATOM     30  O   UNL     1      53.049   2.143  17.862  0.00  0.00    +0.000 OA
ATOM     31  H   UNL     1      50.325   0.551  17.622  0.00  0.00    +0.000 HD
ATOM     32  H   UNL     1      51.929  -0.113  17.918  0.00  0.00    +0.000 HD
ENDBRANCH  25  28
ENDBRANCH  20  22
ENDBRANCH  19  20
ENDBRANCH  18  19
ENDBRANCH   3  18
TORSDOF 8
ENDMDL
