MODEL 1
REMARK VINA RESULT:    -8.250      0.000      0.000
REMARK INTER + INTRA:         -11.494
REMARK INTER:                 -10.662
REMARK INTRA:                  -0.832
REMARK UNBOUND:                -0.832
REMARK  Name = 
REMARK  5 active torsions:
REMARK  status: ('A' for Active; 'I' for Inactive)
REMARK    1  A    between atoms: C_2  and  C_5
REMARK    2  A    between atoms: C_9  and  N_10
REMARK    3  A    between atoms: N_10  and  C_11
REMARK    4  A    between atoms: C_11  and  C_12
REMARK    5  A    between atoms: C_16  and  C_17
REMARK                            x       y       z     vdW  Elec       q    Type
REMARK                         _______ _______ _______ _____ _____    ______ ____
ROOT
ATOM      1  C   UNL     1      44.984   6.107  11.241  0.00  0.00    +0.000 C 
ENDROOT
BRANCH   1   2
ATOM      2  C   UNL     1      46.283   6.214  12.008  0.00  0.00    +0.000 A 
ATOM      3  C   UNL     1      47.262   7.128  11.601  0.00  0.00    +0.000 A 
ATOM      4  C   UNL     1      48.393   7.345  12.384  0.00  0.00    +0.000 A 
ATOM      5  C   UNL     1      48.551   6.655  13.588  0.00  0.00    +0.000 A 
ATOM      6  C   UNL     1      47.591   5.728  14.033  0.00  0.00    +0.000 A 
ATOM      7  C   UNL     1      46.479   5.492  13.198  0.00  0.00    +0.000 A 
BRANCH   6   8
ATOM      8  C   UNL     1      47.695   5.083  15.357  0.00  0.00    +0.000 A 
ATOM      9  C   UNL     1      46.804   4.097  15.789  0.00  0.00    +0.000 A 
ATOM     10  N   UNL     1      46.906   3.454  16.979  0.00  0.00    +0.000 NA
ATOM     11  C   UNL     1      47.954   3.830  17.741  0.00  0.00    +0.000 A 
ATOM     12  C   UNL     1      48.850   4.800  17.331  0.00  0.00    +0.000 A 
ATOM     13  N   UNL     1      48.747   5.441  16.141  0.00  0.00    +0.000 NA
ENDBRANCH   6   8
ENDBRANCH   1   2
BRANCH   1  14
ATOM     14  N   UNL     1      45.205   5.831   9.823  0.00  0.00    +0.000 N 
ATOM     15  H   UNL     1      45.999   6.357   9.462  0.00  0.00    +0.000 HD
BRANCH  14  20
ATOM     16  C   UNL     1      46.053   2.769   7.864  0.00  0.00    +0.000 A 
ATOM     17  C   UNL     1      45.286   1.801   8.521  0.00  0.00    +0.000 A 
ATOM     18  C   UNL     1      44.486   2.161   9.600  0.00  0.00    +0.000 A 
ATOM     19  C   UNL     1      44.462   3.487  10.041  0.00  0.00    +0.000 A 
ATOM     20  C   UNL     1      45.253   4.477   9.441  0.00  0.00    +0.000 A 
ATOM     21  C   UNL     1      46.013   4.104   8.322  0.00  0.00    +0.000 A 
BRANCH  16  23
ATOM     22  F   UNL     1      48.216   2.777   6.816  0.00  0.00    +0.000 F 
ATOM     23  C   UNL     1      46.908   2.400   6.681  0.00  0.00    +0.000 C 
ATOM     24  F   UNL     1      46.480   2.983   5.526  0.00  0.00    +0.000 F 
ATOM     25  F   UNL     1      46.935   1.063   6.441  0.00  0.00    +0.000 F 
ENDBRANCH  16  23
ENDBRANCH  14  20
ENDBRANCH   1  14
TORSDOF 5
ENDMDL
MODEL 2
REMARK VINA RESULT:    -7.736      2.124      3.255
REMARK INTER + INTRA:         -10.829
REMARK INTER:                  -9.936
REMARK INTRA:                  -0.893
REMARK UNBOUND:                -0.832
REMARK  Name = 
REMARK  5 active torsions:
REMARK  status: ('A' for Active; 'I' for Inactive)
REMARK    1  A    between atoms: C_2  and  C_5
REMARK    2  A    between atoms: C_9  and  N_10
REMARK    3  A    between atoms: N_10  and  C_11
REMARK    4  A    between atoms: C_11  and  C_12
REMARK    5  A    between atoms: C_16  and  C_17
REMARK                            x       y       z     vdW  Elec       q    Type
REMARK                         _______ _______ _______ _____ _____    ______ ____
ROOT
ATOM      1  C   UNL     1      44.437   5.881  10.970  0.00  0.00    +0.000 C 
ENDROOT
BRANCH   1   2
ATOM      2  C   UNL     1      45.462   5.819  12.080  0.00  0.00    +0.000 A 
ATOM      3  C   UNL     1      45.350   4.847  13.081  0.00  0.00    +0.000 A 
ATOM      4  C   UNL     1      46.366   4.682  14.019  0.00  0.00    +0.000 A 
ATOM      5  C   UNL     1      47.509   5.482  13.960  0.00  0.00    +0.000 A 
ATOM      6  C   UNL     1      47.660   6.471  12.969  0.00  0.00    +0.000 A 
ATOM      7  C   UNL     1      46.596   6.650  12.062  0.00  0.00    +0.000 A 
BRANCH   6   8
ATOM      8  C   UNL     1      48.913   7.240  12.830  0.00  0.00    +0.000 A 
ATOM      9  C   UNL     1      49.751   7.520  13.912  0.00  0.00    +0.000 A 
ATOM     10  N   UNL     1      50.931   8.181  13.804  0.00  0.00    +0.000 NA
ATOM     11  C   UNL     1      51.259   8.557  12.551  0.00  0.00    +0.000 A 
ATOM     12  C   UNL     1      50.447   8.286  11.464  0.00  0.00    +0.000 A 
ATOM     13  N   UNL     1      49.269   7.624  11.575  0.00  0.00    +0.000 NA
ENDBRANCH   6   8
ENDBRANCH   1   2
BRANCH   1  14
ATOM     14  N   UNL     1      45.032   5.633   9.659  0.00  0.00    +0.000 N 
ATOM     15  H   UNL     1      45.892   6.164   9.535  0.00  0.00    +0.000 HD
BRANCH  14  20
ATOM     16  C   UNL     1      46.190   2.638   7.755  0.00  0.00    +0.000 A 
ATOM     17  C   UNL     1      45.437   1.622   8.355  0.00  0.00    +0.000 A 
ATOM     18  C   UNL     1      44.546   1.929   9.378  0.00  0.00    +0.000 A 
ATOM     19  C   UNL     1      44.415   3.248   9.819  0.00  0.00    +0.000 A 
ATOM     20  C   UNL     1      45.185   4.286   9.278  0.00  0.00    +0.000 A 
ATOM     21  C   UNL     1      46.040   3.965   8.212  0.00  0.00    +0.000 A 
BRANCH  16  23
ATOM     22  F   UNL     1      48.417   2.770   6.861  0.00  0.00    +0.000 F 
ATOM     23  C   UNL     1      47.144   2.327   6.631  0.00  0.00    +0.000 C 
ATOM     24  F   UNL     1      46.768   2.901   5.454  0.00  0.00    +0.000 F 
ATOM     25  F   UNL     1      47.257   0.996   6.383  0.00  0.00    +0.000 F 
ENDBRANCH  16  23
ENDBRANCH  14  20
ENDBRANCH   1  14
TORSDOF 5
ENDMDL
MODEL 3
REMARK VINA RESULT:    -7.551      2.727      4.414
REMARK INTER + INTRA:         -10.589
REMARK INTER:                 -10.028
REMARK INTRA:                  -0.561
REMARK UNBOUND:                -0.832
REMARK  Name = 
REMARK  5 active torsions:
REMARK  status: ('A' for Active; 'I' for Inactive)
REMARK    1  A    between atoms: C_2  and  C_5
REMARK    2  A    between atoms: C_9  and  N_10
REMARK    3  A    between atoms: N_10  and  C_11
REMARK    4  A    between atoms: C_11  and  C_12
REMARK    5  A    between atoms: C_16  and  C_17
REMARK                            x       y       z     vdW  Elec       q    Type
REMARK                         _______ _______ _______ _____ _____    ______ ____
ROOT
ATOM      1  C   UNL     1      44.429   2.933  12.070  0.00  0.00    +0.000 C 
ENDROOT
BRANCH   1   2
ATOM      2  C   UNL     1      45.200   4.123  12.596  0.00  0.00    +0.000 A 
ATOM      3  C   UNL     1      46.415   3.928  13.265  0.00  0.00    +0.000 A 
ATOM      4  C   UNL     1      47.207   5.018  13.617  0.00  0.00    +0.000 A 
ATOM      5  C   UNL     1      46.797   6.313  13.296  0.00  0.00    +0.000 A 
ATOM      6  C   UNL     1      45.583   6.551  12.625  0.00  0.00    +0.000 A 
ATOM      7  C   UNL     1      44.777   5.435  12.322  0.00  0.00    +0.000 A 
BRANCH   6   8
ATOM      8  C   UNL     1      45.199   7.906  12.180  0.00  0.00    +0.000 A 
ATOM      9  C   UNL     1      45.889   9.055  12.576  0.00  0.00    +0.000 A 
ATOM     10  N   UNL     1      45.588  10.305  12.143  0.00  0.00    +0.000 NA
ATOM     11  C   UNL     1      44.557  10.374  11.277  0.00  0.00    +0.000 A 
ATOM     12  C   UNL     1      43.862   9.250  10.868  0.00  0.00    +0.000 A 
ATOM     13  N   UNL     1      44.166   8.001  11.301  0.00  0.00    +0.000 NA
ENDBRANCH   6   8
ENDBRANCH   1   2
BRANCH   1  14
ATOM     14  N   UNL     1      43.827   3.201  10.767  0.00  0.00    +0.000 N 
ATOM     15  H   UNL     1      43.142   3.953  10.821  0.00  0.00    +0.000 HD
BRANCH  14  20
ATOM     16  C   UNL     1      46.247   2.361   8.051  0.00  0.00    +0.000 A 
ATOM     17  C   UNL     1      46.609   3.635   7.601  0.00  0.00    +0.000 A 
ATOM     18  C   UNL     1      46.061   4.766   8.198  0.00  0.00    +0.000 A 
ATOM     19  C   UNL     1      45.136   4.630   9.236  0.00  0.00    +0.000 A 
ATOM     20  C   UNL     1      44.711   3.371   9.684  0.00  0.00    +0.000 A 
ATOM     21  C   UNL     1      45.313   2.244   9.104  0.00  0.00    +0.000 A 
BRANCH  16  23
ATOM     22  F   UNL     1      48.209   1.079   7.521  0.00  0.00    +0.000 F 
ATOM     23  C   UNL     1      46.846   1.127   7.431  0.00  0.00    +0.000 C 
ATOM     24  F   UNL     1      46.567   1.023   6.101  0.00  0.00    +0.000 F 
ATOM     25  F   UNL     1      46.400  -0.024   8.000  0.00  0.00    +0.000 F 
ENDBRANCH  16  23
ENDBRANCH  14  20
ENDBRANCH   1  14
TORSDOF 5
ENDMDL
MODEL 4
REMARK VINA RESULT:    -7.317      1.745      2.451
REMARK INTER + INTRA:         -10.288
REMARK INTER:                  -9.740
REMARK INTRA:                  -0.548
REMARK UNBOUND:                -0.832
REMARK  Name = 
REMARK  5 active torsions:
REMARK  status: ('A' for Active; 'I' for Inactive)
REMARK    1  A    between atoms: C_2  and  C_5
REMARK    2  A    between atoms: C_9  and  N_10
REMARK    3  A    between atoms: N_10  and  C_11
REMARK    4  A    between atoms: C_11  and  C_12
REMARK    5  A    between atoms: C_16  and  C_17
REMARK                            x       y       z     vdW  Elec       q    Type
REMARK                         _______ _______ _______ _____ _____    ______ ____
ROOT
ATOM      1  C   UNL     1      44.751   5.691  11.120  0.00  0.00    +0.000 C 
ENDROOT
BRANCH   1   2
ATOM      2  C   UNL     1      45.467   6.903  11.674  0.00  0.00    +0.000 A 
ATOM      3  C   UNL     1      44.851   8.160  11.628  0.00  0.00    +0.000 A 
ATOM      4  C   UNL     1      45.430   9.252  12.269  0.00  0.00    +0.000 A 
ATOM      5  C   UNL     1      46.627   9.096  12.970  0.00  0.00    +0.000 A 
ATOM      6  C   UNL     1      47.278   7.850  13.040  0.00  0.00    +0.000 A 
ATOM      7  C   UNL     1      46.696   6.772  12.343  0.00  0.00    +0.000 A 
BRANCH   6   8
ATOM      8  C   UNL     1      48.481   7.652  13.875  0.00  0.00    +0.000 A 
ATOM      9  C   UNL     1      48.536   6.714  14.909  0.00  0.00    +0.000 A 
ATOM     10  N   UNL     1      49.643   6.477  15.657  0.00  0.00    +0.000 NA
ATOM     11  C   UNL     1      50.720   7.219  15.329  0.00  0.00    +0.000 A 
ATOM     12  C   UNL     1      50.689   8.150  14.306  0.00  0.00    +0.000 A 
ATOM     13  N   UNL     1      49.583   8.384  13.558  0.00  0.00    +0.000 NA
ENDBRANCH   6   8
ENDBRANCH   1   2
BRANCH   1  14
ATOM     14  N   UNL     1      44.997   5.515   9.691  0.00  0.00    +0.000 N 
ATOM     15  H   UNL     1      45.706   6.163   9.353  0.00  0.00    +0.000 HD
BRANCH  14  20
ATOM     16  C   UNL     1      46.292   2.691   7.620  0.00  0.00    +0.000 A 
ATOM     17  C   UNL     1      45.637   1.600   8.202  0.00  0.00    +0.000 A 
ATOM     18  C   UNL     1      44.766   1.799   9.268  0.00  0.00    +0.000 A 
ATOM     19  C   UNL     1      44.557   3.086   9.770  0.00  0.00    +0.000 A 
ATOM     20  C   UNL     1      45.231   4.199   9.247  0.00  0.00    +0.000 A 
ATOM     21  C   UNL     1      46.065   3.984   8.139  0.00  0.00    +0.000 A 
BRANCH  16  23
ATOM     22  F   UNL     1      48.532   2.754   6.751  0.00  0.00    +0.000 F 
ATOM     23  C   UNL     1      47.222   2.497   6.452  0.00  0.00    +0.000 C 
ATOM     24  F   UNL     1      46.922   3.315   5.404  0.00  0.00    +0.000 F 
ATOM     25  F   UNL     1      47.199   1.230   5.960  0.00  0.00    +0.000 F 
ENDBRANCH  16  23
ENDBRANCH  14  20
ENDBRANCH   1  14
TORSDOF 5
ENDMDL
MODEL 5
REMARK VINA RESULT:    -7.150      1.465      2.021
REMARK INTER + INTRA:         -10.071
REMARK INTER:                  -9.326
REMARK INTRA:                  -0.745
REMARK UNBOUND:                -0.832
REMARK  Name = 
REMARK  5 active torsions:
REMARK  status: ('A' for Active; 'I' for Inactive)
REMARK    1  A    between atoms: C_2  and  C_5
REMARK    2  A    between atoms: C_9  and  N_10
REMARK    3  A    between atoms: N_10  and  C_11
REMARK    4  A    between atoms: C_11  and  C_12
REMARK    5  A    between atoms: C_16  and  C_17
REMARK                            x       y       z     vdW  Elec       q    Type
REMARK                         _______ _______ _______ _____ _____    ______ ____
ROOT
ATOM      1  C   UNL     1      45.516   7.381  11.740  0.00  0.00    +0.000 C 
ENDROOT
BRANCH   1   2
ATOM      2  C   UNL     1      46.806   7.205  12.509  0.00  0.00    +0.000 A 
ATOM      3  C   UNL     1      47.871   8.091  12.299  0.00  0.00    +0.000 A 
ATOM      4  C   UNL     1      49.003   8.034  13.107  0.00  0.00    +0.000 A 
ATOM      5  C   UNL     1      49.080   7.097  14.138  0.00  0.00    +0.000 A 
ATOM      6  C   UNL     1      48.032   6.189  14.381  0.00  0.00    +0.000 A 
ATOM      7  C   UNL     1      46.918   6.235  13.520  0.00  0.00    +0.000 A 
BRANCH   6   8
ATOM      8  C   UNL     1      48.056   5.274  15.541  0.00  0.00    +0.000 A 
ATOM      9  C   UNL     1      47.098   4.276  15.735  0.00  0.00    +0.000 A 
ATOM     10  N   UNL     1      47.125   3.391  16.763  0.00  0.00    +0.000 NA
ATOM     11  C   UNL     1      48.166   3.532  17.608  0.00  0.00    +0.000 A 
ATOM     12  C   UNL     1      49.129   4.510  17.433  0.00  0.00    +0.000 A 
ATOM     13  N   UNL     1      49.101   5.392  16.403  0.00  0.00    +0.000 NA
ENDBRANCH   6   8
ENDBRANCH   1   2
BRANCH   1  14
ATOM     14  N   UNL     1      44.452   6.519  12.250  0.00  0.00    +0.000 N 
ATOM     15  H   UNL     1      43.560   7.009  12.281  0.00  0.00    +0.000 HD
BRANCH  14  20
ATOM     16  C   UNL     1      44.773   3.770   9.744  0.00  0.00    +0.000 A 
ATOM     17  C   UNL     1      44.018   2.758  10.348  0.00  0.00    +0.000 A 
ATOM     18  C   UNL     1      43.400   2.987  11.572  0.00  0.00    +0.000 A 
ATOM     19  C   UNL     1      43.547   4.222  12.210  0.00  0.00    +0.000 A 
ATOM     20  C   UNL     1      44.334   5.245  11.662  0.00  0.00    +0.000 A 
ATOM     21  C   UNL     1      44.906   5.012  10.402  0.00  0.00    +0.000 A 
BRANCH  16  23
ATOM     22  F   UNL     1      44.541   3.427   7.376  0.00  0.00    +0.000 F 
ATOM     23  C   UNL     1      45.431   3.547   8.408  0.00  0.00    +0.000 C 
ATOM     24  F   UNL     1      46.178   2.407   8.378  0.00  0.00    +0.000 F 
ATOM     25  F   UNL     1      46.269   4.556   8.054  0.00  0.00    +0.000 F 
ENDBRANCH  16  23
ENDBRANCH  14  20
ENDBRANCH   1  14
TORSDOF 5
ENDMDL
MODEL 6
REMARK VINA RESULT:    -6.828      3.921      7.392
REMARK INTER + INTRA:          -9.655
REMARK INTER:                  -8.886
REMARK INTRA:                  -0.769
REMARK UNBOUND:                -0.832
REMARK  Name = 
REMARK  5 active torsions:
REMARK  status: ('A' for Active; 'I' for Inactive)
REMARK    1  A    between atoms: C_2  and  C_5
REMARK    2  A    between atoms: C_9  and  N_10
REMARK    3  A    between atoms: N_10  and  C_11
REMARK    4  A    between atoms: C_11  and  C_12
REMARK    5  A    between atoms: C_16  and  C_17
REMARK                            x       y       z     vdW  Elec       q    Type
REMARK                         _______ _______ _______ _____ _____    ______ ____
ROOT
ATOM      1  C   UNL     1      44.545   6.480  12.447  0.00  0.00    +0.000 C 
ENDROOT
BRANCH   1   2
ATOM      2  C   UNL     1      44.419   5.067  11.922  0.00  0.00    +0.000 A 
ATOM      3  C   UNL     1      43.480   4.193  12.484  0.00  0.00    +0.000 A 
ATOM      4  C   UNL     1      43.249   2.945  11.911  0.00  0.00    +0.000 A 
ATOM      5  C   UNL     1      43.948   2.562  10.765  0.00  0.00    +0.000 A 
ATOM      6  C   UNL     1      44.900   3.410  10.170  0.00  0.00    +0.000 A 
ATOM      7  C   UNL     1      45.150   4.648  10.796  0.00  0.00    +0.000 A 
BRANCH   6   8
ATOM      8  C   UNL     1      45.557   3.060   8.894  0.00  0.00    +0.000 A 
ATOM      9  C   UNL     1      45.830   4.004   7.901  0.00  0.00    +0.000 A 
ATOM     10  N   UNL     1      46.477   3.718   6.743  0.00  0.00    +0.000 NA
ATOM     11  C   UNL     1      46.857   2.431   6.607  0.00  0.00    +0.000 A 
ATOM     12  C   UNL     1      46.601   1.481   7.579  0.00  0.00    +0.000 A 
ATOM     13  N   UNL     1      45.956   1.769   8.736  0.00  0.00    +0.000 NA
ENDBRANCH   6   8
ENDBRANCH   1   2
BRANCH   1  14
ATOM     14  N   UNL     1      45.835   6.712  13.093  0.00  0.00    +0.000 N 
ATOM     15  H   UNL     1      46.371   5.851  13.173  0.00  0.00    +0.000 HD
BRANCH  14  20
ATOM     16  C   UNL     1      48.807   8.598  11.852  0.00  0.00    +0.000 A 
ATOM     17  C   UNL     1      48.278   9.886  11.714  0.00  0.00    +0.000 A 
ATOM     18  C   UNL     1      46.948  10.130  12.038  0.00  0.00    +0.000 A 
ATOM     19  C   UNL     1      46.134   9.086  12.485  0.00  0.00    +0.000 A 
ATOM     20  C   UNL     1      46.612   7.773  12.590  0.00  0.00    +0.000 A 
ATOM     21  C   UNL     1      47.970   7.557  12.308  0.00  0.00    +0.000 A 
BRANCH  16  23
ATOM     22  F   UNL     1      51.015   8.046  12.626  0.00  0.00    +0.000 F 
ATOM     23  C   UNL     1      50.251   8.320  11.525  0.00  0.00    +0.000 C 
ATOM     24  F   UNL     1      50.861   9.375  10.914  0.00  0.00    +0.000 F 
ATOM     25  F   UNL     1      50.412   7.258  10.693  0.00  0.00    +0.000 F 
ENDBRANCH  16  23
ENDBRANCH  14  20
ENDBRANCH   1  14
TORSDOF 5
ENDMDL
MODEL 7
REMARK VINA RESULT:    -6.737      1.520      2.063
REMARK INTER + INTRA:          -9.538
REMARK INTER:                  -8.753
REMARK INTRA:                  -0.786
REMARK UNBOUND:                -0.832
REMARK  Name = 
REMARK  5 active torsions:
REMARK  status: ('A' for Active; 'I' for Inactive)
REMARK    1  A    between atoms: C_2  and  C_5
REMARK    2  A    between atoms: C_9  and  N_10
REMARK    3  A    between atoms: N_10  and  C_11
REMARK    4  A    between atoms: C_11  and  C_12
REMARK    5  A    between atoms: C_16  and  C_17
REMARK                            x       y       z     vdW  Elec       q    Type
REMARK                         _______ _______ _______ _____ _____    ______ ____
ROOT
ATOM      1  C   UNL     1      45.431   6.570  12.121  0.00  0.00    +0.000 C 
ENDROOT
BRANCH   1   2
ATOM      2  C   UNL     1      46.908   6.802  12.348  0.00  0.00    +0.000 A 
ATOM      3  C   UNL     1      47.686   7.388  11.342  0.00  0.00    +0.000 A 
ATOM      4  C   UNL     1      49.009   7.746  11.592  0.00  0.00    +0.000 A 
ATOM      5  C   UNL     1      49.563   7.529  12.855  0.00  0.00    +0.000 A 
ATOM      6  C   UNL     1      48.816   6.942  13.893  0.00  0.00    +0.000 A 
ATOM      7  C   UNL     1      47.495   6.546  13.599  0.00  0.00    +0.000 A 
BRANCH   6   8
ATOM      8  C   UNL     1      49.359   6.817  15.261  0.00  0.00    +0.000 A 
ATOM      9  C   UNL     1      50.671   7.169  15.588  0.00  0.00    +0.000 A 
ATOM     10  N   UNL     1      51.179   7.111  16.845  0.00  0.00    +0.000 NA
ATOM     11  C   UNL     1      50.314   6.686  17.788  0.00  0.00    +0.000 A 
ATOM     12  C   UNL     1      49.010   6.336  17.488  0.00  0.00    +0.000 A 
ATOM     13  N   UNL     1      48.503   6.397  16.231  0.00  0.00    +0.000 NA
ENDBRANCH   6   8
ENDBRANCH   1   2
BRANCH   1  14
ATOM     14  N   UNL     1      45.120   6.350  10.711  0.00  0.00    +0.000 N 
ATOM     15  H   UNL     1      45.719   6.910  10.107  0.00  0.00    +0.000 HD
BRANCH  14  20
ATOM     16  C   UNL     1      45.653   3.301   8.624  0.00  0.00    +0.000 A 
ATOM     17  C   UNL     1      44.822   2.379   9.268  0.00  0.00    +0.000 A 
ATOM     18  C   UNL     1      44.082   2.766  10.380  0.00  0.00    +0.000 A 
ATOM     19  C   UNL     1      44.183   4.071  10.867  0.00  0.00    +0.000 A 
ATOM     20  C   UNL     1      45.041   5.012  10.281  0.00  0.00    +0.000 A 
ATOM     21  C   UNL     1      45.739   4.617   9.129  0.00  0.00    +0.000 A 
BRANCH  16  23
ATOM     22  F   UNL     1      47.611   3.605   7.264  0.00  0.00    +0.000 F 
ATOM     23  C   UNL     1      46.445   2.905   7.406  0.00  0.00    +0.000 C 
ATOM     24  F   UNL     1      45.756   3.108   6.247  0.00  0.00    +0.000 F 
ATOM     25  F   UNL     1      46.801   1.594   7.408  0.00  0.00    +0.000 F 
ENDBRANCH  16  23
ENDBRANCH  14  20
ENDBRANCH   1  14
TORSDOF 5
ENDMDL
MODEL 8
REMARK VINA RESULT:    -6.712      4.154      7.956
REMARK INTER + INTRA:          -9.505
REMARK INTER:                  -8.846
REMARK INTRA:                  -0.659
REMARK UNBOUND:                -0.832
REMARK  Name = 
REMARK  5 active torsions:
REMARK  status: ('A' for Active; 'I' for Inactive)
REMARK    1  A    between atoms: C_2  and  C_5
REMARK    2  A    between atoms: C_9  and  N_10
REMARK    3  A    between atoms: N_10  and  C_11
REMARK    4  A    between atoms: C_11  and  C_12
REMARK    5  A    between atoms: C_16  and  C_17
REMARK                            x       y       z     vdW  Elec       q    Type
REMARK                         _______ _______ _______ _____ _____    ______ ____
ROOT
ATOM      1  C   UNL     1      48.433   7.435  13.694  0.00  0.00    +0.000 C 
ENDROOT
BRANCH   1   2
ATOM      2  C   UNL     1      47.111   7.399  12.960  0.00  0.00    +0.000 A 
ATOM      3  C   UNL     1      46.302   8.541  12.920  0.00  0.00    +0.000 A 
ATOM      4  C   UNL     1      45.161   8.568  12.123  0.00  0.00    +0.000 A 
ATOM      5  C   UNL     1      44.822   7.456  11.349  0.00  0.00    +0.000 A 
ATOM      6  C   UNL     1      45.609   6.289  11.361  0.00  0.00    +0.000 A 
ATOM      7  C   UNL     1      46.732   6.270  12.213  0.00  0.00    +0.000 A 
BRANCH   6   8
ATOM      8  C   UNL     1      45.322   5.155  10.460  0.00  0.00    +0.000 A 
ATOM      9  C   UNL     1      44.580   4.040  10.860  0.00  0.00    +0.000 A 
ATOM     10  N   UNL     1      44.260   3.009  10.039  0.00  0.00    +0.000 NA
ATOM     11  C   UNL     1      44.709   3.130   8.773  0.00  0.00    +0.000 A 
ATOM     12  C   UNL     1      45.441   4.226   8.353  0.00  0.00    +0.000 A 
ATOM     13  N   UNL     1      45.758   5.257   9.176  0.00  0.00    +0.000 NA
ENDBRANCH   6   8
ENDBRANCH   1   2
BRANCH   1  14
ATOM     14  N   UNL     1      48.254   7.457  15.144  0.00  0.00    +0.000 N 
ATOM     15  H   UNL     1      47.269   7.500  15.397  0.00  0.00    +0.000 HD
BRANCH  14  20
ATOM     16  C   UNL     1      48.889   4.343  17.103  0.00  0.00    +0.000 A 
ATOM     17  C   UNL     1      50.221   4.529  17.491  0.00  0.00    +0.000 A 
ATOM     18  C   UNL     1      50.901   5.681  17.113  0.00  0.00    +0.000 A 
ATOM     19  C   UNL     1      50.262   6.647  16.332  0.00  0.00    +0.000 A 
ATOM     20  C   UNL     1      48.945   6.477  15.882  0.00  0.00    +0.000 A 
ATOM     21  C   UNL     1      48.259   5.332  16.316  0.00  0.00    +0.000 A 
BRANCH  16  23
ATOM     22  F   UNL     1      48.281   2.802  18.844  0.00  0.00    +0.000 F 
ATOM     23  C   UNL     1      48.130   3.111  17.521  0.00  0.00    +0.000 C 
ATOM     24  F   UNL     1      48.527   1.998  16.841  0.00  0.00    +0.000 F 
ATOM     25  F   UNL     1      46.791   3.219  17.319  0.00  0.00    +0.000 F 
ENDBRANCH  16  23
ENDBRANCH  14  20
ENDBRANCH   1  14
TORSDOF 5
ENDMDL
MODEL 9
REMARK VINA RESULT:    -6.587      4.168      7.704
REMARK INTER + INTRA:          -9.344
REMARK INTER:                  -8.575
REMARK INTRA:                  -0.769
REMARK UNBOUND:                -0.832
REMARK  Name = 
REMARK  5 active torsions:
REMARK  status: ('A' for Active; 'I' for Inactive)
REMARK    1  A    between atoms: C_2  and  C_5
REMARK    2  A    between atoms: C_9  and  N_10
REMARK    3  A    between atoms: N_10  and  C_11
REMARK    4  A    between atoms: C_11  and  C_12
REMARK    5  A    between atoms: C_16  and  C_17
REMARK                            x       y       z     vdW  Elec       q    Type
REMARK                         _______ _______ _______ _____ _____    ______ ____
ROOT
ATOM      1  C   UNL     1      44.663   6.422  12.250  0.00  0.00    +0.000 C 
ENDROOT
BRANCH   1   2
ATOM      2  C   UNL     1      44.490   5.022  11.705  0.00  0.00    +0.000 A 
ATOM      3  C   UNL     1      43.486   4.191  12.218  0.00  0.00    +0.000 A 
ATOM      4  C   UNL     1      43.217   2.961  11.624  0.00  0.00    +0.000 A 
ATOM      5  C   UNL     1      43.942   2.554  10.503  0.00  0.00    +0.000 A 
ATOM      6  C   UNL     1      44.959   3.359   9.956  0.00  0.00    +0.000 A 
ATOM      7  C   UNL     1      45.244   4.577  10.605  0.00  0.00    +0.000 A 
BRANCH   6   8
ATOM      8  C   UNL     1      45.650   2.987   8.704  0.00  0.00    +0.000 A 
ATOM      9  C   UNL     1      45.862   3.892   7.662  0.00  0.00    +0.000 A 
ATOM     10  N   UNL     1      46.537   3.591   6.524  0.00  0.00    +0.000 NA
ATOM     11  C   UNL     1      47.010   2.329   6.460  0.00  0.00    +0.000 A 
ATOM     12  C   UNL     1      46.815   1.418   7.483  0.00  0.00    +0.000 A 
ATOM     13  N   UNL     1      46.142   1.722   8.620  0.00  0.00    +0.000 NA
ENDBRANCH   6   8
ENDBRANCH   1   2
BRANCH   1  14
ATOM     14  N   UNL     1      45.663   6.476  13.314  0.00  0.00    +0.000 N 
ATOM     15  H   UNL     1      45.846   5.552  13.699  0.00  0.00    +0.000 HD
BRANCH  14  20
ATOM     16  C   UNL     1      47.942   9.190  12.138  0.00  0.00    +0.000 A 
ATOM     17  C   UNL     1      49.193   8.584  12.293  0.00  0.00    +0.000 A 
ATOM     18  C   UNL     1      49.282   7.283  12.775  0.00  0.00    +0.000 A 
ATOM     19  C   UNL     1      48.123   6.585  13.122  0.00  0.00    +0.000 A 
ATOM     20  C   UNL     1      46.853   7.173  13.029  0.00  0.00    +0.000 A 
ATOM     21  C   UNL     1      46.781   8.467  12.491  0.00  0.00    +0.000 A 
BRANCH  16  23
ATOM     22  F   UNL     1      48.533  11.513  12.318  0.00  0.00    +0.000 F 
ATOM     23  C   UNL     1      47.826  10.591  11.597  0.00  0.00    +0.000 C 
ATOM     24  F   UNL     1      46.540  11.043  11.592  0.00  0.00    +0.000 F 
ATOM     25  F   UNL     1      48.271  10.704  10.319  0.00  0.00    +0.000 F 
ENDBRANCH  16  23
ENDBRANCH  14  20
ENDBRANCH   1  14
TORSDOF 5
ENDMDL
