MODEL 1
REMARK VINA RESULT:    -7.802      0.000      0.000
REMARK INTER + INTRA:         -12.198
REMARK INTER:                 -11.222
REMARK INTRA:                  -0.976
REMARK UNBOUND:                -0.976
REMARK  Name = 
REMARK  8 active torsions:
REMARK  status: ('A' for Active; 'I' for Inactive)
REMARK    1  A    between atoms: N_1  and  C_2
REMARK    2  A    between atoms: C_2  and  C_3
REMARK    3  A    between atoms: C_2  and  C_27
REMARK    4  A    between atoms: C_3  and  N_4
REMARK    5  A    between atoms: C_5  and  C_7
REMARK    6  A    between atoms: C_10  and  C_11
REMARK    7  A    between atoms: C_11  and  N_12
REMARK    8  A    between atoms: C_13  and  C_15
REMARK                            x       y       z     vdW  Elec       q    Type
REMARK                         _______ _______ _______ _____ _____    ______ ____
ROOT
ATOM      1  C   UNL     1      46.290   6.108  11.879  0.00  0.00    +0.000 C 
ATOM      2  C   UNL     1      45.332   7.225  12.285  0.00  0.00    +0.000 C 
ATOM      3  C   UNL     1      45.964   8.212  13.258  0.00  0.00    +0.000 C 
ATOM      4  C   UNL     1      47.297   8.768  12.726  0.00  0.00    +0.000 C 
ATOM      5  C   UNL     1      48.258   7.645  12.302  0.00  0.00    +0.000 C 
ATOM      6  C   UNL     1      47.610   6.651  11.350  0.00  0.00    +0.000 C 
ENDROOT
BRANCH   1   8
ATOM      7  N   UNL     1      45.515   4.164  13.208  0.00  0.00    +0.000 N 
ATOM      8  C   UNL     1      46.494   5.096  13.016  0.00  0.00    +0.000 C 
ATOM      9  O   UNL     1      47.489   5.081  13.746  0.00  0.00    +0.000 OA
ATOM     10  H   UNL     1      45.594   3.620  14.064  0.00  0.00    +0.000 HD
BRANCH   7  11
ATOM     11  C   UNL     1      44.258   4.114  12.485  0.00  0.00    +0.000 C 
BRANCH  11  12
ATOM     12  C   UNL     1      44.211   3.017  11.425  0.00  0.00    +0.000 C 
BRANCH  12  13
ATOM     13  C   UNL     1      44.171   3.725  10.049  0.00  0.00    +0.000 C 
ATOM     14  O   UNL     1      43.837   4.913   9.975  0.00  0.00    +0.000 OA
ATOM     15  N   UNL     1      44.597   3.017   8.931  0.00  0.00    +0.000 N 
ATOM     16  C   UNL     1      45.000   1.606   8.876  0.00  0.00    +0.000 C 
ATOM     17  C   UNL     1      46.402   1.486   8.270  0.00  0.00    +0.000 C 
ATOM     18  O   UNL     1      46.436   2.075   6.961  0.00  0.00    +0.000 OA
ATOM     19  C   UNL     1      46.078   3.467   7.007  0.00  0.00    +0.000 C 
ATOM     20  C   UNL     1      44.681   3.671   7.618  0.00  0.00    +0.000 C 
ENDBRANCH  12  13
BRANCH  12  21
ATOM     21  N   UNL     1      43.022   2.159  11.656  0.00  0.00    +0.000 NA
ATOM     22  H   UNL     1      42.546   2.005  10.768  0.00  0.00    +0.000 HD
ATOM     23  H   UNL     1      42.354   2.687  12.228  0.00  0.00    +0.000 HD
ENDBRANCH  12  21
ENDBRANCH  11  12
ENDBRANCH   7  11
ENDBRANCH   1   8
BRANCH   4  24
ATOM     24  C   UNL     1      47.995   9.650  13.771  0.00  0.00    +0.000 C 
BRANCH  24  25
ATOM     25  N   UNL     1      47.811   9.166  15.118  0.00  0.00    +0.000 N 
ATOM     26  C   UNL     1      48.840   8.699  15.893  0.00  0.00    +0.000 C 
ATOM     27  O   UNL     1      50.005   8.673  15.505  0.00  0.00    +0.000 OA
ATOM     28  H   UNL     1      46.853   9.014  15.413  0.00  0.00    +0.000 HD
BRANCH  26  29
ATOM     29  C   UNL     1      48.473   8.297  17.255  0.00  0.00    +0.000 A 
ATOM     30  C   UNL     1      47.942   9.229  18.136  0.00  0.00    +0.000 A 
ATOM     31  S   UNL     1      47.516   8.564  19.649  0.00  0.00    +0.000 S 
ATOM     32  C   UNL     1      48.078   7.024  19.191  0.00  0.00    +0.000 A 
ATOM     33  N   UNL     1      48.006   5.966  20.049  0.00  0.00    +0.000 NA
ATOM     34  C   UNL     1      48.484   4.866  19.576  0.00  0.00    +0.000 A 
ATOM     35  N   UNL     1      49.020   4.719  18.327  0.00  0.00    +0.000 N 
ATOM     36  C   UNL     1      49.091   5.748  17.419  0.00  0.00    +0.000 A 
ATOM     37  O   UNL     1      49.538   5.569  16.290  0.00  0.00    +0.000 OA
ATOM     38  C   UNL     1      48.569   7.011  17.902  0.00  0.00    +0.000 A 
ATOM     39  H   UNL     1      49.366   3.824  18.008  0.00  0.00    +0.000 HD
ENDBRANCH  26  29
ENDBRANCH  24  25
ENDBRANCH   4  24
TORSDOF 8
ENDMDL
MODEL 2
REMARK VINA RESULT:    -7.792      1.658      1.970
REMARK INTER + INTRA:         -12.185
REMARK INTER:                 -11.478
REMARK INTRA:                  -0.707
REMARK UNBOUND:                -0.976
REMARK  Name = 
REMARK  8 active torsions:
REMARK  status: ('A' for Active; 'I' for Inactive)
REMARK    1  A    between atoms: N_1  and  C_2
REMARK    2  A    between atoms: C_2  and  C_3
REMARK    3  A    between atoms: C_2  and  C_27
REMARK    4  A    between atoms: C_3  and  N_4
REMARK    5  A    between atoms: C_5  and  C_7
REMARK    6  A    between atoms: C_10  and  C_11
REMARK    7  A    between atoms: C_11  and  N_12
REMARK    8  A    between atoms: C_13  and  C_15
REMARK                            x       y       z     vdW  Elec       q    Type
REMARK                         _______ _______ _______ _____ _____    ______ ____
ROOT
ATOM      1  C   UNL     1      45.276   6.518  11.421  0.00  0.00    +0.000 C 
ATOM      2  C   UNL     1      44.810   7.949  11.670  0.00  0.00    +0.000 C 
ATOM      3  C   UNL     1      45.565   8.620  12.811  0.00  0.00    +0.000 C 
ATOM      4  C   UNL     1      47.089   8.542  12.613  0.00  0.00    +0.000 C 
ATOM      5  C   UNL     1      47.560   7.103  12.347  0.00  0.00    +0.000 C 
ATOM      6  C   UNL     1      46.783   6.434  11.223  0.00  0.00    +0.000 C 
ENDROOT
BRANCH   1   8
ATOM      7  N   UNL     1      45.107   4.242  12.389  0.00  0.00    +0.000 N 
ATOM      8  C   UNL     1      44.782   5.562  12.517  0.00  0.00    +0.000 C 
ATOM      9  O   UNL     1      44.125   5.927  13.496  0.00  0.00    +0.000 OA
ATOM     10  H   UNL     1      44.630   3.613  13.030  0.00  0.00    +0.000 HD
BRANCH   7  11
ATOM     11  C   UNL     1      45.798   3.660  11.255  0.00  0.00    +0.000 C 
BRANCH  11  12
ATOM     12  C   UNL     1      44.860   3.006  10.243  0.00  0.00    +0.000 C 
BRANCH  12  13
ATOM     13  C   UNL     1      45.247   3.561   8.850  0.00  0.00    +0.000 C 
ATOM     14  O   UNL     1      45.188   4.775   8.631  0.00  0.00    +0.000 OA
ATOM     15  N   UNL     1      45.734   2.671   7.899  0.00  0.00    +0.000 N 
ATOM     16  C   UNL     1      45.838   1.211   8.022  0.00  0.00    +0.000 C 
ATOM     17  C   UNL     1      47.277   0.765   7.746  0.00  0.00    +0.000 C 
ATOM     18  O   UNL     1      47.697   1.196   6.443  0.00  0.00    +0.000 OA
ATOM     19  C   UNL     1      47.633   2.628   6.322  0.00  0.00    +0.000 C 
ATOM     20  C   UNL     1      46.215   3.156   6.598  0.00  0.00    +0.000 C 
ENDBRANCH  12  13
BRANCH  12  21
ATOM     21  N   UNL     1      43.454   3.312  10.605  0.00  0.00    +0.000 NA
ATOM     22  H   UNL     1      43.365   4.314  10.774  0.00  0.00    +0.000 HD
ATOM     23  H   UNL     1      43.254   2.871  11.509  0.00  0.00    +0.000 HD
ENDBRANCH  12  21
ENDBRANCH  11  12
ENDBRANCH   7  11
ENDBRANCH   1   8
BRANCH   4  24
ATOM     24  C   UNL     1      47.842   9.093  13.833  0.00  0.00    +0.000 C 
BRANCH  24  25
ATOM     25  N   UNL     1      47.914   8.144  14.916  0.00  0.00    +0.000 N 
ATOM     26  C   UNL     1      49.085   7.567  15.332  0.00  0.00    +0.000 C 
ATOM     27  O   UNL     1      50.171   7.829  14.822  0.00  0.00    +0.000 OA
ATOM     28  H   UNL     1      47.029   7.776  15.250  0.00  0.00    +0.000 HD
BRANCH  26  29
ATOM     29  C   UNL     1      48.973   6.665  16.482  0.00  0.00    +0.000 A 
ATOM     30  C   UNL     1      49.543   7.015  17.699  0.00  0.00    +0.000 A 
ATOM     31  S   UNL     1      49.253   5.875  18.935  0.00  0.00    +0.000 S 
ATOM     32  C   UNL     1      48.404   4.854  17.869  0.00  0.00    +0.000 A 
ATOM     33  N   UNL     1      47.874   3.673  18.300  0.00  0.00    +0.000 NA
ATOM     34  C   UNL     1      47.273   2.996  17.382  0.00  0.00    +0.000 A 
ATOM     35  N   UNL     1      47.145   3.386  16.079  0.00  0.00    +0.000 N 
ATOM     36  C   UNL     1      47.640   4.577  15.604  0.00  0.00    +0.000 A 
ATOM     37  O   UNL     1      47.468   4.917  14.436  0.00  0.00    +0.000 OA
ATOM     38  C   UNL     1      48.329   5.379  16.596  0.00  0.00    +0.000 A 
ATOM     39  H   UNL     1      46.649   2.816  15.407  0.00  0.00    +0.000 HD
ENDBRANCH  26  29
ENDBRANCH  24  25
ENDBRANCH   4  24
TORSDOF 8
ENDMDL
MODEL 3
REMARK VINA RESULT:    -7.552      1.917      2.265
REMARK INTER + INTRA:         -11.839
REMARK INTER:                 -10.614
REMARK INTRA:                  -1.225
REMARK UNBOUND:                -0.976
REMARK  Name = 
REMARK  8 active torsions:
REMARK  status: ('A' for Active; 'I' for Inactive)
REMARK    1  A    between atoms: N_1  and  C_2
REMARK    2  A    between atoms: C_2  and  C_3
REMARK    3  A    between atoms: C_2  and  C_27
REMARK    4  A    between atoms: C_3  and  N_4
REMARK    5  A    between atoms: C_5  and  C_7
REMARK    6  A    between atoms: C_10  and  C_11
REMARK    7  A    between atoms: C_11  and  N_12
REMARK    8  A    between atoms: C_13  and  C_15
REMARK                            x       y       z     vdW  Elec       q    Type
REMARK                         _______ _______ _______ _____ _____    ______ ____
ROOT
ATOM      1  C   UNL     1      46.144   6.373  12.343  0.00  0.00    +0.000 C 
ATOM      2  C   UNL     1      45.873   7.635  13.155  0.00  0.00    +0.000 C 
ATOM      3  C   UNL     1      47.148   8.258  13.710  0.00  0.00    +0.000 C 
ATOM      4  C   UNL     1      48.193   8.503  12.607  0.00  0.00    +0.000 C 
ATOM      5  C   UNL     1      48.457   7.236  11.776  0.00  0.00    +0.000 C 
ATOM      6  C   UNL     1      47.176   6.608  11.248  0.00  0.00    +0.000 C 
ENDROOT
BRANCH   1   8
ATOM      7  N   UNL     1      45.641   4.141  13.298  0.00  0.00    +0.000 N 
ATOM      8  C   UNL     1      46.517   5.187  13.245  0.00  0.00    +0.000 C 
ATOM      9  O   UNL     1      47.558   5.132  13.905  0.00  0.00    +0.000 OA
ATOM     10  H   UNL     1      45.827   3.454  14.024  0.00  0.00    +0.000 HD
BRANCH   7  11
ATOM     11  C   UNL     1      44.346   4.105  12.644  0.00  0.00    +0.000 C 
BRANCH  11  12
ATOM     12  C   UNL     1      44.253   3.054  11.541  0.00  0.00    +0.000 C 
BRANCH  12  13
ATOM     13  C   UNL     1      44.248   3.819  10.194  0.00  0.00    +0.000 C 
ATOM     14  O   UNL     1      43.997   5.028  10.172  0.00  0.00    +0.000 OA
ATOM     15  N   UNL     1      44.611   3.128   9.044  0.00  0.00    +0.000 N 
ATOM     16  C   UNL     1      44.913   1.696   8.927  0.00  0.00    +0.000 C 
ATOM     17  C   UNL     1      46.296   1.503   8.297  0.00  0.00    +0.000 C 
ATOM     18  O   UNL     1      46.358   2.141   7.013  0.00  0.00    +0.000 OA
ATOM     19  C   UNL     1      46.098   3.551   7.118  0.00  0.00    +0.000 C 
ATOM     20  C   UNL     1      44.726   3.827   7.756  0.00  0.00    +0.000 C 
ENDBRANCH  12  13
BRANCH  12  21
ATOM     21  N   UNL     1      43.027   2.241  11.736  0.00  0.00    +0.000 NA
ATOM     22  H   UNL     1      42.819   1.742  10.872  0.00  0.00    +0.000 HD
ATOM     23  H   UNL     1      42.238   2.882  11.870  0.00  0.00    +0.000 HD
ENDBRANCH  12  21
ENDBRANCH  11  12
ENDBRANCH   7  11
ENDBRANCH   1   8
BRANCH   4  24
ATOM     24  C   UNL     1      49.523   8.997  13.193  0.00  0.00    +0.000 C 
BRANCH  24  25
ATOM     25  N   UNL     1      50.160   8.013  14.034  0.00  0.00    +0.000 N 
ATOM     26  C   UNL     1      51.035   8.337  15.036  0.00  0.00    +0.000 C 
ATOM     27  O   UNL     1      51.334   9.497  15.309  0.00  0.00    +0.000 OA
ATOM     28  H   UNL     1      50.074   7.047  13.737  0.00  0.00    +0.000 HD
BRANCH  26  29
ATOM     29  C   UNL     1      51.544   7.207  15.821  0.00  0.00    +0.000 A 
ATOM     30  C   UNL     1      52.905   6.934  15.848  0.00  0.00    +0.000 A 
ATOM     31  S   UNL     1      53.314   5.627  16.865  0.00  0.00    +0.000 S 
ATOM     32  C   UNL     1      51.681   5.351  17.258  0.00  0.00    +0.000 A 
ATOM     33  N   UNL     1      51.322   4.347  18.109  0.00  0.00    +0.000 NA
ATOM     34  C   UNL     1      50.052   4.244  18.303  0.00  0.00    +0.000 A 
ATOM     35  N   UNL     1      49.106   5.050  17.734  0.00  0.00    +0.000 N 
ATOM     36  C   UNL     1      49.419   6.090  16.892  0.00  0.00    +0.000 A 
ATOM     37  O   UNL     1      48.546   6.822  16.435  0.00  0.00    +0.000 OA
ATOM     38  C   UNL     1      50.838   6.249  16.637  0.00  0.00    +0.000 A 
ATOM     39  H   UNL     1      48.123   4.928  17.937  0.00  0.00    +0.000 HD
ENDBRANCH  26  29
ENDBRANCH  24  25
ENDBRANCH   4  24
TORSDOF 8
ENDMDL
MODEL 4
REMARK VINA RESULT:    -7.318      2.422      2.954
REMARK INTER + INTRA:         -11.503
REMARK INTER:                 -10.554
REMARK INTRA:                  -0.949
REMARK UNBOUND:                -0.976
REMARK  Name = 
REMARK  8 active torsions:
REMARK  status: ('A' for Active; 'I' for Inactive)
REMARK    1  A    between atoms: N_1  and  C_2
REMARK    2  A    between atoms: C_2  and  C_3
REMARK    3  A    between atoms: C_2  and  C_27
REMARK    4  A    between atoms: C_3  and  N_4
REMARK    5  A    between atoms: C_5  and  C_7
REMARK    6  A    between atoms: C_10  and  C_11
REMARK    7  A    between atoms: C_11  and  N_12
REMARK    8  A    between atoms: C_13  and  C_15
REMARK                            x       y       z     vdW  Elec       q    Type
REMARK                         _______ _______ _______ _____ _____    ______ ____
ROOT
ATOM      1  C   UNL     1      46.856   7.055  12.203  0.00  0.00    +0.000 C 
ATOM      2  C   UNL     1      46.542   8.258  13.086  0.00  0.00    +0.000 C 
ATOM      3  C   UNL     1      47.573   8.458  14.190  0.00  0.00    +0.000 C 
ATOM      4  C   UNL     1      49.006   8.518  13.632  0.00  0.00    +0.000 C 
ATOM      5  C   UNL     1      49.320   7.314  12.728  0.00  0.00    +0.000 C 
ATOM      6  C   UNL     1      48.272   7.108  11.645  0.00  0.00    +0.000 C 
ENDROOT
BRANCH   1   8
ATOM      7  N   UNL     1      45.746   4.840  12.296  0.00  0.00    +0.000 N 
ATOM      8  C   UNL     1      46.568   5.731  12.925  0.00  0.00    +0.000 C 
ATOM      9  O   UNL     1      47.045   5.435  14.024  0.00  0.00    +0.000 OA
ATOM     10  H   UNL     1      45.440   4.054  12.865  0.00  0.00    +0.000 HD
BRANCH   7  11
ATOM     11  C   UNL     1      45.050   5.087  11.048  0.00  0.00    +0.000 C 
BRANCH  11  12
ATOM     12  C   UNL     1      44.965   3.856  10.148  0.00  0.00    +0.000 C 
BRANCH  12  13
ATOM     13  C   UNL     1      45.693   4.214   8.829  0.00  0.00    +0.000 C 
ATOM     14  O   UNL     1      46.100   5.366   8.642  0.00  0.00    +0.000 OA
ATOM     15  N   UNL     1      45.944   3.194   7.918  0.00  0.00    +0.000 N 
ATOM     16  C   UNL     1      45.503   1.796   8.008  0.00  0.00    +0.000 C 
ATOM     17  C   UNL     1      46.710   0.860   7.895  0.00  0.00    +0.000 C 
ATOM     18  O   UNL     1      47.414   1.092   6.666  0.00  0.00    +0.000 OA
ATOM     19  C   UNL     1      47.881   2.450   6.581  0.00  0.00    +0.000 C 
ATOM     20  C   UNL     1      46.724   3.455   6.700  0.00  0.00    +0.000 C 
ENDBRANCH  12  13
BRANCH  12  21
ATOM     21  N   UNL     1      43.539   3.502   9.931  0.00  0.00    +0.000 NA
ATOM     22  H   UNL     1      43.322   3.597   8.939  0.00  0.00    +0.000 HD
ATOM     23  H   UNL     1      42.961   4.208  10.399  0.00  0.00    +0.000 HD
ENDBRANCH  12  21
ENDBRANCH  11  12
ENDBRANCH   7  11
ENDBRANCH   1   8
BRANCH   4  24
ATOM     24  C   UNL     1      50.046   8.576  14.760  0.00  0.00    +0.000 C 
BRANCH  24  25
ATOM     25  N   UNL     1      50.274   7.290  15.372  0.00  0.00    +0.000 N 
ATOM     26  C   UNL     1      49.767   6.942  16.596  0.00  0.00    +0.000 C 
ATOM     27  O   UNL     1      49.062   7.696  17.261  0.00  0.00    +0.000 OA
ATOM     28  H   UNL     1      50.982   6.707  14.939  0.00  0.00    +0.000 HD
BRANCH  26  29
ATOM     29  C   UNL     1      50.059   5.574  17.035  0.00  0.00    +0.000 A 
ATOM     30  C   UNL     1      49.022   4.681  17.266  0.00  0.00    +0.000 A 
ATOM     31  S   UNL     1      49.556   3.121  17.706  0.00  0.00    +0.000 S 
ATOM     32  C   UNL     1      51.187   3.606  17.654  0.00  0.00    +0.000 A 
ATOM     33  N   UNL     1      52.191   2.727  17.937  0.00  0.00    +0.000 NA
ATOM     34  C   UNL     1      53.374   3.235  17.875  0.00  0.00    +0.000 A 
ATOM     35  N   UNL     1      53.652   4.534  17.554  0.00  0.00    +0.000 N 
ATOM     36  C   UNL     1      52.677   5.450  17.238  0.00  0.00    +0.000 A 
ATOM     37  O   UNL     1      52.965   6.598  16.910  0.00  0.00    +0.000 OA
ATOM     38  C   UNL     1      51.325   4.930  17.294  0.00  0.00    +0.000 A 
ATOM     39  H   UNL     1      54.604   4.871  17.509  0.00  0.00    +0.000 HD
ENDBRANCH  26  29
ENDBRANCH  24  25
ENDBRANCH   4  24
TORSDOF 8
ENDMDL
MODEL 5
REMARK VINA RESULT:    -7.251      2.636      8.307
REMARK INTER + INTRA:         -11.407
REMARK INTER:                  -9.927
REMARK INTRA:                  -1.480
REMARK UNBOUND:                -0.976
REMARK  Name = 
REMARK  8 active torsions:
REMARK  status: ('A' for Active; 'I' for Inactive)
REMARK    1  A    between atoms: N_1  and  C_2
REMARK    2  A    between atoms: C_2  and  C_3
REMARK    3  A    between atoms: C_2  and  C_27
REMARK    4  A    between atoms: C_3  and  N_4
REMARK    5  A    between atoms: C_5  and  C_7
REMARK    6  A    between atoms: C_10  and  C_11
REMARK    7  A    between atoms: C_11  and  N_12
REMARK    8  A    between atoms: C_13  and  C_15
REMARK                            x       y       z     vdW  Elec       q    Type
REMARK                         _______ _______ _______ _____ _____    ______ ____
ROOT
ATOM      1  C   UNL     1      49.799   7.952  16.035  0.00  0.00    +0.000 C 
ATOM      2  C   UNL     1      49.416   6.573  15.507  0.00  0.00    +0.000 C 
ATOM      3  C   UNL     1      48.353   6.637  14.418  0.00  0.00    +0.000 C 
ATOM      4  C   UNL     1      48.754   7.593  13.281  0.00  0.00    +0.000 C 
ATOM      5  C   UNL     1      49.155   8.980  13.811  0.00  0.00    +0.000 C 
ATOM      6  C   UNL     1      50.199   8.902  14.915  0.00  0.00    +0.000 C 
ENDROOT
BRANCH   1   8
ATOM      7  N   UNL     1      48.659   8.129  18.229  0.00  0.00    +0.000 N 
ATOM      8  C   UNL     1      48.698   8.542  16.928  0.00  0.00    +0.000 C 
ATOM      9  O   UNL     1      47.867   9.365  16.535  0.00  0.00    +0.000 OA
ATOM     10  H   UNL     1      47.828   8.402  18.748  0.00  0.00    +0.000 HD
BRANCH   7  11
ATOM     11  C   UNL     1      49.515   7.110  18.806  0.00  0.00    +0.000 C 
BRANCH  11  12
ATOM     12  C   UNL     1      48.778   6.164  19.751  0.00  0.00    +0.000 C 
BRANCH  12  13
ATOM     13  C   UNL     1      47.740   5.395  18.897  0.00  0.00    +0.000 C 
ATOM     14  O   UNL     1      46.638   5.902  18.661  0.00  0.00    +0.000 OA
ATOM     15  N   UNL     1      48.115   4.176  18.346  0.00  0.00    +0.000 N 
ATOM     16  C   UNL     1      49.377   3.456  18.560  0.00  0.00    +0.000 C 
ATOM     17  C   UNL     1      50.041   3.154  17.213  0.00  0.00    +0.000 C 
ATOM     18  O   UNL     1      49.158   2.392  16.376  0.00  0.00    +0.000 OA
ATOM     19  C   UNL     1      47.931   3.102  16.130  0.00  0.00    +0.000 C 
ATOM     20  C   UNL     1      47.209   3.454  17.441  0.00  0.00    +0.000 C 
ENDBRANCH  12  13
BRANCH  12  21
ATOM     21  N   UNL     1      48.146   6.949  20.841  0.00  0.00    +0.000 NA
ATOM     22  H   UNL     1      48.277   7.943  20.653  0.00  0.00    +0.000 HD
ATOM     23  H   UNL     1      48.668   6.772  21.706  0.00  0.00    +0.000 HD
ENDBRANCH  12  21
ENDBRANCH  11  12
ENDBRANCH   7  11
ENDBRANCH   1   8
BRANCH   4  24
ATOM     24  C   UNL     1      47.619   7.761  12.261  0.00  0.00    +0.000 C 
BRANCH  24  25
ATOM     25  N   UNL     1      46.873   6.543  12.056  0.00  0.00    +0.000 N 
ATOM     26  C   UNL     1      45.518   6.520  11.852  0.00  0.00    +0.000 C 
ATOM     27  O   UNL     1      44.835   7.540  11.810  0.00  0.00    +0.000 OA
ATOM     28  H   UNL     1      47.365   5.678  12.249  0.00  0.00    +0.000 HD
BRANCH  26  29
ATOM     29  C   UNL     1      44.938   5.195  11.610  0.00  0.00    +0.000 A 
ATOM     30  C   UNL     1      44.243   4.544  12.620  0.00  0.00    +0.000 A 
ATOM     31  S   UNL     1      43.585   3.047  12.134  0.00  0.00    +0.000 S 
ATOM     32  C   UNL     1      44.255   3.197  10.577  0.00  0.00    +0.000 A 
ATOM     33  N   UNL     1      44.066   2.228   9.634  0.00  0.00    +0.000 NA
ATOM     34  C   UNL     1      44.644   2.466   8.506  0.00  0.00    +0.000 A 
ATOM     35  N   UNL     1      45.386   3.579   8.227  0.00  0.00    +0.000 N 
ATOM     36  C   UNL     1      45.583   4.593   9.134  0.00  0.00    +0.000 A 
ATOM     37  O   UNL     1      46.219   5.600   8.834  0.00  0.00    +0.000 OA
ATOM     38  C   UNL     1      44.955   4.374  10.423  0.00  0.00    +0.000 A 
ATOM     39  H   UNL     1      45.804   3.716   7.316  0.00  0.00    +0.000 HD
ENDBRANCH  26  29
ENDBRANCH  24  25
ENDBRANCH   4  24
TORSDOF 8
ENDMDL
MODEL 6
REMARK VINA RESULT:    -7.031      2.818      8.629
REMARK INTER + INTRA:         -11.091
REMARK INTER:                  -9.803
REMARK INTRA:                  -1.288
REMARK UNBOUND:                -0.976
REMARK  Name = 
REMARK  8 active torsions:
REMARK  status: ('A' for Active; 'I' for Inactive)
REMARK    1  A    between atoms: N_1  and  C_2
REMARK    2  A    between atoms: C_2  and  C_3
REMARK    3  A    between atoms: C_2  and  C_27
REMARK    4  A    between atoms: C_3  and  N_4
REMARK    5  A    between atoms: C_5  and  C_7
REMARK    6  A    between atoms: C_10  and  C_11
REMARK    7  A    between atoms: C_11  and  N_12
REMARK    8  A    between atoms: C_13  and  C_15
REMARK                            x       y       z     vdW  Elec       q    Type
REMARK                         _______ _______ _______ _____ _____    ______ ____
ROOT
ATOM      1  C   UNL     1      49.672   8.324  15.255  0.00  0.00    +0.000 C 
ATOM      2  C   UNL     1      49.076   9.650  14.791  0.00  0.00    +0.000 C 
ATOM      3  C   UNL     1      48.377   9.537  13.443  0.00  0.00    +0.000 C 
ATOM      4  C   UNL     1      47.332   8.407  13.432  0.00  0.00    +0.000 C 
ATOM      5  C   UNL     1      47.925   7.073  13.913  0.00  0.00    +0.000 C 
ATOM      6  C   UNL     1      48.643   7.202  15.249  0.00  0.00    +0.000 C 
ENDROOT
BRANCH   1   8
ATOM      7  N   UNL     1      51.964   7.386  15.144  0.00  0.00    +0.000 N 
ATOM      8  C   UNL     1      50.932   7.959  14.457  0.00  0.00    +0.000 C 
ATOM      9  O   UNL     1      51.050   8.146  13.243  0.00  0.00    +0.000 OA
ATOM     10  H   UNL     1      52.839   7.311  14.631  0.00  0.00    +0.000 HD
BRANCH   7  11
ATOM     11  C   UNL     1      51.998   7.184  16.580  0.00  0.00    +0.000 C 
BRANCH  11  12
ATOM     12  C   UNL     1      51.554   5.787  17.006  0.00  0.00    +0.000 C 
BRANCH  12  13
ATOM     13  C   UNL     1      50.504   5.975  18.129  0.00  0.00    +0.000 C 
ATOM     14  O   UNL     1      50.587   6.940  18.896  0.00  0.00    +0.000 OA
ATOM     15  N   UNL     1      49.439   5.083  18.191  0.00  0.00    +0.000 N 
ATOM     16  C   UNL     1      49.231   3.892  17.358  0.00  0.00    +0.000 C 
ATOM     17  C   UNL     1      47.858   3.960  16.682  0.00  0.00    +0.000 C 
ATOM     18  O   UNL     1      46.818   4.081  17.664  0.00  0.00    +0.000 OA
ATOM     19  C   UNL     1      46.992   5.264  18.464  0.00  0.00    +0.000 C 
ATOM     20  C   UNL     1      48.359   5.275  19.168  0.00  0.00    +0.000 C 
ENDBRANCH  12  13
BRANCH  12  21
ATOM     21  N   UNL     1      52.735   5.010  17.458  0.00  0.00    +0.000 NA
ATOM     22  H   UNL     1      53.082   5.409  18.329  0.00  0.00    +0.000 HD
ATOM     23  H   UNL     1      53.490   5.155  16.779  0.00  0.00    +0.000 HD
ENDBRANCH  12  21
ENDBRANCH  11  12
ENDBRANCH   7  11
ENDBRANCH   1   8
BRANCH   4  24
ATOM     24  C   UNL     1      46.735   8.208  12.032  0.00  0.00    +0.000 C 
BRANCH  24  25
ATOM     25  N   UNL     1      46.205   6.880  11.838  0.00  0.00    +0.000 N 
ATOM     26  C   UNL     1      44.893   6.634  11.530  0.00  0.00    +0.000 C 
ATOM     27  O   UNL     1      44.068   7.530  11.378  0.00  0.00    +0.000 OA
ATOM     28  H   UNL     1      46.806   6.113  12.117  0.00  0.00    +0.000 HD
BRANCH  26  29
ATOM     29  C   UNL     1      44.547   5.224  11.318  0.00  0.00    +0.000 A 
ATOM     30  C   UNL     1      43.795   4.543  12.266  0.00  0.00    +0.000 A 
ATOM     31  S   UNL     1      43.436   2.936  11.816  0.00  0.00    +0.000 S 
ATOM     32  C   UNL     1      44.320   3.086  10.370  0.00  0.00    +0.000 A 
ATOM     33  N   UNL     1      44.420   2.042   9.496  0.00  0.00    +0.000 NA
ATOM     34  C   UNL     1      45.133   2.292   8.451  0.00  0.00    +0.000 A 
ATOM     35  N   UNL     1      45.750   3.484   8.192  0.00  0.00    +0.000 N 
ATOM     36  C   UNL     1      45.658   4.570   9.028  0.00  0.00    +0.000 A 
ATOM     37  O   UNL     1      46.189   5.640   8.741  0.00  0.00    +0.000 OA
ATOM     38  C   UNL     1      44.868   4.343  10.222  0.00  0.00    +0.000 A 
ATOM     39  H   UNL     1      46.286   3.623   7.345  0.00  0.00    +0.000 HD
ENDBRANCH  26  29
ENDBRANCH  24  25
ENDBRANCH   4  24
TORSDOF 8
ENDMDL
MODEL 7
REMARK VINA RESULT:    -6.912      1.937      2.276
REMARK INTER + INTRA:         -10.919
REMARK INTER:                  -9.849
REMARK INTRA:                  -1.070
REMARK UNBOUND:                -0.976
REMARK  Name = 
REMARK  8 active torsions:
REMARK  status: ('A' for Active; 'I' for Inactive)
REMARK    1  A    between atoms: N_1  and  C_2
REMARK    2  A    between atoms: C_2  and  C_3
REMARK    3  A    between atoms: C_2  and  C_27
REMARK    4  A    between atoms: C_3  and  N_4
REMARK    5  A    between atoms: C_5  and  C_7
REMARK    6  A    between atoms: C_10  and  C_11
REMARK    7  A    between atoms: C_11  and  N_12
REMARK    8  A    between atoms: C_13  and  C_15
REMARK                            x       y       z     vdW  Elec       q    Type
REMARK                         _______ _______ _______ _____ _____    ______ ____
ROOT
ATOM      1  C   UNL     1      47.694   6.803  11.984  0.00  0.00    +0.000 C 
ATOM      2  C   UNL     1      48.693   7.892  11.605  0.00  0.00    +0.000 C 
ATOM      3  C   UNL     1      48.889   8.918  12.714  0.00  0.00    +0.000 C 
ATOM      4  C   UNL     1      49.252   8.252  14.053  0.00  0.00    +0.000 C 
ATOM      5  C   UNL     1      48.255   7.144  14.431  0.00  0.00    +0.000 C 
ATOM      6  C   UNL     1      48.048   6.138  13.307  0.00  0.00    +0.000 C 
ENDROOT
BRANCH   1   8
ATOM      7  N   UNL     1      45.255   6.414  11.767  0.00  0.00    +0.000 N 
ATOM      8  C   UNL     1      46.250   7.327  11.968  0.00  0.00    +0.000 C 
ATOM      9  O   UNL     1      45.952   8.513  12.134  0.00  0.00    +0.000 OA
ATOM     10  H   UNL     1      44.333   6.807  11.594  0.00  0.00    +0.000 HD
BRANCH   7  11
ATOM     11  C   UNL     1      45.460   5.008  11.476  0.00  0.00    +0.000 C 
BRANCH  11  12
ATOM     12  C   UNL     1      44.648   4.512  10.282  0.00  0.00    +0.000 C 
BRANCH  12  13
ATOM     13  C   UNL     1      45.543   4.683   9.030  0.00  0.00    +0.000 C 
ATOM     14  O   UNL     1      46.161   5.738   8.852  0.00  0.00    +0.000 OA
ATOM     15  N   UNL     1      45.690   3.598   8.173  0.00  0.00    +0.000 N 
ATOM     16  C   UNL     1      45.003   2.303   8.256  0.00  0.00    +0.000 C 
ATOM     17  C   UNL     1      46.032   1.167   8.282  0.00  0.00    +0.000 C 
ATOM     18  O   UNL     1      46.872   1.223   7.120  0.00  0.00    +0.000 OA
ATOM     19  C   UNL     1      47.577   2.474   7.045  0.00  0.00    +0.000 C 
ATOM     20  C   UNL     1      46.609   3.669   7.028  0.00  0.00    +0.000 C 
ENDBRANCH  12  13
BRANCH  12  21
ATOM     21  N   UNL     1      43.386   5.287  10.187  0.00  0.00    +0.000 NA
ATOM     22  H   UNL     1      43.523   6.067   9.545  0.00  0.00    +0.000 HD
ATOM     23  H   UNL     1      43.209   5.721  11.100  0.00  0.00    +0.000 HD
ENDBRANCH  12  21
ENDBRANCH  11  12
ENDBRANCH   7  11
ENDBRANCH   1   8
BRANCH   4  24
ATOM     24  C   UNL     1      49.308   9.278  15.193  0.00  0.00    +0.000 C 
BRANCH  24  25
ATOM     25  N   UNL     1      49.646   8.680  16.462  0.00  0.00    +0.000 N 
ATOM     26  C   UNL     1      48.822   8.726  17.555  0.00  0.00    +0.000 C 
ATOM     27  O   UNL     1      47.720   9.268  17.534  0.00  0.00    +0.000 OA
ATOM     28  H   UNL     1      50.606   8.373  16.571  0.00  0.00    +0.000 HD
BRANCH  26  29
ATOM     29  C   UNL     1      49.308   8.017  18.744  0.00  0.00    +0.000 A 
ATOM     30  C   UNL     1      50.175   8.650  19.625  0.00  0.00    +0.000 A 
ATOM     31  S   UNL     1      50.579   7.695  20.980  0.00  0.00    +0.000 S 
ATOM     32  C   UNL     1      49.652   6.389  20.404  0.00  0.00    +0.000 A 
ATOM     33  N   UNL     1      49.566   5.223  21.108  0.00  0.00    +0.000 NA
ATOM     34  C   UNL     1      48.844   4.316  20.545  0.00  0.00    +0.000 A 
ATOM     35  N   UNL     1      48.194   4.462  19.351  0.00  0.00    +0.000 N 
ATOM     36  C   UNL     1      48.230   5.624  18.619  0.00  0.00    +0.000 A 
ATOM     37  O   UNL     1      47.597   5.735  17.572  0.00  0.00    +0.000 OA
ATOM     38  C   UNL     1      49.032   6.679  19.207  0.00  0.00    +0.000 A 
ATOM     39  H   UNL     1      47.630   3.715  18.967  0.00  0.00    +0.000 HD
ENDBRANCH  26  29
ENDBRANCH  24  25
ENDBRANCH   4  24
TORSDOF 8
ENDMDL
MODEL 8
REMARK VINA RESULT:    -6.789      2.732      5.796
REMARK INTER + INTRA:         -10.743
REMARK INTER:                  -9.120
REMARK INTRA:                  -1.622
REMARK UNBOUND:                -0.976
REMARK  Name = 
REMARK  8 active torsions:
REMARK  status: ('A' for Active; 'I' for Inactive)
REMARK    1  A    between atoms: N_1  and  C_2
REMARK    2  A    between atoms: C_2  and  C_3
REMARK    3  A    between atoms: C_2  and  C_27
REMARK    4  A    between atoms: C_3  and  N_4
REMARK    5  A    between atoms: C_5  and  C_7
REMARK    6  A    between atoms: C_10  and  C_11
REMARK    7  A    between atoms: C_11  and  N_12
REMARK    8  A    between atoms: C_13  and  C_15
REMARK                            x       y       z     vdW  Elec       q    Type
REMARK                         _______ _______ _______ _____ _____    ______ ____
ROOT
ATOM      1  C   UNL     1      44.787   5.937  10.608  0.00  0.00    +0.000 C 
ATOM      2  C   UNL     1      46.122   6.319  11.241  0.00  0.00    +0.000 C 
ATOM      3  C   UNL     1      46.411   5.534  12.514  0.00  0.00    +0.000 C 
ATOM      4  C   UNL     1      46.300   4.016  12.288  0.00  0.00    +0.000 C 
ATOM      5  C   UNL     1      44.963   3.629  11.636  0.00  0.00    +0.000 C 
ATOM      6  C   UNL     1      44.672   4.436  10.380  0.00  0.00    +0.000 C 
ENDROOT
BRANCH   1   8
ATOM      7  N   UNL     1      43.372   7.838  11.335  0.00  0.00    +0.000 N 
ATOM      8  C   UNL     1      43.600   6.494  11.407  0.00  0.00    +0.000 C 
ATOM      9  O   UNL     1      42.850   5.794  12.093  0.00  0.00    +0.000 OA
ATOM     10  H   UNL     1      42.693   8.201  11.999  0.00  0.00    +0.000 HD
BRANCH   7  11
ATOM     11  C   UNL     1      44.217   8.791  10.640  0.00  0.00    +0.000 C 
BRANCH  11  12
ATOM     12  C   UNL     1      44.509  10.049  11.453  0.00  0.00    +0.000 C 
BRANCH  12  13
ATOM     13  C   UNL     1      45.661   9.697  12.426  0.00  0.00    +0.000 C 
ATOM     14  O   UNL     1      45.521   8.779  13.241  0.00  0.00    +0.000 OA
ATOM     15  N   UNL     1      46.864  10.381  12.296  0.00  0.00    +0.000 N 
ATOM     16  C   UNL     1      47.156  11.498  11.389  0.00  0.00    +0.000 C 
ATOM     17  C   UNL     1      48.381  11.167  10.531  0.00  0.00    +0.000 C 
ATOM     18  O   UNL     1      49.516  10.879  11.362  0.00  0.00    +0.000 OA
ATOM     19  C   UNL     1      49.254   9.764  12.232  0.00  0.00    +0.000 C 
ATOM     20  C   UNL     1      48.024  10.016  13.121  0.00  0.00    +0.000 C 
ENDBRANCH  12  13
BRANCH  12  21
ATOM     21  N   UNL     1      43.276  10.474  12.164  0.00  0.00    +0.000 NA
ATOM     22  H   UNL     1      42.630   9.686  12.206  0.00  0.00    +0.000 HD
ATOM     23  H   UNL     1      42.802  11.176  11.587  0.00  0.00    +0.000 HD
ENDBRANCH  12  21
ENDBRANCH  11  12
ENDBRANCH   7  11
ENDBRANCH   1   8
BRANCH   4  24
ATOM     24  C   UNL     1      46.454   3.239  13.604  0.00  0.00    +0.000 C 
BRANCH  24  25
ATOM     25  N   UNL     1      46.758   4.098  14.722  0.00  0.00    +0.000 N 
ATOM     26  C   UNL     1      47.669   3.771  15.692  0.00  0.00    +0.000 C 
ATOM     27  O   UNL     1      48.311   2.724  15.674  0.00  0.00    +0.000 OA
ATOM     28  H   UNL     1      46.136   4.885  14.866  0.00  0.00    +0.000 HD
BRANCH  26  29
ATOM     29  C   UNL     1      47.887   4.789  16.724  0.00  0.00    +0.000 A 
ATOM     30  C   UNL     1      47.465   4.561  18.027  0.00  0.00    +0.000 A 
ATOM     31  S   UNL     1      47.863   5.828  19.099  0.00  0.00    +0.000 S 
ATOM     32  C   UNL     1      48.563   6.742  17.845  0.00  0.00    +0.000 A 
ATOM     33  N   UNL     1      49.109   7.968  18.090  0.00  0.00    +0.000 NA
ATOM     34  C   UNL     1      49.587   8.554  17.046  0.00  0.00    +0.000 A 
ATOM     35  N   UNL     1      49.578   8.031  15.783  0.00  0.00    +0.000 N 
ATOM     36  C   UNL     1      49.062   6.791  15.492  0.00  0.00    +0.000 A 
ATOM     37  O   UNL     1      49.111   6.334  14.353  0.00  0.00    +0.000 OA
ATOM     38  C   UNL     1      48.508   6.089  16.632  0.00  0.00    +0.000 A 
ATOM     39  H   UNL     1      49.983   8.535  15.005  0.00  0.00    +0.000 HD
ENDBRANCH  26  29
ENDBRANCH  24  25
ENDBRANCH   4  24
TORSDOF 8
ENDMDL
MODEL 9
REMARK VINA RESULT:    -6.677      3.407      9.279
REMARK INTER + INTRA:         -10.581
REMARK INTER:                  -8.876
REMARK INTRA:                  -1.705
REMARK UNBOUND:                -0.976
REMARK  Name = 
REMARK  8 active torsions:
REMARK  status: ('A' for Active; 'I' for Inactive)
REMARK    1  A    between atoms: N_1  and  C_2
REMARK    2  A    between atoms: C_2  and  C_3
REMARK    3  A    between atoms: C_2  and  C_27
REMARK    4  A    between atoms: C_3  and  N_4
REMARK    5  A    between atoms: C_5  and  C_7
REMARK    6  A    between atoms: C_10  and  C_11
REMARK    7  A    between atoms: C_11  and  N_12
REMARK    8  A    between atoms: C_13  and  C_15
REMARK                            x       y       z     vdW  Elec       q    Type
REMARK                         _______ _______ _______ _____ _____    ______ ____
ROOT
ATOM      1  C   UNL     1      50.646   5.147  18.425  0.00  0.00    +0.000 C 
ATOM      2  C   UNL     1      49.343   5.535  19.119  0.00  0.00    +0.000 C 
ATOM      3  C   UNL     1      48.112   5.144  18.311  0.00  0.00    +0.000 C 
ATOM      4  C   UNL     1      48.131   3.655  17.923  0.00  0.00    +0.000 C 
ATOM      5  C   UNL     1      49.448   3.258  17.237  0.00  0.00    +0.000 C 
ATOM      6  C   UNL     1      50.672   3.675  18.039  0.00  0.00    +0.000 C 
ENDROOT
BRANCH   1   8
ATOM      7  N   UNL     1      51.917   7.010  17.395  0.00  0.00    +0.000 N 
ATOM      8  C   UNL     1      50.946   6.064  17.230  0.00  0.00    +0.000 C 
ATOM      9  O   UNL     1      50.368   5.981  16.143  0.00  0.00    +0.000 OA
ATOM     10  H   UNL     1      51.977   7.705  16.655  0.00  0.00    +0.000 HD
BRANCH   7  11
ATOM     11  C   UNL     1      52.618   7.277  18.636  0.00  0.00    +0.000 C 
BRANCH  11  12
ATOM     12  C   UNL     1      52.038   8.452  19.419  0.00  0.00    +0.000 C 
BRANCH  12  13
ATOM     13  C   UNL     1      51.704   9.557  18.386  0.00  0.00    +0.000 C 
ATOM     14  O   UNL     1      52.602  10.048  17.694  0.00  0.00    +0.000 OA
ATOM     15  N   UNL     1      50.371   9.910  18.209  0.00  0.00    +0.000 N 
ATOM     16  C   UNL     1      49.215   9.422  18.972  0.00  0.00    +0.000 C 
ATOM     17  C   UNL     1      48.167   8.841  18.017  0.00  0.00    +0.000 C 
ATOM     18  O   UNL     1      47.761   9.825  17.055  0.00  0.00    +0.000 OA
ATOM     19  C   UNL     1      48.880  10.286  16.277  0.00  0.00    +0.000 C 
ATOM     20  C   UNL     1      49.985  10.875  17.170  0.00  0.00    +0.000 C 
ENDBRANCH  12  13
BRANCH  12  21
ATOM     21  N   UNL     1      53.024   8.904  20.433  0.00  0.00    +0.000 NA
ATOM     22  H   UNL     1      53.942   8.975  19.995  0.00  0.00    +0.000 HD
ATOM     23  H   UNL     1      53.121   8.163  21.135  0.00  0.00    +0.000 HD
ENDBRANCH  12  21
ENDBRANCH  11  12
ENDBRANCH   7  11
ENDBRANCH   1   8
BRANCH   4  24
ATOM     24  C   UNL     1      46.961   3.302  16.992  0.00  0.00    +0.000 C 
BRANCH  24  25
ATOM     25  N   UNL     1      46.728   4.311  15.988  0.00  0.00    +0.000 N 
ATOM     26  C   UNL     1      46.974   4.112  14.655  0.00  0.00    +0.000 C 
ATOM     27  O   UNL     1      47.398   3.049  14.209  0.00  0.00    +0.000 OA
ATOM     28  H   UNL     1      46.541   5.248  16.328  0.00  0.00    +0.000 HD
BRANCH  26  29
ATOM     29  C   UNL     1      46.627   5.232  13.774  0.00  0.00    +0.000 A 
ATOM     30  C   UNL     1      47.531   6.269  13.577  0.00  0.00    +0.000 A 
ATOM     31  S   UNL     1      46.980   7.445  12.471  0.00  0.00    +0.000 S 
ATOM     32  C   UNL     1      45.498   6.635  12.263  0.00  0.00    +0.000 A 
ATOM     33  N   UNL     1      44.541   7.126  11.424  0.00  0.00    +0.000 NA
ATOM     34  C   UNL     1      43.463   6.419  11.377  0.00  0.00    +0.000 A 
ATOM     35  N   UNL     1      43.252   5.267  12.083  0.00  0.00    +0.000 N 
ATOM     36  C   UNL     1      44.195   4.721  12.920  0.00  0.00    +0.000 A 
ATOM     37  O   UNL     1      43.988   3.661  13.504  0.00  0.00    +0.000 OA
ATOM     38  C   UNL     1      45.428   5.479  13.012  0.00  0.00    +0.000 A 
ATOM     39  H   UNL     1      42.389   4.749  11.993  0.00  0.00    +0.000 HD
ENDBRANCH  26  29
ENDBRANCH  24  25
ENDBRANCH   4  24
TORSDOF 8
ENDMDL
