MODEL 1
REMARK VINA RESULT:    -6.914      0.000      0.000
REMARK INTER + INTRA:          -8.621
REMARK INTER:                  -8.328
REMARK INTRA:                  -0.292
REMARK UNBOUND:                -0.292
REMARK  Name = 
REMARK  4 active torsions:
REMARK  status: ('A' for Active; 'I' for Inactive)
REMARK    1  A    between atoms: N_1  and  C_2
REMARK    2  A    between atoms: N_6  and  C_7
REMARK    3  A    between atoms: C_7  and  C_8
REMARK    4  A    between atoms: C_8  and  N_9
REMARK                            x       y       z     vdW  Elec       q    Type
REMARK                         _______ _______ _______ _____ _____    ______ ____
ROOT
ATOM      1  C   UNL     1      43.655   3.225  11.547  0.00  0.00    +0.000 C 
ENDROOT
BRANCH   1   6
ATOM      2  C   UNL     1      46.676   4.428  13.577  0.00  0.00    +0.000 C 
ATOM      3  C   UNL     1      46.718   5.873  13.065  0.00  0.00    +0.000 C 
ATOM      4  C   UNL     1      45.310   6.414  12.860  0.00  0.00    +0.000 C 
ATOM      5  C   UNL     1      44.488   5.495  11.955  0.00  0.00    +0.000 C 
ATOM      6  N   UNL     1      44.442   4.105  12.439  0.00  0.00    +0.000 NA
ATOM      7  C   UNL     1      45.805   3.568  12.623  0.00  0.00    +0.000 C 
BRANCH   2   8
ATOM      8  N   UNL     1      46.169   4.410  14.956  0.00  0.00    +0.000 NA
ATOM      9  H   UNL     1      46.017   5.357  15.292  0.00  0.00    +0.000 HD
ATOM     10  H   UNL     1      46.845   3.962  15.570  0.00  0.00    +0.000 HD
ENDBRANCH   2   8
ENDBRANCH   1   6
BRANCH   1  11
ATOM     11  C   UNL     1      44.117   3.267  10.078  0.00  0.00    +0.000 C 
BRANCH  11  12
ATOM     12  N   UNL     1      44.690   1.980   9.642  0.00  0.00    +0.000 N 
ATOM     13  C   UNL     1      45.618   2.178   8.592  0.00  0.00    +0.000 A 
ATOM     14  C   UNL     1      46.283   1.085   8.044  0.00  0.00    +0.000 A 
ATOM     15  C   UNL     1      47.204   1.307   7.023  0.00  0.00    +0.000 A 
ATOM     16  C   UNL     1      47.428   2.599   6.563  0.00  0.00    +0.000 A 
ATOM     17  C   UNL     1      46.719   3.623   7.152  0.00  0.00    +0.000 A 
ATOM     18  N   UNL     1      45.841   3.432   8.151  0.00  0.00    +0.000 NA
ATOM     19  H   UNL     1      43.974   1.350   9.296  0.00  0.00    +0.000 HD
ENDBRANCH  11  12
ENDBRANCH   1  11
TORSDOF 4
ENDMDL
MODEL 2
REMARK VINA RESULT:    -6.701      1.029      1.579
REMARK INTER + INTRA:          -8.365
REMARK INTER:                  -8.050
REMARK INTRA:                  -0.314
REMARK UNBOUND:                -0.292
REMARK  Name = 
REMARK  4 active torsions:
REMARK  status: ('A' for Active; 'I' for Inactive)
REMARK    1  A    between atoms: N_1  and  C_2
REMARK    2  A    between atoms: N_6  and  C_7
REMARK    3  A    between atoms: C_7  and  C_8
REMARK    4  A    between atoms: C_8  and  N_9
REMARK                            x       y       z     vdW  Elec       q    Type
REMARK                         _______ _______ _______ _____ _____    ______ ____
ROOT
ATOM      1  C   UNL     1      43.618   4.939  10.745  0.00  0.00    +0.000 C 
ENDROOT
BRANCH   1   6
ATOM      2  C   UNL     1      46.537   4.567  13.202  0.00  0.00    +0.000 C 
ATOM      3  C   UNL     1      47.258   5.881  12.880  0.00  0.00    +0.000 C 
ATOM      4  C   UNL     1      46.257   6.993  12.602  0.00  0.00    +0.000 C 
ATOM      5  C   UNL     1      45.263   6.587  11.512  0.00  0.00    +0.000 C 
ATOM      6  N   UNL     1      44.565   5.325  11.814  0.00  0.00    +0.000 NA
ATOM      7  C   UNL     1      45.531   4.239  12.067  0.00  0.00    +0.000 C 
BRANCH   2   8
ATOM      8  N   UNL     1      45.876   4.678  14.510  0.00  0.00    +0.000 NA
ATOM      9  H   UNL     1      44.994   5.176  14.423  0.00  0.00    +0.000 HD
ATOM     10  H   UNL     1      46.467   5.194  15.157  0.00  0.00    +0.000 HD
ENDBRANCH   2   8
ENDBRANCH   1   6
BRANCH   1  11
ATOM     11  C   UNL     1      44.149   3.823   9.827  0.00  0.00    +0.000 C 
BRANCH  11  12
ATOM     12  N   UNL     1      44.841   4.364   8.642  0.00  0.00    +0.000 N 
ATOM     13  C   UNL     1      45.646   3.369   8.038  0.00  0.00    +0.000 A 
ATOM     14  C   UNL     1      46.376   3.674   6.893  0.00  0.00    +0.000 A 
ATOM     15  C   UNL     1      47.148   2.674   6.307  0.00  0.00    +0.000 A 
ATOM     16  C   UNL     1      47.189   1.408   6.878  0.00  0.00    +0.000 A 
ATOM     17  C   UNL     1      46.446   1.194   8.019  0.00  0.00    +0.000 A 
ATOM     18  N   UNL     1      45.680   2.139   8.588  0.00  0.00    +0.000 NA
ATOM     19  H   UNL     1      45.451   5.137   8.885  0.00  0.00    +0.000 HD
ENDBRANCH  11  12
ENDBRANCH   1  11
TORSDOF 4
ENDMDL
MODEL 3
REMARK VINA RESULT:    -6.658      1.202      1.477
REMARK INTER + INTRA:          -8.312
REMARK INTER:                  -7.883
REMARK INTRA:                  -0.429
REMARK UNBOUND:                -0.292
REMARK  Name = 
REMARK  4 active torsions:
REMARK  status: ('A' for Active; 'I' for Inactive)
REMARK    1  A    between atoms: N_1  and  C_2
REMARK    2  A    between atoms: N_6  and  C_7
REMARK    3  A    between atoms: C_7  and  C_8
REMARK    4  A    between atoms: C_8  and  N_9
REMARK                            x       y       z     vdW  Elec       q    Type
REMARK                         _______ _______ _______ _____ _____    ______ ____
ROOT
ATOM      1  C   UNL     1      43.595   3.983  12.935  0.00  0.00    +0.000 C 
ENDROOT
BRANCH   1   6
ATOM      2  C   UNL     1      47.165   5.328  13.321  0.00  0.00    +0.000 C 
ATOM      3  C   UNL     1      46.991   6.629  12.530  0.00  0.00    +0.000 C 
ATOM      4  C   UNL     1      45.613   7.229  12.772  0.00  0.00    +0.000 C 
ATOM      5  C   UNL     1      44.506   6.214  12.481  0.00  0.00    +0.000 C 
ATOM      6  N   UNL     1      44.665   4.960  13.237  0.00  0.00    +0.000 NA
ATOM      7  C   UNL     1      45.993   4.365  12.993  0.00  0.00    +0.000 C 
BRANCH   2   8
ATOM      8  N   UNL     1      47.243   5.632  14.757  0.00  0.00    +0.000 NA
ATOM      9  H   UNL     1      47.330   4.776  15.298  0.00  0.00    +0.000 HD
ATOM     10  H   UNL     1      46.399   6.112  15.058  0.00  0.00    +0.000 HD
ENDBRANCH   2   8
ENDBRANCH   1   6
BRANCH   1  11
ATOM     11  C   UNL     1      43.269   3.873  11.435  0.00  0.00    +0.000 C 
BRANCH  11  12
ATOM     12  N   UNL     1      43.795   2.628  10.845  0.00  0.00    +0.000 N 
ATOM     13  C   UNL     1      44.628   2.915   9.737  0.00  0.00    +0.000 A 
ATOM     14  C   UNL     1      45.238   1.873   9.045  0.00  0.00    +0.000 A 
ATOM     15  C   UNL     1      46.066   2.181   7.968  0.00  0.00    +0.000 A 
ATOM     16  C   UNL     1      46.254   3.507   7.598  0.00  0.00    +0.000 A 
ATOM     17  C   UNL     1      45.604   4.477   8.330  0.00  0.00    +0.000 A 
ATOM     18  N   UNL     1      44.817   4.201   9.383  0.00  0.00    +0.000 NA
ATOM     19  H   UNL     1      43.049   2.027  10.512  0.00  0.00    +0.000 HD
ENDBRANCH  11  12
ENDBRANCH   1  11
TORSDOF 4
ENDMDL
MODEL 4
REMARK VINA RESULT:    -6.006      1.753      2.738
REMARK INTER + INTRA:          -7.527
REMARK INTER:                  -7.287
REMARK INTRA:                  -0.240
REMARK UNBOUND:                -0.292
REMARK  Name = 
REMARK  4 active torsions:
REMARK  status: ('A' for Active; 'I' for Inactive)
REMARK    1  A    between atoms: N_1  and  C_2
REMARK    2  A    between atoms: N_6  and  C_7
REMARK    3  A    between atoms: C_7  and  C_8
REMARK    4  A    between atoms: C_8  and  N_9
REMARK                            x       y       z     vdW  Elec       q    Type
REMARK                         _______ _______ _______ _____ _____    ______ ____
ROOT
ATOM      1  C   UNL     1      44.966   4.268  11.226  0.00  0.00    +0.000 C 
ENDROOT
BRANCH   1   6
ATOM      2  C   UNL     1      44.524   7.955  12.176  0.00  0.00    +0.000 C 
ATOM      3  C   UNL     1      45.915   8.191  12.776  0.00  0.00    +0.000 C 
ATOM      4  C   UNL     1      46.977   7.430  11.994  0.00  0.00    +0.000 C 
ATOM      5  C   UNL     1      46.629   5.944  11.886  0.00  0.00    +0.000 C 
ATOM      6  N   UNL     1      45.293   5.708  11.311  0.00  0.00    +0.000 NA
ATOM      7  C   UNL     1      44.257   6.430  12.075  0.00  0.00    +0.000 C 
BRANCH   2   8
ATOM      8  N   UNL     1      44.434   8.619  10.868  0.00  0.00    +0.000 NA
ATOM      9  H   UNL     1      45.318   9.062  10.632  0.00  0.00    +0.000 HD
ATOM     10  H   UNL     1      43.717   9.340  10.892  0.00  0.00    +0.000 HD
ENDBRANCH   2   8
ENDBRANCH   1   6
BRANCH   1  11
ATOM     11  C   UNL     1      44.259   3.874   9.915  0.00  0.00    +0.000 C 
BRANCH  11  12
ATOM     12  N   UNL     1      44.950   4.417   8.730  0.00  0.00    +0.000 N 
ATOM     13  C   UNL     1      45.700   3.406   8.085  0.00  0.00    +0.000 A 
ATOM     14  C   UNL     1      46.419   3.711   6.932  0.00  0.00    +0.000 A 
ATOM     15  C   UNL     1      47.137   2.695   6.305  0.00  0.00    +0.000 A 
ATOM     16  C   UNL     1      47.136   1.414   6.843  0.00  0.00    +0.000 A 
ATOM     17  C   UNL     1      46.408   1.201   7.993  0.00  0.00    +0.000 A 
ATOM     18  N   UNL     1      45.693   2.162   8.602  0.00  0.00    +0.000 NA
ATOM     19  H   UNL     1      45.596   5.158   8.980  0.00  0.00    +0.000 HD
ENDBRANCH  11  12
ENDBRANCH   1  11
TORSDOF 4
ENDMDL
MODEL 5
REMARK VINA RESULT:    -5.973      1.892      2.623
REMARK INTER + INTRA:          -7.487
REMARK INTER:                  -7.378
REMARK INTRA:                  -0.109
REMARK UNBOUND:                -0.292
REMARK  Name = 
REMARK  4 active torsions:
REMARK  status: ('A' for Active; 'I' for Inactive)
REMARK    1  A    between atoms: N_1  and  C_2
REMARK    2  A    between atoms: N_6  and  C_7
REMARK    3  A    between atoms: C_7  and  C_8
REMARK    4  A    between atoms: C_8  and  N_9
REMARK                            x       y       z     vdW  Elec       q    Type
REMARK                         _______ _______ _______ _____ _____    ______ ____
ROOT
ATOM      1  C   UNL     1      45.341   5.074   9.478  0.00  0.00    +0.000 C 
ENDROOT
BRANCH   1   6
ATOM      2  C   UNL     1      42.403   5.236  11.936  0.00  0.00    +0.000 C 
ATOM      3  C   UNL     1      43.204   5.117  13.237  0.00  0.00    +0.000 C 
ATOM      4  C   UNL     1      44.524   5.869  13.130  0.00  0.00    +0.000 C 
ATOM      5  C   UNL     1      45.323   5.417  11.906  0.00  0.00    +0.000 C 
ATOM      6  N   UNL     1      44.560   5.527  10.650  0.00  0.00    +0.000 NA
ATOM      7  C   UNL     1      43.287   4.786  10.743  0.00  0.00    +0.000 C 
BRANCH   2   8
ATOM      8  N   UNL     1      41.923   6.616  11.778  0.00  0.00    +0.000 NA
ATOM      9  H   UNL     1      42.669   7.215  11.435  0.00  0.00    +0.000 HD
ATOM     10  H   UNL     1      41.612   6.982  12.675  0.00  0.00    +0.000 HD
ENDBRANCH   2   8
ENDBRANCH   1   6
BRANCH   1  11
ATOM     11  C   UNL     1      44.612   4.019   8.625  0.00  0.00    +0.000 C 
BRANCH  11  12
ATOM     12  N   UNL     1      45.268   2.700   8.697  0.00  0.00    +0.000 N 
ATOM     13  C   UNL     1      46.153   2.524   7.607  0.00  0.00    +0.000 A 
ATOM     14  C   UNL     1      46.884   1.345   7.496  0.00  0.00    +0.000 A 
ATOM     15  C   UNL     1      47.762   1.201   6.424  0.00  0.00    +0.000 A 
ATOM     16  C   UNL     1      47.878   2.219   5.485  0.00  0.00    +0.000 A 
ATOM     17  C   UNL     1      47.109   3.349   5.663  0.00  0.00    +0.000 A 
ATOM     18  N   UNL     1      46.272   3.514   6.701  0.00  0.00    +0.000 NA
ATOM     19  H   UNL     1      44.593   1.944   8.661  0.00  0.00    +0.000 HD
ENDBRANCH  11  12
ENDBRANCH   1  11
TORSDOF 4
ENDMDL
MODEL 6
REMARK VINA RESULT:    -5.959      1.936      6.483
REMARK INTER + INTRA:          -7.471
REMARK INTER:                  -7.234
REMARK INTRA:                  -0.236
REMARK UNBOUND:                -0.292
REMARK  Name = 
REMARK  4 active torsions:
REMARK  status: ('A' for Active; 'I' for Inactive)
REMARK    1  A    between atoms: N_1  and  C_2
REMARK    2  A    between atoms: N_6  and  C_7
REMARK    3  A    between atoms: C_7  and  C_8
REMARK    4  A    between atoms: C_8  and  N_9
REMARK                            x       y       z     vdW  Elec       q    Type
REMARK                         _______ _______ _______ _____ _____    ______ ____
ROOT
ATOM      1  C   UNL     1      44.459   3.930   8.918  0.00  0.00    +0.000 C 
ENDROOT
BRANCH   1   6
ATOM      2  C   UNL     1      47.345   3.031   6.559  0.00  0.00    +0.000 C 
ATOM      3  C   UNL     1      47.754   1.707   7.215  0.00  0.00    +0.000 C 
ATOM      4  C   UNL     1      46.530   0.948   7.711  0.00  0.00    +0.000 C 
ATOM      5  C   UNL     1      45.673   1.818   8.632  0.00  0.00    +0.000 C 
ATOM      6  N   UNL     1      45.275   3.093   8.010  0.00  0.00    +0.000 NA
ATOM      7  C   UNL     1      46.459   3.841   7.543  0.00  0.00    +0.000 C 
BRANCH   2   8
ATOM      8  N   UNL     1      46.654   2.758   5.291  0.00  0.00    +0.000 NA
ATOM      9  H   UNL     1      45.707   2.432   5.464  0.00  0.00    +0.000 HD
ATOM     10  H   UNL     1      47.148   2.035   4.774  0.00  0.00    +0.000 HD
ENDBRANCH   2   8
ENDBRANCH   1   6
BRANCH   1  11
ATOM     11  C   UNL     1      45.296   4.756   9.912  0.00  0.00    +0.000 C 
BRANCH  11  12
ATOM     12  N   UNL     1      44.586   5.970  10.357  0.00  0.00    +0.000 N 
ATOM     13  C   UNL     1      45.353   6.671  11.316  0.00  0.00    +0.000 A 
ATOM     14  C   UNL     1      44.865   7.858  11.856  0.00  0.00    +0.000 A 
ATOM     15  C   UNL     1      45.646   8.540  12.787  0.00  0.00    +0.000 A 
ATOM     16  C   UNL     1      46.877   8.021  13.169  0.00  0.00    +0.000 A 
ATOM     17  C   UNL     1      47.280   6.834  12.595  0.00  0.00    +0.000 A 
ATOM     18  N   UNL     1      46.551   6.172  11.681  0.00  0.00    +0.000 NA
ATOM     19  H   UNL     1      43.696   5.746  10.788  0.00  0.00    +0.000 HD
ENDBRANCH  11  12
ENDBRANCH   1  11
TORSDOF 4
ENDMDL
MODEL 7
REMARK VINA RESULT:    -5.784      3.487      7.151
REMARK INTER + INTRA:          -7.259
REMARK INTER:                  -7.018
REMARK INTRA:                  -0.242
REMARK UNBOUND:                -0.292
REMARK  Name = 
REMARK  4 active torsions:
REMARK  status: ('A' for Active; 'I' for Inactive)
REMARK    1  A    between atoms: N_1  and  C_2
REMARK    2  A    between atoms: N_6  and  C_7
REMARK    3  A    between atoms: C_7  and  C_8
REMARK    4  A    between atoms: C_8  and  N_9
REMARK                            x       y       z     vdW  Elec       q    Type
REMARK                         _______ _______ _______ _____ _____    ______ ____
ROOT
ATOM      1  C   UNL     1      46.878   5.201  12.945  0.00  0.00    +0.000 C 
ENDROOT
BRANCH   1   6
ATOM      2  C   UNL     1      43.175   5.460  11.988  0.00  0.00    +0.000 C 
ATOM      3  C   UNL     1      43.012   4.062  11.380  0.00  0.00    +0.000 C 
ATOM      4  C   UNL     1      43.824   3.036  12.159  0.00  0.00    +0.000 C 
ATOM      5  C   UNL     1      45.290   3.458  12.272  0.00  0.00    +0.000 C 
ATOM      6  N   UNL     1      45.457   4.801  12.855  0.00  0.00    +0.000 NA
ATOM      7  C   UNL     1      44.685   5.803  12.094  0.00  0.00    +0.000 C 
BRANCH   2   8
ATOM      8  N   UNL     1      42.505   5.510  13.294  0.00  0.00    +0.000 NA
ATOM      9  H   UNL     1      42.646   6.416  13.733  0.00  0.00    +0.000 HD
ATOM     10  H   UNL     1      42.889   4.798  13.911  0.00  0.00    +0.000 HD
ENDBRANCH   2   8
ENDBRANCH   1   6
BRANCH   1  11
ATOM     11  C   UNL     1      47.352   5.466  14.386  0.00  0.00    +0.000 C 
BRANCH  11  12
ATOM     12  N   UNL     1      46.828   4.465  15.334  0.00  0.00    +0.000 N 
ATOM     13  C   UNL     1      47.731   4.271  16.405  0.00  0.00    +0.000 A 
ATOM     14  C   UNL     1      47.416   3.372  17.420  0.00  0.00    +0.000 A 
ATOM     15  C   UNL     1      48.314   3.211  18.472  0.00  0.00    +0.000 A 
ATOM     16  C   UNL     1      49.503   3.930  18.482  0.00  0.00    +0.000 A 
ATOM     17  C   UNL     1      49.743   4.791  17.433  0.00  0.00    +0.000 A 
ATOM     18  N   UNL     1      48.881   4.975  16.419  0.00  0.00    +0.000 NA
ATOM     19  H   UNL     1      46.691   3.564  14.889  0.00  0.00    +0.000 HD
ENDBRANCH  11  12
ENDBRANCH   1  11
TORSDOF 4
ENDMDL
MODEL 8
REMARK VINA RESULT:    -5.720      2.596      6.876
REMARK INTER + INTRA:          -7.182
REMARK INTER:                  -6.960
REMARK INTRA:                  -0.222
REMARK UNBOUND:                -0.292
REMARK  Name = 
REMARK  4 active torsions:
REMARK  status: ('A' for Active; 'I' for Inactive)
REMARK    1  A    between atoms: N_1  and  C_2
REMARK    2  A    between atoms: N_6  and  C_7
REMARK    3  A    between atoms: C_7  and  C_8
REMARK    4  A    between atoms: C_8  and  N_9
REMARK                            x       y       z     vdW  Elec       q    Type
REMARK                         _______ _______ _______ _____ _____    ______ ____
ROOT
ATOM      1  C   UNL     1      45.431   5.636  13.199  0.00  0.00    +0.000 C 
ENDROOT
BRANCH   1   6
ATOM      2  C   UNL     1      44.746   3.955   9.823  0.00  0.00    +0.000 C 
ATOM      3  C   UNL     1      44.177   2.633  10.353  0.00  0.00    +0.000 C 
ATOM      4  C   UNL     1      43.333   2.868  11.598  0.00  0.00    +0.000 C 
ATOM      5  C   UNL     1      44.115   3.638  12.663  0.00  0.00    +0.000 C 
ATOM      6  N   UNL     1      44.665   4.910  12.162  0.00  0.00    +0.000 NA
ATOM      7  C   UNL     1      45.499   4.686  10.966  0.00  0.00    +0.000 C 
BRANCH   2   8
ATOM      8  N   UNL     1      43.656   4.771   9.269  0.00  0.00    +0.000 NA
ATOM      9  H   UNL     1      42.764   4.298   9.382  0.00  0.00    +0.000 HD
ATOM     10  H   UNL     1      43.808   4.926   8.275  0.00  0.00    +0.000 HD
ENDBRANCH   2   8
ENDBRANCH   1   6
BRANCH   1  11
ATOM     11  C   UNL     1      46.410   4.741  13.981  0.00  0.00    +0.000 C 
BRANCH  11  12
ATOM     12  N   UNL     1      47.144   5.496  15.015  0.00  0.00    +0.000 N 
ATOM     13  C   UNL     1      47.839   4.614  15.875  0.00  0.00    +0.000 A 
ATOM     14  C   UNL     1      48.608   5.128  16.916  0.00  0.00    +0.000 A 
ATOM     15  C   UNL     1      49.296   4.241  17.740  0.00  0.00    +0.000 A 
ATOM     16  C   UNL     1      49.191   2.873  17.522  0.00  0.00    +0.000 A 
ATOM     17  C   UNL     1      48.400   2.447  16.477  0.00  0.00    +0.000 A 
ATOM     18  N   UNL     1      47.744   3.287  15.659  0.00  0.00    +0.000 NA
ATOM     19  H   UNL     1      46.517   6.047  15.591  0.00  0.00    +0.000 HD
ENDBRANCH  11  12
ENDBRANCH   1  11
TORSDOF 4
ENDMDL
MODEL 9
REMARK VINA RESULT:    -5.448      3.542      5.927
REMARK INTER + INTRA:          -6.855
REMARK INTER:                  -6.521
REMARK INTRA:                  -0.334
REMARK UNBOUND:                -0.292
REMARK  Name = 
REMARK  4 active torsions:
REMARK  status: ('A' for Active; 'I' for Inactive)
REMARK    1  A    between atoms: N_1  and  C_2
REMARK    2  A    between atoms: N_6  and  C_7
REMARK    3  A    between atoms: C_7  and  C_8
REMARK    4  A    between atoms: C_8  and  N_9
REMARK                            x       y       z     vdW  Elec       q    Type
REMARK                         _______ _______ _______ _____ _____    ______ ____
ROOT
ATOM      1  C   UNL     1      48.184   6.199  15.031  0.00  0.00    +0.000 C 
ENDROOT
BRANCH   1   6
ATOM      2  C   UNL     1      49.721   4.143  17.878  0.00  0.00    +0.000 C 
ATOM      3  C   UNL     1      48.444   3.436  18.347  0.00  0.00    +0.000 C 
ATOM      4  C   UNL     1      47.555   3.085  17.162  0.00  0.00    +0.000 C 
ATOM      5  C   UNL     1      47.262   4.316  16.303  0.00  0.00    +0.000 C 
ATOM      6  N   UNL     1      48.484   5.002  15.848  0.00  0.00    +0.000 NA
ATOM      7  C   UNL     1      49.342   5.361  16.994  0.00  0.00    +0.000 C 
BRANCH   2   8
ATOM      8  N   UNL     1      50.578   3.187  17.163  0.00  0.00    +0.000 NA
ATOM      9  H   UNL     1      50.515   3.335  16.159  0.00  0.00    +0.000 HD
ATOM     10  H   UNL     1      50.278   2.235  17.360  0.00  0.00    +0.000 HD
ENDBRANCH   2   8
ENDBRANCH   1   6
BRANCH   1  11
ATOM     11  C   UNL     1      47.539   5.869  13.672  0.00  0.00    +0.000 C 
BRANCH  11  12
ATOM     12  N   UNL     1      46.161   6.386  13.574  0.00  0.00    +0.000 N 
ATOM     13  C   UNL     1      45.291   5.391  13.071  0.00  0.00    +0.000 A 
ATOM     14  C   UNL     1      43.937   5.674  12.914  0.00  0.00    +0.000 A 
ATOM     15  C   UNL     1      43.096   4.673  12.433  0.00  0.00    +0.000 A 
ATOM     16  C   UNL     1      43.621   3.428  12.106  0.00  0.00    +0.000 A 
ATOM     17  C   UNL     1      44.974   3.235  12.280  0.00  0.00    +0.000 A 
ATOM     18  N   UNL     1      45.798   4.181  12.761  0.00  0.00    +0.000 NA
ATOM     19  H   UNL     1      46.103   7.181  12.947  0.00  0.00    +0.000 HD
ENDBRANCH  11  12
ENDBRANCH   1  11
TORSDOF 4
ENDMDL
