MODEL 1
REMARK VINA RESULT:    -6.791      0.000      0.000
REMARK INTER + INTRA:          -9.166
REMARK INTER:                  -8.577
REMARK INTRA:                  -0.589
REMARK UNBOUND:                -0.589
REMARK  Name = 
REMARK  7 active torsions:
REMARK  status: ('A' for Active; 'I' for Inactive)
REMARK    1  A    between atoms: C_1  and  C_2
REMARK    2  A    between atoms: C_2  and  C_3
REMARK    3  A    between atoms: C_2  and  N_4
REMARK    4  A    between atoms: C_2  and  C_5
REMARK    5  A    between atoms: C_9  and  C_10
REMARK    6  A    between atoms: C_10  and  N_11
REMARK    7  A    between atoms: C_16  and  C_17
REMARK                            x       y       z     vdW  Elec       q    Type
REMARK                         _______ _______ _______ _____ _____    ______ ____
ROOT
ATOM      1  N   UNL     1      47.473   5.478  14.386  0.00  0.00    +0.000 N 
ATOM      2  C   UNL     1      48.168   6.623  14.071  0.00  0.00    +0.000 A 
ATOM      3  C   UNL     1      48.913   6.995  15.162  0.00  0.00    +0.000 A 
ATOM      4  C   UNL     1      48.646   6.064  16.198  0.00  0.00    +0.000 A 
ATOM      5  C   UNL     1      49.054   5.974  17.532  0.00  0.00    +0.000 A 
ATOM      6  C   UNL     1      48.555   4.904  18.256  0.00  0.00    +0.000 A 
ATOM      7  N   UNL     1      47.745   3.929  17.747  0.00  0.00    +0.000 NA
ATOM      8  C   UNL     1      47.364   4.012  16.451  0.00  0.00    +0.000 A 
ATOM      9  C   UNL     1      47.779   5.095  15.679  0.00  0.00    +0.000 A 
ENDROOT
BRANCH   6  10
ATOM     10  C   UNL     1      48.875   4.810  19.717  0.00  0.00    +0.000 C 
ATOM     11  N   UNL     1      48.514   3.636  20.322  0.00  0.00    +0.000 N 
ATOM     12  O   UNL     1      49.406   5.719  20.343  0.00  0.00    +0.000 OA
ATOM     13  H   UNL     1      48.048   2.922  19.779  0.00  0.00    +0.000 HD
ATOM     14  H   UNL     1      48.653   3.523  21.313  0.00  0.00    +0.000 HD
ENDBRANCH   6  10
BRANCH   1  15
ATOM     15  C   UNL     1      46.445   4.892  13.528  0.00  0.00    +0.000 C 
BRANCH  15  20
ATOM     16  C   UNL     1      44.947   4.230  10.707  0.00  0.00    +0.000 C 
ATOM     17  C   UNL     1      43.506   4.379  11.253  0.00  0.00    +0.000 C 
ATOM     18  C   UNL     1      43.433   4.832  12.704  0.00  0.00    +0.000 C 
ATOM     19  C   UNL     1      44.249   6.100  12.921  0.00  0.00    +0.000 C 
ATOM     20  C   UNL     1      45.727   5.883  12.584  0.00  0.00    +0.000 C 
ATOM     21  C   UNL     1      45.835   5.445  11.102  0.00  0.00    +0.000 C 
BRANCH  16  23
ATOM     22  C   UNL     1      45.097   2.427   8.830  0.00  0.00    +0.000 C 
ATOM     23  C   UNL     1      44.948   3.925   9.159  0.00  0.00    +0.000 C 
ATOM     24  C   UNL     1      46.084   4.691   8.447  0.00  0.00    +0.000 C 
BRANCH  23  25
ATOM     25  N   UNL     1      43.678   4.383   8.567  0.00  0.00    +0.000 NA
ATOM     26  H   UNL     1      43.219   5.037   9.202  0.00  0.00    +0.000 HD
ATOM     27  H   UNL     1      43.040   3.598   8.466  0.00  0.00    +0.000 HD
ENDBRANCH  23  25
ENDBRANCH  16  23
ENDBRANCH  15  20
ENDBRANCH   1  15
TORSDOF 5
ENDMDL
MODEL 2
REMARK VINA RESULT:    -6.702      4.683      8.242
REMARK INTER + INTRA:          -9.055
REMARK INTER:                  -8.272
REMARK INTRA:                  -0.783
REMARK UNBOUND:                -0.589
REMARK  Name = 
REMARK  7 active torsions:
REMARK  status: ('A' for Active; 'I' for Inactive)
REMARK    1  A    between atoms: C_1  and  C_2
REMARK    2  A    between atoms: C_2  and  C_3
REMARK    3  A    between atoms: C_2  and  N_4
REMARK    4  A    between atoms: C_2  and  C_5
REMARK    5  A    between atoms: C_9  and  C_10
REMARK    6  A    between atoms: C_10  and  N_11
REMARK    7  A    between atoms: C_16  and  C_17
REMARK                            x       y       z     vdW  Elec       q    Type
REMARK                         _______ _______ _______ _____ _____    ______ ____
ROOT
ATOM      1  N   UNL     1      44.713   5.205  10.633  0.00  0.00    +0.000 N 
ATOM      2  C   UNL     1      43.989   4.232  11.283  0.00  0.00    +0.000 A 
ATOM      3  C   UNL     1      44.198   3.034  10.647  0.00  0.00    +0.000 A 
ATOM      4  C   UNL     1      45.058   3.281   9.546  0.00  0.00    +0.000 A 
ATOM      5  C   UNL     1      45.552   2.472   8.518  0.00  0.00    +0.000 A 
ATOM      6  C   UNL     1      46.372   3.092   7.589  0.00  0.00    +0.000 A 
ATOM      7  N   UNL     1      46.755   4.402   7.639  0.00  0.00    +0.000 NA
ATOM      8  C   UNL     1      46.285   5.178   8.645  0.00  0.00    +0.000 A 
ATOM      9  C   UNL     1      45.408   4.636   9.581  0.00  0.00    +0.000 A 
ENDROOT
BRANCH   6  10
ATOM     10  C   UNL     1      46.849   2.302   6.409  0.00  0.00    +0.000 C 
ATOM     11  N   UNL     1      47.083   3.030   5.272  0.00  0.00    +0.000 N 
ATOM     12  O   UNL     1      47.007   1.088   6.438  0.00  0.00    +0.000 OA
ATOM     13  H   UNL     1      46.910   4.026   5.278  0.00  0.00    +0.000 HD
ATOM     14  H   UNL     1      47.358   2.558   4.426  0.00  0.00    +0.000 HD
ENDBRANCH   6  10
BRANCH   1  15
ATOM     15  C   UNL     1      44.597   6.632  10.924  0.00  0.00    +0.000 C 
BRANCH  15  20
ATOM     16  C   UNL     1      47.471   7.736  12.004  0.00  0.00    +0.000 C 
ATOM     17  C   UNL     1      47.027   9.211  12.158  0.00  0.00    +0.000 C 
ATOM     18  C   UNL     1      45.553   9.453  11.865  0.00  0.00    +0.000 C 
ATOM     19  C   UNL     1      44.675   8.515  12.685  0.00  0.00    +0.000 C 
ATOM     20  C   UNL     1      44.970   7.046  12.366  0.00  0.00    +0.000 C 
ATOM     21  C   UNL     1      46.460   6.764  12.678  0.00  0.00    +0.000 C 
BRANCH  16  23
ATOM     22  C   UNL     1      49.391   8.519  13.584  0.00  0.00    +0.000 C 
ATOM     23  C   UNL     1      48.959   7.529  12.483  0.00  0.00    +0.000 C 
ATOM     24  C   UNL     1      49.943   7.664  11.301  0.00  0.00    +0.000 C 
BRANCH  23  25
ATOM     25  N   UNL     1      49.117   6.168  13.027  0.00  0.00    +0.000 NA
ATOM     26  H   UNL     1      50.097   6.003  13.257  0.00  0.00    +0.000 HD
ATOM     27  H   UNL     1      48.878   5.482  12.316  0.00  0.00    +0.000 HD
ENDBRANCH  23  25
ENDBRANCH  16  23
ENDBRANCH  15  20
ENDBRANCH   1  15
TORSDOF 5
ENDMDL
MODEL 3
REMARK VINA RESULT:    -6.680      3.139      7.359
REMARK INTER + INTRA:          -9.027
REMARK INTER:                  -8.179
REMARK INTRA:                  -0.848
REMARK UNBOUND:                -0.589
REMARK  Name = 
REMARK  7 active torsions:
REMARK  status: ('A' for Active; 'I' for Inactive)
REMARK    1  A    between atoms: C_1  and  C_2
REMARK    2  A    between atoms: C_2  and  C_3
REMARK    3  A    between atoms: C_2  and  N_4
REMARK    4  A    between atoms: C_2  and  C_5
REMARK    5  A    between atoms: C_9  and  C_10
REMARK    6  A    between atoms: C_10  and  N_11
REMARK    7  A    between atoms: C_16  and  C_17
REMARK                            x       y       z     vdW  Elec       q    Type
REMARK                         _______ _______ _______ _____ _____    ______ ____
ROOT
ATOM      1  N   UNL     1      47.562   7.169  13.789  0.00  0.00    +0.000 N 
ATOM      2  C   UNL     1      47.076   8.343  13.260  0.00  0.00    +0.000 A 
ATOM      3  C   UNL     1      45.889   8.076  12.625  0.00  0.00    +0.000 A 
ATOM      4  C   UNL     1      45.647   6.683  12.741  0.00  0.00    +0.000 A 
ATOM      5  C   UNL     1      44.649   5.842  12.242  0.00  0.00    +0.000 A 
ATOM      6  C   UNL     1      44.764   4.498  12.560  0.00  0.00    +0.000 A 
ATOM      7  N   UNL     1      45.742   3.965  13.349  0.00  0.00    +0.000 NA
ATOM      8  C   UNL     1      46.699   4.786  13.842  0.00  0.00    +0.000 A 
ATOM      9  C   UNL     1      46.680   6.140  13.514  0.00  0.00    +0.000 A 
ENDROOT
BRANCH   6  10
ATOM     10  C   UNL     1      43.782   3.532  11.970  0.00  0.00    +0.000 C 
ATOM     11  N   UNL     1      43.789   2.278  12.522  0.00  0.00    +0.000 N 
ATOM     12  O   UNL     1      43.031   3.822  11.047  0.00  0.00    +0.000 OA
ATOM     13  H   UNL     1      44.446   2.066  13.260  0.00  0.00    +0.000 HD
ATOM     14  H   UNL     1      43.191   1.563  12.142  0.00  0.00    +0.000 HD
ENDBRANCH   6  10
BRANCH   1  15
ATOM     15  C   UNL     1      48.890   7.037  14.384  0.00  0.00    +0.000 C 
BRANCH  15  20
ATOM     16  C   UNL     1      48.751   5.218  17.089  0.00  0.00    +0.000 C 
ATOM     17  C   UNL     1      50.266   5.279  17.400  0.00  0.00    +0.000 C 
ATOM     18  C   UNL     1      51.062   6.167  16.454  0.00  0.00    +0.000 C 
ATOM     19  C   UNL     1      50.450   7.560  16.370  0.00  0.00    +0.000 C 
ATOM     20  C   UNL     1      49.010   7.511  15.850  0.00  0.00    +0.000 C 
ATOM     21  C   UNL     1      48.169   6.633  16.809  0.00  0.00    +0.000 C 
BRANCH  16  23
ATOM     22  C   UNL     1      48.740   4.303  19.530  0.00  0.00    +0.000 C 
ATOM     23  C   UNL     1      47.966   4.422  18.202  0.00  0.00    +0.000 C 
ATOM     24  C   UNL     1      47.616   2.998  17.718  0.00  0.00    +0.000 C 
BRANCH  23  25
ATOM     25  N   UNL     1      46.693   5.107  18.492  0.00  0.00    +0.000 NA
ATOM     26  H   UNL     1      46.374   4.854  19.427  0.00  0.00    +0.000 HD
ATOM     27  H   UNL     1      45.972   4.781  17.853  0.00  0.00    +0.000 HD
ENDBRANCH  23  25
ENDBRANCH  16  23
ENDBRANCH  15  20
ENDBRANCH   1  15
TORSDOF 5
ENDMDL
MODEL 4
REMARK VINA RESULT:    -5.895      2.856      3.344
REMARK INTER + INTRA:          -8.035
REMARK INTER:                  -7.444
REMARK INTRA:                  -0.592
REMARK UNBOUND:                -0.589
REMARK  Name = 
REMARK  7 active torsions:
REMARK  status: ('A' for Active; 'I' for Inactive)
REMARK    1  A    between atoms: C_1  and  C_2
REMARK    2  A    between atoms: C_2  and  C_3
REMARK    3  A    between atoms: C_2  and  N_4
REMARK    4  A    between atoms: C_2  and  C_5
REMARK    5  A    between atoms: C_9  and  C_10
REMARK    6  A    between atoms: C_10  and  N_11
REMARK    7  A    between atoms: C_16  and  C_17
REMARK                            x       y       z     vdW  Elec       q    Type
REMARK                         _______ _______ _______ _____ _____    ______ ____
ROOT
ATOM      1  N   UNL     1      46.060   6.860  12.676  0.00  0.00    +0.000 N 
ATOM      2  C   UNL     1      45.524   8.071  12.302  0.00  0.00    +0.000 A 
ATOM      3  C   UNL     1      46.299   9.073  12.831  0.00  0.00    +0.000 A 
ATOM      4  C   UNL     1      47.333   8.461  13.583  0.00  0.00    +0.000 A 
ATOM      5  C   UNL     1      48.360   8.966  14.385  0.00  0.00    +0.000 A 
ATOM      6  C   UNL     1      49.184   8.029  14.989  0.00  0.00    +0.000 A 
ATOM      7  N   UNL     1      49.087   6.678  14.816  0.00  0.00    +0.000 NA
ATOM      8  C   UNL     1      48.100   6.195  14.026  0.00  0.00    +0.000 A 
ATOM      9  C   UNL     1      47.196   7.075  13.435  0.00  0.00    +0.000 A 
ENDROOT
BRANCH   6  10
ATOM     10  C   UNL     1      50.239   8.506  15.941  0.00  0.00    +0.000 C 
ATOM     11  N   UNL     1      51.309   7.666  16.100  0.00  0.00    +0.000 N 
ATOM     12  O   UNL     1      50.155   9.562  16.556  0.00  0.00    +0.000 OA
ATOM     13  H   UNL     1      51.326   6.787  15.600  0.00  0.00    +0.000 HD
ATOM     14  H   UNL     1      52.031   7.898  16.762  0.00  0.00    +0.000 HD
ENDBRANCH   6  10
BRANCH   1  15
ATOM     15  C   UNL     1      45.404   5.576  12.442  0.00  0.00    +0.000 C 
BRANCH  15  20
ATOM     16  C   UNL     1      45.041   3.636   9.844  0.00  0.00    +0.000 C 
ATOM     17  C   UNL     1      43.896   2.783  10.441  0.00  0.00    +0.000 C 
ATOM     18  C   UNL     1      43.417   3.251  11.809  0.00  0.00    +0.000 C 
ATOM     19  C   UNL     1      43.058   4.731  11.783  0.00  0.00    +0.000 C 
ATOM     20  C   UNL     1      44.263   5.596  11.399  0.00  0.00    +0.000 C 
ATOM     21  C   UNL     1      44.757   5.159   9.998  0.00  0.00    +0.000 C 
BRANCH  16  23
ATOM     22  C   UNL     1      45.877   1.752   8.248  0.00  0.00    +0.000 C 
ATOM     23  C   UNL     1      45.369   3.203   8.364  0.00  0.00    +0.000 C 
ATOM     24  C   UNL     1      46.429   4.136   7.738  0.00  0.00    +0.000 C 
BRANCH  23  25
ATOM     25  N   UNL     1      44.154   3.312   7.537  0.00  0.00    +0.000 NA
ATOM     26  H   UNL     1      44.078   4.257   7.161  0.00  0.00    +0.000 HD
ATOM     27  H   UNL     1      43.328   3.174   8.115  0.00  0.00    +0.000 HD
ENDBRANCH  23  25
ENDBRANCH  16  23
ENDBRANCH  15  20
ENDBRANCH   1  15
TORSDOF 5
ENDMDL
MODEL 5
REMARK VINA RESULT:    -5.895      4.192      7.372
REMARK INTER + INTRA:          -8.035
REMARK INTER:                  -7.499
REMARK INTRA:                  -0.536
REMARK UNBOUND:                -0.589
REMARK  Name = 
REMARK  7 active torsions:
REMARK  status: ('A' for Active; 'I' for Inactive)
REMARK    1  A    between atoms: C_1  and  C_2
REMARK    2  A    between atoms: C_2  and  C_3
REMARK    3  A    between atoms: C_2  and  N_4
REMARK    4  A    between atoms: C_2  and  C_5
REMARK    5  A    between atoms: C_9  and  C_10
REMARK    6  A    between atoms: C_10  and  N_11
REMARK    7  A    between atoms: C_16  and  C_17
REMARK                            x       y       z     vdW  Elec       q    Type
REMARK                         _______ _______ _______ _____ _____    ______ ____
ROOT
ATOM      1  N   UNL     1      47.289   6.815  12.830  0.00  0.00    +0.000 N 
ATOM      2  C   UNL     1      47.642   6.311  14.061  0.00  0.00    +0.000 A 
ATOM      3  C   UNL     1      47.090   5.062  14.196  0.00  0.00    +0.000 A 
ATOM      4  C   UNL     1      46.343   4.797  13.020  0.00  0.00    +0.000 A 
ATOM      5  C   UNL     1      45.524   3.735  12.626  0.00  0.00    +0.000 A 
ATOM      6  C   UNL     1      44.934   3.845  11.378  0.00  0.00    +0.000 A 
ATOM      7  N   UNL     1      45.133   4.880  10.510  0.00  0.00    +0.000 NA
ATOM      8  C   UNL     1      45.939   5.900  10.890  0.00  0.00    +0.000 A 
ATOM      9  C   UNL     1      46.518   5.885  12.156  0.00  0.00    +0.000 A 
ENDROOT
BRANCH   6  10
ATOM     10  C   UNL     1      43.965   2.788  10.943  0.00  0.00    +0.000 C 
ATOM     11  N   UNL     1      44.317   2.099   9.812  0.00  0.00    +0.000 N 
ATOM     12  O   UNL     1      42.920   2.555  11.537  0.00  0.00    +0.000 OA
ATOM     13  H   UNL     1      45.172   2.343   9.331  0.00  0.00    +0.000 HD
ATOM     14  H   UNL     1      43.690   1.409   9.434  0.00  0.00    +0.000 HD
ENDBRANCH   6  10
BRANCH   1  15
ATOM     15  C   UNL     1      47.552   8.190  12.411  0.00  0.00    +0.000 C 
BRANCH  15  20
ATOM     16  C   UNL     1      50.566   8.786  11.315  0.00  0.00    +0.000 C 
ATOM     17  C   UNL     1      50.356  10.303  11.089  0.00  0.00    +0.000 C 
ATOM     18  C   UNL     1      48.995  10.818  11.536  0.00  0.00    +0.000 C 
ATOM     19  C   UNL     1      48.711  10.422  12.980  0.00  0.00    +0.000 C 
ATOM     20  C   UNL     1      48.705   8.900  13.155  0.00  0.00    +0.000 C 
ATOM     21  C   UNL     1      50.089   8.350  12.730  0.00  0.00    +0.000 C 
BRANCH  16  23
ATOM     22  C   UNL     1      52.910   9.503  10.426  0.00  0.00    +0.000 C 
ATOM     23  C   UNL     1      52.048   8.355  10.989  0.00  0.00    +0.000 C 
ATOM     24  C   UNL     1      52.073   7.191   9.974  0.00  0.00    +0.000 C 
BRANCH  23  25
ATOM     25  N   UNL     1      52.703   7.873  12.219  0.00  0.00    +0.000 NA
ATOM     26  H   UNL     1      52.196   7.067  12.584  0.00  0.00    +0.000 HD
ATOM     27  H   UNL     1      52.650   8.587  12.941  0.00  0.00    +0.000 HD
ENDBRANCH  23  25
ENDBRANCH  16  23
ENDBRANCH  15  20
ENDBRANCH   1  15
TORSDOF 5
ENDMDL
MODEL 6
REMARK VINA RESULT:    -5.869      3.221      7.865
REMARK INTER + INTRA:          -8.002
REMARK INTER:                  -7.547
REMARK INTRA:                  -0.455
REMARK UNBOUND:                -0.589
REMARK  Name = 
REMARK  7 active torsions:
REMARK  status: ('A' for Active; 'I' for Inactive)
REMARK    1  A    between atoms: C_1  and  C_2
REMARK    2  A    between atoms: C_2  and  C_3
REMARK    3  A    between atoms: C_2  and  N_4
REMARK    4  A    between atoms: C_2  and  C_5
REMARK    5  A    between atoms: C_9  and  C_10
REMARK    6  A    between atoms: C_10  and  N_11
REMARK    7  A    between atoms: C_16  and  C_17
REMARK                            x       y       z     vdW  Elec       q    Type
REMARK                         _______ _______ _______ _____ _____    ______ ____
ROOT
ATOM      1  N   UNL     1      48.046   6.855  14.198  0.00  0.00    +0.000 N 
ATOM      2  C   UNL     1      47.842   7.970  13.418  0.00  0.00    +0.000 A 
ATOM      3  C   UNL     1      46.887   7.675  12.478  0.00  0.00    +0.000 A 
ATOM      4  C   UNL     1      46.509   6.321  12.664  0.00  0.00    +0.000 A 
ATOM      5  C   UNL     1      45.646   5.465  11.974  0.00  0.00    +0.000 A 
ATOM      6  C   UNL     1      45.550   4.170  12.457  0.00  0.00    +0.000 A 
ATOM      7  N   UNL     1      46.195   3.702  13.566  0.00  0.00    +0.000 NA
ATOM      8  C   UNL     1      47.018   4.539  14.240  0.00  0.00    +0.000 A 
ATOM      9  C   UNL     1      47.210   5.838  13.775  0.00  0.00    +0.000 A 
ENDROOT
BRANCH   6  10
ATOM     10  C   UNL     1      44.720   3.178  11.700  0.00  0.00    +0.000 C 
ATOM     11  N   UNL     1      43.810   2.481  12.449  0.00  0.00    +0.000 N 
ATOM     12  O   UNL     1      44.846   2.981  10.498  0.00  0.00    +0.000 OA
ATOM     13  H   UNL     1      43.758   2.648  13.445  0.00  0.00    +0.000 HD
ATOM     14  H   UNL     1      43.253   1.762  12.016  0.00  0.00    +0.000 HD
ENDBRANCH   6  10
BRANCH   1  15
ATOM     15  C   UNL     1      49.115   6.745  15.189  0.00  0.00    +0.000 C 
BRANCH  15  20
ATOM     16  C   UNL     1      50.943   5.320  17.485  0.00  0.00    +0.000 C 
ATOM     17  C   UNL     1      51.032   6.559  18.408  0.00  0.00    +0.000 C 
ATOM     18  C   UNL     1      50.215   7.752  17.933  0.00  0.00    +0.000 C 
ATOM     19  C   UNL     1      48.768   7.351  17.671  0.00  0.00    +0.000 C 
ATOM     20  C   UNL     1      48.671   6.269  16.591  0.00  0.00    +0.000 C 
ATOM     21  C   UNL     1      49.474   5.032  17.060  0.00  0.00    +0.000 C 
BRANCH  16  23
ATOM     22  C   UNL     1      53.197   4.078  17.897  0.00  0.00    +0.000 C 
ATOM     23  C   UNL     1      51.672   4.075  18.121  0.00  0.00    +0.000 C 
ATOM     24  C   UNL     1      51.104   2.755  17.554  0.00  0.00    +0.000 C 
BRANCH  23  25
ATOM     25  N   UNL     1      51.439   4.058  19.577  0.00  0.00    +0.000 NA
ATOM     26  H   UNL     1      50.437   4.092  19.764  0.00  0.00    +0.000 HD
ATOM     27  H   UNL     1      51.831   4.896  19.999  0.00  0.00    +0.000 HD
ENDBRANCH  23  25
ENDBRANCH  16  23
ENDBRANCH  15  20
ENDBRANCH   1  15
TORSDOF 5
ENDMDL
MODEL 7
REMARK VINA RESULT:    -5.835      3.333      7.404
REMARK INTER + INTRA:          -7.959
REMARK INTER:                  -7.085
REMARK INTRA:                  -0.874
REMARK UNBOUND:                -0.589
REMARK  Name = 
REMARK  7 active torsions:
REMARK  status: ('A' for Active; 'I' for Inactive)
REMARK    1  A    between atoms: C_1  and  C_2
REMARK    2  A    between atoms: C_2  and  C_3
REMARK    3  A    between atoms: C_2  and  N_4
REMARK    4  A    between atoms: C_2  and  C_5
REMARK    5  A    between atoms: C_9  and  C_10
REMARK    6  A    between atoms: C_10  and  N_11
REMARK    7  A    between atoms: C_16  and  C_17
REMARK                            x       y       z     vdW  Elec       q    Type
REMARK                         _______ _______ _______ _____ _____    ______ ____
ROOT
ATOM      1  N   UNL     1      46.984   8.227  12.563  0.00  0.00    +0.000 N 
ATOM      2  C   UNL     1      46.147   9.217  12.101  0.00  0.00    +0.000 A 
ATOM      3  C   UNL     1      44.935   8.653  11.791  0.00  0.00    +0.000 A 
ATOM      4  C   UNL     1      45.036   7.260  12.041  0.00  0.00    +0.000 A 
ATOM      5  C   UNL     1      44.160   6.188  11.849  0.00  0.00    +0.000 A 
ATOM      6  C   UNL     1      44.636   4.936  12.206  0.00  0.00    +0.000 A 
ATOM      7  N   UNL     1      45.859   4.696  12.763  0.00  0.00    +0.000 NA
ATOM      8  C   UNL     1      46.698   5.740  12.961  0.00  0.00    +0.000 A 
ATOM      9  C   UNL     1      46.310   7.020  12.569  0.00  0.00    +0.000 A 
ENDROOT
BRANCH   6  10
ATOM     10  C   UNL     1      43.782   3.736  11.928  0.00  0.00    +0.000 C 
ATOM     11  N   UNL     1      44.119   2.604  12.623  0.00  0.00    +0.000 N 
ATOM     12  O   UNL     1      42.856   3.746  11.127  0.00  0.00    +0.000 OA
ATOM     13  H   UNL     1      44.910   2.626  13.251  0.00  0.00    +0.000 HD
ATOM     14  H   UNL     1      43.620   1.747  12.449  0.00  0.00    +0.000 HD
ENDBRANCH   6  10
BRANCH   1  15
ATOM     15  C   UNL     1      48.408   8.427  12.824  0.00  0.00    +0.000 C 
BRANCH  15  20
ATOM     16  C   UNL     1      49.540   6.869  15.457  0.00  0.00    +0.000 C 
ATOM     17  C   UNL     1      50.988   7.402  15.348  0.00  0.00    +0.000 C 
ATOM     18  C   UNL     1      51.199   8.409  14.225  0.00  0.00    +0.000 C 
ATOM     19  C   UNL     1      50.189   9.546  14.317  0.00  0.00    +0.000 C 
ATOM     20  C   UNL     1      48.750   9.030  14.205  0.00  0.00    +0.000 C 
ATOM     21  C   UNL     1      48.499   8.020  15.352  0.00  0.00    +0.000 C 
BRANCH  16  23
ATOM     22  C   UNL     1      48.644   6.689  17.899  0.00  0.00    +0.000 C 
ATOM     23  C   UNL     1      49.354   5.966  16.737  0.00  0.00    +0.000 C 
ATOM     24  C   UNL     1      50.716   5.450  17.251  0.00  0.00    +0.000 C 
BRANCH  23  25
ATOM     25  N   UNL     1      48.544   4.783  16.392  0.00  0.00    +0.000 NA
ATOM     26  H   UNL     1      48.499   4.153  17.193  0.00  0.00    +0.000 HD
ATOM     27  H   UNL     1      48.997   4.258  15.649  0.00  0.00    +0.000 HD
ENDBRANCH  23  25
ENDBRANCH  16  23
ENDBRANCH  15  20
ENDBRANCH   1  15
TORSDOF 5
ENDMDL
MODEL 8
REMARK VINA RESULT:    -5.751      4.416      7.670
REMARK INTER + INTRA:          -7.853
REMARK INTER:                  -7.200
REMARK INTRA:                  -0.653
REMARK UNBOUND:                -0.589
REMARK  Name = 
REMARK  7 active torsions:
REMARK  status: ('A' for Active; 'I' for Inactive)
REMARK    1  A    between atoms: C_1  and  C_2
REMARK    2  A    between atoms: C_2  and  C_3
REMARK    3  A    between atoms: C_2  and  N_4
REMARK    4  A    between atoms: C_2  and  C_5
REMARK    5  A    between atoms: C_9  and  C_10
REMARK    6  A    between atoms: C_10  and  N_11
REMARK    7  A    between atoms: C_16  and  C_17
REMARK                            x       y       z     vdW  Elec       q    Type
REMARK                         _______ _______ _______ _____ _____    ______ ____
ROOT
ATOM      1  N   UNL     1      44.801   6.618  11.774  0.00  0.00    +0.000 N 
ATOM      2  C   UNL     1      44.236   6.127  12.929  0.00  0.00    +0.000 A 
ATOM      3  C   UNL     1      44.145   4.762  12.823  0.00  0.00    +0.000 A 
ATOM      4  C   UNL     1      44.644   4.398  11.546  0.00  0.00    +0.000 A 
ATOM      5  C   UNL     1      44.735   3.181  10.866  0.00  0.00    +0.000 A 
ATOM      6  C   UNL     1      45.279   3.229   9.592  0.00  0.00    +0.000 A 
ATOM      7  N   UNL     1      45.761   4.357   8.992  0.00  0.00    +0.000 NA
ATOM      8  C   UNL     1      45.684   5.532   9.661  0.00  0.00    +0.000 A 
ATOM      9  C   UNL     1      45.094   5.569  10.923  0.00  0.00    +0.000 A 
ENDROOT
BRANCH   6  10
ATOM     10  C   UNL     1      45.309   1.974   8.774  0.00  0.00    +0.000 C 
ATOM     11  N   UNL     1      46.389   1.842   7.942  0.00  0.00    +0.000 N 
ATOM     12  O   UNL     1      44.428   1.125   8.822  0.00  0.00    +0.000 OA
ATOM     13  H   UNL     1      47.079   2.580   7.906  0.00  0.00    +0.000 HD
ATOM     14  H   UNL     1      46.450   1.048   7.326  0.00  0.00    +0.000 HD
ENDBRANCH   6  10
BRANCH   1  15
ATOM     15  C   UNL     1      44.893   8.042  11.459  0.00  0.00    +0.000 C 
BRANCH  15  20
ATOM     16  C   UNL     1      47.976   8.640  12.344  0.00  0.00    +0.000 C 
ATOM     17  C   UNL     1      48.029  10.078  11.774  0.00  0.00    +0.000 C 
ATOM     18  C   UNL     1      46.709  10.571  11.199  0.00  0.00    +0.000 C 
ATOM     19  C   UNL     1      45.581  10.411  12.212  0.00  0.00    +0.000 C 
ATOM     20  C   UNL     1      45.388   8.945  12.612  0.00  0.00    +0.000 C 
ATOM     21  C   UNL     1      46.711   8.423  13.224  0.00  0.00    +0.000 C 
BRANCH  16  23
ATOM     22  C   UNL     1      49.111   7.627  14.461  0.00  0.00    +0.000 C 
ATOM     23  C   UNL     1      49.323   8.258  13.071  0.00  0.00    +0.000 C 
ATOM     24  C   UNL     1      50.230   9.497  13.238  0.00  0.00    +0.000 C 
BRANCH  23  25
ATOM     25  N   UNL     1      50.066   7.283  12.252  0.00  0.00    +0.000 NA
ATOM     26  H   UNL     1      50.126   6.394  12.748  0.00  0.00    +0.000 HD
ATOM     27  H   UNL     1      51.024   7.598  12.124  0.00  0.00    +0.000 HD
ENDBRANCH  23  25
ENDBRANCH  16  23
ENDBRANCH  15  20
ENDBRANCH   1  15
TORSDOF 5
ENDMDL
MODEL 9
REMARK VINA RESULT:    -5.697      2.110      2.794
REMARK INTER + INTRA:          -7.786
REMARK INTER:                  -7.149
REMARK INTRA:                  -0.636
REMARK UNBOUND:                -0.589
REMARK  Name = 
REMARK  7 active torsions:
REMARK  status: ('A' for Active; 'I' for Inactive)
REMARK    1  A    between atoms: C_1  and  C_2
REMARK    2  A    between atoms: C_2  and  C_3
REMARK    3  A    between atoms: C_2  and  N_4
REMARK    4  A    between atoms: C_2  and  C_5
REMARK    5  A    between atoms: C_9  and  C_10
REMARK    6  A    between atoms: C_10  and  N_11
REMARK    7  A    between atoms: C_16  and  C_17
REMARK                            x       y       z     vdW  Elec       q    Type
REMARK                         _______ _______ _______ _____ _____    ______ ____
ROOT
ATOM      1  N   UNL     1      49.005   6.819  14.986  0.00  0.00    +0.000 N 
ATOM      2  C   UNL     1      50.148   7.480  14.595  0.00  0.00    +0.000 A 
ATOM      3  C   UNL     1      51.122   7.261  15.536  0.00  0.00    +0.000 A 
ATOM      4  C   UNL     1      50.553   6.461  16.561  0.00  0.00    +0.000 A 
ATOM      5  C   UNL     1      51.036   5.988  17.784  0.00  0.00    +0.000 A 
ATOM      6  C   UNL     1      50.155   5.233  18.540  0.00  0.00    +0.000 A 
ATOM      7  N   UNL     1      48.891   4.891  18.154  0.00  0.00    +0.000 NA
ATOM      8  C   UNL     1      48.432   5.339  16.962  0.00  0.00    +0.000 A 
ATOM      9  C   UNL     1      49.243   6.155  16.175  0.00  0.00    +0.000 A 
ENDROOT
BRANCH   6  10
ATOM     10  C   UNL     1      50.580   4.784  19.906  0.00  0.00    +0.000 C 
ATOM     11  N   UNL     1      49.566   4.371  20.729  0.00  0.00    +0.000 N 
ATOM     12  O   UNL     1      51.746   4.796  20.280  0.00  0.00    +0.000 OA
ATOM     13  H   UNL     1      48.613   4.406  20.396  0.00  0.00    +0.000 HD
ATOM     14  H   UNL     1      49.772   4.103  21.678  0.00  0.00    +0.000 HD
ENDBRANCH   6  10
BRANCH   1  15
ATOM     15  C   UNL     1      47.714   6.968  14.318  0.00  0.00    +0.000 C 
BRANCH  15  20
ATOM     16  C   UNL     1      45.018   6.060  12.722  0.00  0.00    +0.000 C 
ATOM     17  C   UNL     1      45.029   7.232  11.711  0.00  0.00    +0.000 C 
ATOM     18  C   UNL     1      46.240   8.147  11.829  0.00  0.00    +0.000 C 
ATOM     19  C   UNL     1      47.535   7.346  11.773  0.00  0.00    +0.000 C 
ATOM     20  C   UNL     1      47.617   6.327  12.915  0.00  0.00    +0.000 C 
ATOM     21  C   UNL     1      46.408   5.366  12.805  0.00  0.00    +0.000 C 
BRANCH  16  23
ATOM     22  C   UNL     1      44.219   3.580  12.612  0.00  0.00    +0.000 C 
ATOM     23  C   UNL     1      43.831   5.062  12.434  0.00  0.00    +0.000 C 
ATOM     24  C   UNL     1      43.289   5.249  11.000  0.00  0.00    +0.000 C 
BRANCH  23  25
ATOM     25  N   UNL     1      42.717   5.341  13.359  0.00  0.00    +0.000 NA
ATOM     26  H   UNL     1      41.943   4.707  13.163  0.00  0.00    +0.000 HD
ATOM     27  H   UNL     1      42.359   6.278  13.196  0.00  0.00    +0.000 HD
ENDBRANCH  23  25
ENDBRANCH  16  23
ENDBRANCH  15  20
ENDBRANCH   1  15
TORSDOF 5
ENDMDL
