MODEL 1
REMARK VINA RESULT:    -7.984      0.000      0.000
REMARK INTER + INTRA:         -11.631
REMARK INTER:                 -10.784
REMARK INTRA:                  -0.847
REMARK UNBOUND:                -0.847
REMARK  Name = 
REMARK  6 active torsions:
REMARK  status: ('A' for Active; 'I' for Inactive)
REMARK    1  A    between atoms: C_2  and  C_3
REMARK    2  A    between atoms: N_7  and  C_8
REMARK    3  A    between atoms: C_8  and  C_9
REMARK    4  A    between atoms: C_13  and  C_14
REMARK    5  A    between atoms: C_18  and  C_19
REMARK    6  A    between atoms: C_27  and  C_28
REMARK                            x       y       z     vdW  Elec       q    Type
REMARK                         _______ _______ _______ _____ _____    ______ ____
ROOT
ATOM      1  C   UNL     1      48.460   7.977  13.966  0.00  0.00    +0.000 C 
ATOM      2  C   UNL     1      49.634   8.695  13.304  0.00  0.00    +0.000 C 
ATOM      3  C   UNL     1      48.898   9.358  14.416  0.00  0.00    +0.000 C 
ENDROOT
BRANCH   1   8
ATOM      4  C   UNL     1      48.626   5.273  18.419  0.00  0.00    +0.000 A 
ATOM      5  N   UNL     1      48.647   6.631  18.287  0.00  0.00    +0.000 NA
ATOM      6  C   UNL     1      48.688   7.118  17.015  0.00  0.00    +0.000 A 
ATOM      7  C   UNL     1      48.700   6.307  15.895  0.00  0.00    +0.000 A 
ATOM      8  N   UNL     1      48.860   6.711  14.581  0.00  0.00    +0.000 N 
ATOM      9  N   UNL     1      48.648   4.967  16.045  0.00  0.00    +0.000 NA
ATOM     10  C   UNL     1      48.611   4.439  17.313  0.00  0.00    +0.000 A 
ATOM     11  H   UNL     1      48.773   5.881  13.997  0.00  0.00    +0.000 HD
BRANCH  10  12
ATOM     12  C   UNL     1      48.559   2.932  17.411  0.00  0.00    +0.000 C 
ATOM     13  F   UNL     1      49.580   2.357  18.097  0.00  0.00    +0.000 F 
ATOM     14  F   UNL     1      47.421   2.497  18.029  0.00  0.00    +0.000 F 
ATOM     15  F   UNL     1      48.565   2.334  16.186  0.00  0.00    +0.000 F 
ENDBRANCH  10  12
BRANCH   4  17
ATOM     16  N   UNL     1      48.677   4.408  20.868  0.00  0.00    +0.000 NA
ATOM     17  C   UNL     1      48.655   4.803  19.779  0.00  0.00    +0.000 C 
ENDBRANCH   4  17
ENDBRANCH   1   8
BRANCH   1  18
ATOM     18  C   UNL     1      47.117   7.929  13.240  0.00  0.00    +0.000 A 
ATOM     19  C   UNL     1      46.489   9.114  12.828  0.00  0.00    +0.000 A 
ATOM     20  C   UNL     1      45.354   9.082  12.025  0.00  0.00    +0.000 A 
ATOM     21  C   UNL     1      44.808   7.857  11.638  0.00  0.00    +0.000 A 
ATOM     22  C   UNL     1      45.339   6.637  12.094  0.00  0.00    +0.000 A 
ATOM     23  C   UNL     1      46.493   6.709  12.901  0.00  0.00    +0.000 A 
BRANCH  22  24
ATOM     24  C   UNL     1      44.707   5.340  11.740  0.00  0.00    +0.000 A 
ATOM     25  C   UNL     1      43.870   4.669  12.648  0.00  0.00    +0.000 A 
ATOM     26  C   UNL     1      43.303   3.450  12.305  0.00  0.00    +0.000 A 
ATOM     27  N   UNL     1      43.521   2.826  11.133  0.00  0.00    +0.000 NA
ATOM     28  C   UNL     1      44.338   3.473  10.259  0.00  0.00    +0.000 A 
ATOM     29  C   UNL     1      44.926   4.710  10.508  0.00  0.00    +0.000 A 
BRANCH  28  30
ATOM     30  C   UNL     1      44.627   2.756   8.977  0.00  0.00    +0.000 C 
ATOM     31  N   UNL     1      44.439   3.497   7.841  0.00  0.00    +0.000 N 
ATOM     32  O   UNL     1      44.989   1.588   8.937  0.00  0.00    +0.000 OA
ATOM     33  H   UNL     1      44.108   4.452   7.921  0.00  0.00    +0.000 HD
ATOM     34  H   UNL     1      44.568   3.072   6.934  0.00  0.00    +0.000 HD
ENDBRANCH  28  30
ENDBRANCH  22  24
ENDBRANCH   1  18
TORSDOF 6
ENDMDL
MODEL 2
REMARK VINA RESULT:    -7.239      3.551      7.448
REMARK INTER + INTRA:         -10.625
REMARK INTER:                 -10.442
REMARK INTRA:                  -0.182
REMARK UNBOUND:                -0.847
REMARK  Name = 
REMARK  6 active torsions:
REMARK  status: ('A' for Active; 'I' for Inactive)
REMARK    1  A    between atoms: C_2  and  C_3
REMARK    2  A    between atoms: N_7  and  C_8
REMARK    3  A    between atoms: C_8  and  C_9
REMARK    4  A    between atoms: C_13  and  C_14
REMARK    5  A    between atoms: C_18  and  C_19
REMARK    6  A    between atoms: C_27  and  C_28
REMARK                            x       y       z     vdW  Elec       q    Type
REMARK                         _______ _______ _______ _____ _____    ______ ____
ROOT
ATOM      1  C   UNL     1      47.015   8.777  12.480  0.00  0.00    +0.000 C 
ATOM      2  C   UNL     1      45.608   9.270  12.813  0.00  0.00    +0.000 C 
ATOM      3  C   UNL     1      46.529  10.145  12.036  0.00  0.00    +0.000 C 
ENDROOT
BRANCH   1   8
ATOM      4  C   UNL     1      44.499   4.304  11.569  0.00  0.00    +0.000 A 
ATOM      5  N   UNL     1      44.546   4.990  12.748  0.00  0.00    +0.000 NA
ATOM      6  C   UNL     1      45.346   6.093  12.780  0.00  0.00    +0.000 A 
ATOM      7  C   UNL     1      46.076   6.528  11.689  0.00  0.00    +0.000 A 
ATOM      8  N   UNL     1      46.998   7.560  11.669  0.00  0.00    +0.000 N 
ATOM      9  N   UNL     1      45.993   5.855  10.523  0.00  0.00    +0.000 NA
ATOM     10  C   UNL     1      45.202   4.734  10.455  0.00  0.00    +0.000 A 
ATOM     11  H   UNL     1      47.322   7.658  10.708  0.00  0.00    +0.000 HD
BRANCH  10  12
ATOM     12  C   UNL     1      45.156   4.025   9.122  0.00  0.00    +0.000 C 
ATOM     13  F   UNL     1      46.077   4.436   8.211  0.00  0.00    +0.000 F 
ATOM     14  F   UNL     1      45.353   2.680   9.249  0.00  0.00    +0.000 F 
ATOM     15  F   UNL     1      43.950   4.164   8.502  0.00  0.00    +0.000 F 
ENDBRANCH  10  12
BRANCH   4  17
ATOM     16  N   UNL     1      43.054   2.148  11.647  0.00  0.00    +0.000 NA
ATOM     17  C   UNL     1      43.701   3.108  11.603  0.00  0.00    +0.000 C 
ENDBRANCH   4  17
ENDBRANCH   1   8
BRANCH   1  18
ATOM     18  C   UNL     1      48.082   8.794  13.573  0.00  0.00    +0.000 A 
ATOM     19  C   UNL     1      48.768   9.978  13.879  0.00  0.00    +0.000 A 
ATOM     20  C   UNL     1      49.620  10.050  14.976  0.00  0.00    +0.000 A 
ATOM     21  C   UNL     1      49.823   8.925  15.776  0.00  0.00    +0.000 A 
ATOM     22  C   UNL     1      49.234   7.686  15.467  0.00  0.00    +0.000 A 
ATOM     23  C   UNL     1      48.372   7.653  14.352  0.00  0.00    +0.000 A 
BRANCH  22  24
ATOM     24  C   UNL     1      49.515   6.474  16.278  0.00  0.00    +0.000 A 
ATOM     25  C   UNL     1      50.830   6.119  16.623  0.00  0.00    +0.000 A 
ATOM     26  C   UNL     1      51.072   4.972  17.367  0.00  0.00    +0.000 A 
ATOM     27  N   UNL     1      50.108   4.131  17.781  0.00  0.00    +0.000 NA
ATOM     28  C   UNL     1      48.837   4.472  17.440  0.00  0.00    +0.000 A 
ATOM     29  C   UNL     1      48.499   5.615  16.721  0.00  0.00    +0.000 A 
BRANCH  28  30
ATOM     30  C   UNL     1      47.766   3.509  17.851  0.00  0.00    +0.000 C 
ATOM     31  N   UNL     1      48.017   2.818  19.006  0.00  0.00    +0.000 N 
ATOM     32  O   UNL     1      46.746   3.333  17.198  0.00  0.00    +0.000 OA
ATOM     33  H   UNL     1      48.890   2.974  19.497  0.00  0.00    +0.000 HD
ATOM     34  H   UNL     1      47.366   2.116  19.326  0.00  0.00    +0.000 HD
ENDBRANCH  28  30
ENDBRANCH  22  24
ENDBRANCH   1  18
TORSDOF 6
ENDMDL
MODEL 3
REMARK VINA RESULT:    -7.160      3.349      4.912
REMARK INTER + INTRA:         -10.518
REMARK INTER:                  -9.567
REMARK INTRA:                  -0.951
REMARK UNBOUND:                -0.847
REMARK  Name = 
REMARK  6 active torsions:
REMARK  status: ('A' for Active; 'I' for Inactive)
REMARK    1  A    between atoms: C_2  and  C_3
REMARK    2  A    between atoms: N_7  and  C_8
REMARK    3  A    between atoms: C_8  and  C_9
REMARK    4  A    between atoms: C_13  and  C_14
REMARK    5  A    between atoms: C_18  and  C_19
REMARK    6  A    between atoms: C_27  and  C_28
REMARK                            x       y       z     vdW  Elec       q    Type
REMARK                         _______ _______ _______ _____ _____    ______ ____
ROOT
ATOM      1  C   UNL     1      48.367   4.619  17.369  0.00  0.00    +0.000 C 
ATOM      2  C   UNL     1      47.274   4.839  18.413  0.00  0.00    +0.000 C 
ATOM      3  C   UNL     1      47.188   3.672  17.492  0.00  0.00    +0.000 C 
ENDROOT
BRANCH   1   8
ATOM      4  C   UNL     1      52.562   1.531  17.552  0.00  0.00    +0.000 A 
ATOM      5  N   UNL     1      51.284   1.156  17.254  0.00  0.00    +0.000 NA
ATOM      6  C   UNL     1      50.327   2.120  17.358  0.00  0.00    +0.000 A 
ATOM      7  C   UNL     1      50.604   3.422  17.733  0.00  0.00    +0.000 A 
ATOM      8  N   UNL     1      49.684   4.427  17.977  0.00  0.00    +0.000 N 
ATOM      9  N   UNL     1      51.878   3.782  17.995  0.00  0.00    +0.000 NA
ATOM     10  C   UNL     1      52.869   2.835  17.906  0.00  0.00    +0.000 A 
ATOM     11  H   UNL     1      50.209   5.274  18.185  0.00  0.00    +0.000 HD
BRANCH  10  12
ATOM     12  C   UNL     1      54.272   3.301  18.216  0.00  0.00    +0.000 C 
ATOM     13  F   UNL     1      54.394   4.620  18.518  0.00  0.00    +0.000 F 
ATOM     14  F   UNL     1      54.811   2.637  19.280  0.00  0.00    +0.000 F 
ATOM     15  F   UNL     1      55.129   3.090  17.176  0.00  0.00    +0.000 F 
ENDBRANCH  10  12
BRANCH   4  17
ATOM     16  N   UNL     1      54.299  -0.397  17.440  0.00  0.00    +0.000 NA
ATOM     17  C   UNL     1      53.527   0.465  17.499  0.00  0.00    +0.000 C 
ENDBRANCH   4  17
ENDBRANCH   1   8
BRANCH   1  18
ATOM     18  C   UNL     1      48.373   5.484  16.110  0.00  0.00    +0.000 A 
ATOM     19  C   UNL     1      49.304   6.523  15.965  0.00  0.00    +0.000 A 
ATOM     20  C   UNL     1      49.431   7.209  14.763  0.00  0.00    +0.000 A 
ATOM     21  C   UNL     1      48.606   6.886  13.685  0.00  0.00    +0.000 A 
ATOM     22  C   UNL     1      47.594   5.916  13.797  0.00  0.00    +0.000 A 
ATOM     23  C   UNL     1      47.499   5.237  15.029  0.00  0.00    +0.000 A 
BRANCH  22  24
ATOM     24  C   UNL     1      46.669   5.631  12.670  0.00  0.00    +0.000 A 
ATOM     25  C   UNL     1      46.554   6.514  11.584  0.00  0.00    +0.000 A 
ATOM     26  C   UNL     1      45.671   6.238  10.549  0.00  0.00    +0.000 A 
ATOM     27  N   UNL     1      44.871   5.157  10.516  0.00  0.00    +0.000 NA
ATOM     28  C   UNL     1      44.978   4.307  11.572  0.00  0.00    +0.000 A 
ATOM     29  C   UNL     1      45.855   4.491  12.639  0.00  0.00    +0.000 A 
BRANCH  28  30
ATOM     30  C   UNL     1      44.049   3.133  11.567  0.00  0.00    +0.000 C 
ATOM     31  N   UNL     1      43.821   2.567  12.792  0.00  0.00    +0.000 N 
ATOM     32  O   UNL     1      43.541   2.694  10.544  0.00  0.00    +0.000 OA
ATOM     33  H   UNL     1      44.289   2.945  13.609  0.00  0.00    +0.000 HD
ATOM     34  H   UNL     1      43.242   1.742  12.868  0.00  0.00    +0.000 HD
ENDBRANCH  28  30
ENDBRANCH  22  24
ENDBRANCH   1  18
TORSDOF 6
ENDMDL
MODEL 4
REMARK VINA RESULT:    -7.137      1.675      2.144
REMARK INTER + INTRA:         -10.488
REMARK INTER:                  -9.278
REMARK INTRA:                  -1.210
REMARK UNBOUND:                -0.847
REMARK  Name = 
REMARK  6 active torsions:
REMARK  status: ('A' for Active; 'I' for Inactive)
REMARK    1  A    between atoms: C_2  and  C_3
REMARK    2  A    between atoms: N_7  and  C_8
REMARK    3  A    between atoms: C_8  and  C_9
REMARK    4  A    between atoms: C_13  and  C_14
REMARK    5  A    between atoms: C_18  and  C_19
REMARK    6  A    between atoms: C_27  and  C_28
REMARK                            x       y       z     vdW  Elec       q    Type
REMARK                         _______ _______ _______ _____ _____    ______ ____
ROOT
ATOM      1  C   UNL     1      49.708   8.187  13.441  0.00  0.00    +0.000 C 
ATOM      2  C   UNL     1      50.862   8.224  12.441  0.00  0.00    +0.000 C 
ATOM      3  C   UNL     1      50.714   9.322  13.435  0.00  0.00    +0.000 C 
ENDROOT
BRANCH   1   8
ATOM      4  C   UNL     1      48.236   6.193  18.027  0.00  0.00    +0.000 A 
ATOM      5  N   UNL     1      48.452   7.510  17.740  0.00  0.00    +0.000 NA
ATOM      6  C   UNL     1      48.924   7.792  16.493  0.00  0.00    +0.000 A 
ATOM      7  C   UNL     1      49.172   6.820  15.541  0.00  0.00    +0.000 A 
ATOM      8  N   UNL     1      49.760   7.005  14.302  0.00  0.00    +0.000 N 
ATOM      9  N   UNL     1      48.924   5.526  15.832  0.00  0.00    +0.000 NA
ATOM     10  C   UNL     1      48.453   5.202  17.082  0.00  0.00    +0.000 A 
ATOM     11  H   UNL     1      49.754   6.104  13.827  0.00  0.00    +0.000 HD
BRANCH  10  12
ATOM     12  C   UNL     1      48.199   3.737  17.345  0.00  0.00    +0.000 C 
ATOM     13  F   UNL     1      46.922   3.417  17.678  0.00  0.00    +0.000 F 
ATOM     14  F   UNL     1      48.493   2.962  16.259  0.00  0.00    +0.000 F 
ATOM     15  F   UNL     1      48.968   3.253  18.362  0.00  0.00    +0.000 F 
ENDBRANCH  10  12
BRANCH   4  17
ATOM     16  N   UNL     1      47.463   5.746  20.465  0.00  0.00    +0.000 NA
ATOM     17  C   UNL     1      47.807   5.936  19.375  0.00  0.00    +0.000 C 
ENDBRANCH   4  17
ENDBRANCH   1   8
BRANCH   1  18
ATOM     18  C   UNL     1      48.306   8.563  12.967  0.00  0.00    +0.000 A 
ATOM     19  C   UNL     1      47.993   9.894  12.658  0.00  0.00    +0.000 A 
ATOM     20  C   UNL     1      46.777  10.228  12.071  0.00  0.00    +0.000 A 
ATOM     21  C   UNL     1      45.836   9.233  11.804  0.00  0.00    +0.000 A 
ATOM     22  C   UNL     1      46.055   7.894  12.174  0.00  0.00    +0.000 A 
ATOM     23  C   UNL     1      47.301   7.593  12.761  0.00  0.00    +0.000 A 
BRANCH  22  24
ATOM     24  C   UNL     1      45.018   6.853  11.956  0.00  0.00    +0.000 A 
ATOM     25  C   UNL     1      43.762   7.180  11.418  0.00  0.00    +0.000 A 
ATOM     26  C   UNL     1      42.800   6.196  11.239  0.00  0.00    +0.000 A 
ATOM     27  N   UNL     1      42.978   4.906  11.575  0.00  0.00    +0.000 NA
ATOM     28  C   UNL     1      44.191   4.592  12.104  0.00  0.00    +0.000 A 
ATOM     29  C   UNL     1      45.223   5.508  12.293  0.00  0.00    +0.000 A 
BRANCH  28  30
ATOM     30  C   UNL     1      44.373   3.169  12.531  0.00  0.00    +0.000 C 
ATOM     31  N   UNL     1      45.666   2.799  12.788  0.00  0.00    +0.000 N 
ATOM     32  O   UNL     1      43.441   2.381  12.629  0.00  0.00    +0.000 OA
ATOM     33  H   UNL     1      46.410   3.476  12.663  0.00  0.00    +0.000 HD
ATOM     34  H   UNL     1      45.878   1.843  13.037  0.00  0.00    +0.000 HD
ENDBRANCH  28  30
ENDBRANCH  22  24
ENDBRANCH   1  18
TORSDOF 6
ENDMDL
MODEL 5
REMARK VINA RESULT:    -6.910      1.917      2.783
REMARK INTER + INTRA:         -10.181
REMARK INTER:                  -9.790
REMARK INTRA:                  -0.391
REMARK UNBOUND:                -0.847
REMARK  Name = 
REMARK  6 active torsions:
REMARK  status: ('A' for Active; 'I' for Inactive)
REMARK    1  A    between atoms: C_2  and  C_3
REMARK    2  A    between atoms: N_7  and  C_8
REMARK    3  A    between atoms: C_8  and  C_9
REMARK    4  A    between atoms: C_13  and  C_14
REMARK    5  A    between atoms: C_18  and  C_19
REMARK    6  A    between atoms: C_27  and  C_28
REMARK                            x       y       z     vdW  Elec       q    Type
REMARK                         _______ _______ _______ _____ _____    ______ ____
ROOT
ATOM      1  C   UNL     1      46.992   7.066  12.852  0.00  0.00    +0.000 C 
ATOM      2  C   UNL     1      47.853   8.097  12.125  0.00  0.00    +0.000 C 
ATOM      3  C   UNL     1      46.815   8.554  13.090  0.00  0.00    +0.000 C 
ENDROOT
BRANCH   1   8
ATOM      4  C   UNL     1      49.253   6.414  17.503  0.00  0.00    +0.000 A 
ATOM      5  N   UNL     1      49.005   7.600  16.874  0.00  0.00    +0.000 NA
ATOM      6  C   UNL     1      48.486   7.525  15.616  0.00  0.00    +0.000 A 
ATOM      7  C   UNL     1      48.204   6.327  14.985  0.00  0.00    +0.000 A 
ATOM      8  N   UNL     1      47.791   6.158  13.675  0.00  0.00    +0.000 N 
ATOM      9  N   UNL     1      48.428   5.165  15.634  0.00  0.00    +0.000 NA
ATOM     10  C   UNL     1      48.957   5.201  16.902  0.00  0.00    +0.000 A 
ATOM     11  H   UNL     1      47.625   5.163  13.537  0.00  0.00    +0.000 HD
BRANCH  10  12
ATOM     12  C   UNL     1      49.187   3.867  17.571  0.00  0.00    +0.000 C 
ATOM     13  F   UNL     1      48.549   3.692  18.758  0.00  0.00    +0.000 F 
ATOM     14  F   UNL     1      48.782   2.824  16.788  0.00  0.00    +0.000 F 
ATOM     15  F   UNL     1      50.505   3.640  17.835  0.00  0.00    +0.000 F 
ENDBRANCH  10  12
BRANCH   4  17
ATOM     16  N   UNL     1      50.350   6.630  19.847  0.00  0.00    +0.000 NA
ATOM     17  C   UNL     1      49.867   6.540  18.798  0.00  0.00    +0.000 C 
ENDBRANCH   4  17
ENDBRANCH   1   8
BRANCH   1  18
ATOM     18  C   UNL     1      45.848   6.392  12.097  0.00  0.00    +0.000 A 
ATOM     19  C   UNL     1      44.534   6.865  12.225  0.00  0.00    +0.000 A 
ATOM     20  C   UNL     1      43.512   6.371  11.422  0.00  0.00    +0.000 A 
ATOM     21  C   UNL     1      43.782   5.371  10.488  0.00  0.00    +0.000 A 
ATOM     22  C   UNL     1      45.059   4.793  10.375  0.00  0.00    +0.000 A 
ATOM     23  C   UNL     1      46.071   5.323  11.201  0.00  0.00    +0.000 A 
BRANCH  22  24
ATOM     24  C   UNL     1      45.320   3.676   9.431  0.00  0.00    +0.000 A 
ATOM     25  C   UNL     1      44.818   2.387   9.675  0.00  0.00    +0.000 A 
ATOM     26  C   UNL     1      45.088   1.352   8.790  0.00  0.00    +0.000 A 
ATOM     27  N   UNL     1      45.843   1.491   7.685  0.00  0.00    +0.000 NA
ATOM     28  C   UNL     1      46.335   2.737   7.455  0.00  0.00    +0.000 A 
ATOM     29  C   UNL     1      46.092   3.838   8.273  0.00  0.00    +0.000 A 
BRANCH  28  30
ATOM     30  C   UNL     1      47.221   2.882   6.257  0.00  0.00    +0.000 C 
ATOM     31  N   UNL     1      48.542   2.595   6.473  0.00  0.00    +0.000 N 
ATOM     32  O   UNL     1      46.807   3.248   5.165  0.00  0.00    +0.000 OA
ATOM     33  H   UNL     1      48.846   2.326   7.402  0.00  0.00    +0.000 HD
ATOM     34  H   UNL     1      49.213   2.713   5.727  0.00  0.00    +0.000 HD
ENDBRANCH  28  30
ENDBRANCH  22  24
ENDBRANCH   1  18
TORSDOF 6
ENDMDL
MODEL 6
REMARK VINA RESULT:    -6.718      3.662      7.108
REMARK INTER + INTRA:          -9.921
REMARK INTER:                  -9.338
REMARK INTRA:                  -0.584
REMARK UNBOUND:                -0.847
REMARK  Name = 
REMARK  6 active torsions:
REMARK  status: ('A' for Active; 'I' for Inactive)
REMARK    1  A    between atoms: C_2  and  C_3
REMARK    2  A    between atoms: N_7  and  C_8
REMARK    3  A    between atoms: C_8  and  C_9
REMARK    4  A    between atoms: C_13  and  C_14
REMARK    5  A    between atoms: C_18  and  C_19
REMARK    6  A    between atoms: C_27  and  C_28
REMARK                            x       y       z     vdW  Elec       q    Type
REMARK                         _______ _______ _______ _____ _____    ______ ____
ROOT
ATOM      1  C   UNL     1      48.977   8.194  12.626  0.00  0.00    +0.000 C 
ATOM      2  C   UNL     1      49.727   9.287  11.866  0.00  0.00    +0.000 C 
ATOM      3  C   UNL     1      50.381   7.970  12.098  0.00  0.00    +0.000 C 
ENDROOT
BRANCH   1   8
ATOM      4  C   UNL     1      45.145   4.664  12.481  0.00  0.00    +0.000 A 
ATOM      5  N   UNL     1      46.427   4.461  12.902  0.00  0.00    +0.000 NA
ATOM      6  C   UNL     1      47.287   5.510  12.764  0.00  0.00    +0.000 A 
ATOM      7  C   UNL     1      46.909   6.731  12.237  0.00  0.00    +0.000 A 
ATOM      8  N   UNL     1      47.739   7.802  11.952  0.00  0.00    +0.000 N 
ATOM      9  N   UNL     1      45.630   6.923  11.853  0.00  0.00    +0.000 NA
ATOM     10  C   UNL     1      44.736   5.886  11.972  0.00  0.00    +0.000 A 
ATOM     11  H   UNL     1      47.148   8.563  11.622  0.00  0.00    +0.000 HD
BRANCH  10  12
ATOM     12  C   UNL     1      43.322   6.165  11.521  0.00  0.00    +0.000 C 
ATOM     13  F   UNL     1      42.355   5.909  12.441  0.00  0.00    +0.000 F 
ATOM     14  F   UNL     1      43.144   7.472  11.167  0.00  0.00    +0.000 F 
ATOM     15  F   UNL     1      42.975   5.435  10.423  0.00  0.00    +0.000 F 
ENDBRANCH  10  12
BRANCH   4  17
ATOM     16  N   UNL     1      43.612   2.576  12.674  0.00  0.00    +0.000 NA
ATOM     17  C   UNL     1      44.292   3.509  12.579  0.00  0.00    +0.000 C 
ENDBRANCH   4  17
ENDBRANCH   1   8
BRANCH   1  18
ATOM     18  C   UNL     1      48.865   8.293  14.146  0.00  0.00    +0.000 A 
ATOM     19  C   UNL     1      48.610   9.528  14.761  0.00  0.00    +0.000 A 
ATOM     20  C   UNL     1      48.343   9.608  16.123  0.00  0.00    +0.000 A 
ATOM     21  C   UNL     1      48.351   8.452  16.905  0.00  0.00    +0.000 A 
ATOM     22  C   UNL     1      48.689   7.199  16.363  0.00  0.00    +0.000 A 
ATOM     23  C   UNL     1      48.947   7.156  14.977  0.00  0.00    +0.000 A 
BRANCH  22  24
ATOM     24  C   UNL     1      48.770   5.985  17.215  0.00  0.00    +0.000 A 
ATOM     25  C   UNL     1      48.410   6.026  18.573  0.00  0.00    +0.000 A 
ATOM     26  C   UNL     1      48.510   4.885  19.356  0.00  0.00    +0.000 A 
ATOM     27  N   UNL     1      48.964   3.703  18.903  0.00  0.00    +0.000 NA
ATOM     28  C   UNL     1      49.320   3.667  17.591  0.00  0.00    +0.000 A 
ATOM     29  C   UNL     1      49.227   4.754  16.725  0.00  0.00    +0.000 A 
BRANCH  28  30
ATOM     30  C   UNL     1      49.879   2.369  17.097  0.00  0.00    +0.000 C 
ATOM     31  N   UNL     1      50.934   1.879  17.818  0.00  0.00    +0.000 N 
ATOM     32  O   UNL     1      49.443   1.791  16.111  0.00  0.00    +0.000 OA
ATOM     33  H   UNL     1      51.283   2.408  18.609  0.00  0.00    +0.000 HD
ATOM     34  H   UNL     1      51.398   1.032  17.522  0.00  0.00    +0.000 HD
ENDBRANCH  28  30
ENDBRANCH  22  24
ENDBRANCH   1  18
TORSDOF 6
ENDMDL
MODEL 7
REMARK VINA RESULT:    -6.627      3.873      7.830
REMARK INTER + INTRA:          -9.798
REMARK INTER:                  -9.318
REMARK INTRA:                  -0.481
REMARK UNBOUND:                -0.847
REMARK  Name = 
REMARK  6 active torsions:
REMARK  status: ('A' for Active; 'I' for Inactive)
REMARK    1  A    between atoms: C_2  and  C_3
REMARK    2  A    between atoms: N_7  and  C_8
REMARK    3  A    between atoms: C_8  and  C_9
REMARK    4  A    between atoms: C_13  and  C_14
REMARK    5  A    between atoms: C_18  and  C_19
REMARK    6  A    between atoms: C_27  and  C_28
REMARK                            x       y       z     vdW  Elec       q    Type
REMARK                         _______ _______ _______ _____ _____    ______ ____
ROOT
ATOM      1  C   UNL     1      47.769   8.518  13.850  0.00  0.00    +0.000 C 
ATOM      2  C   UNL     1      47.975   9.963  13.400  0.00  0.00    +0.000 C 
ATOM      3  C   UNL     1      48.847   8.889  12.849  0.00  0.00    +0.000 C 
ENDROOT
BRANCH   1   8
ATOM      4  C   UNL     1      45.070   5.256  10.809  0.00  0.00    +0.000 A 
ATOM      5  N   UNL     1      46.263   5.850  10.514  0.00  0.00    +0.000 NA
ATOM      6  C   UNL     1      46.742   6.743  11.426  0.00  0.00    +0.000 A 
ATOM      7  C   UNL     1      46.082   7.047  12.603  0.00  0.00    +0.000 A 
ATOM      8  N   UNL     1      46.433   8.021  13.521  0.00  0.00    +0.000 N 
ATOM      9  N   UNL     1      44.918   6.427  12.892  0.00  0.00    +0.000 NA
ATOM     10  C   UNL     1      44.403   5.525  11.993  0.00  0.00    +0.000 A 
ATOM     11  H   UNL     1      45.775   7.958  14.296  0.00  0.00    +0.000 HD
BRANCH  10  12
ATOM     12  C   UNL     1      43.096   4.870  12.374  0.00  0.00    +0.000 C 
ATOM     13  F   UNL     1      42.660   5.131  13.634  0.00  0.00    +0.000 F 
ATOM     14  F   UNL     1      42.073   5.249  11.554  0.00  0.00    +0.000 F 
ATOM     15  F   UNL     1      43.154   3.511  12.288  0.00  0.00    +0.000 F 
ENDBRANCH  10  12
BRANCH   4  17
ATOM     16  N   UNL     1      44.157   3.661   8.975  0.00  0.00    +0.000 NA
ATOM     17  C   UNL     1      44.570   4.377   9.786  0.00  0.00    +0.000 C 
ENDBRANCH   4  17
ENDBRANCH   1   8
BRANCH   1  18
ATOM     18  C   UNL     1      48.281   8.091  15.224  0.00  0.00    +0.000 A 
ATOM     19  C   UNL     1      48.261   8.989  16.301  0.00  0.00    +0.000 A 
ATOM     20  C   UNL     1      48.568   8.569  17.591  0.00  0.00    +0.000 A 
ATOM     21  C   UNL     1      48.928   7.241  17.824  0.00  0.00    +0.000 A 
ATOM     22  C   UNL     1      49.054   6.317  16.772  0.00  0.00    +0.000 A 
ATOM     23  C   UNL     1      48.729   6.777  15.480  0.00  0.00    +0.000 A 
BRANCH  22  24
ATOM     24  C   UNL     1      49.512   4.925  17.018  0.00  0.00    +0.000 A 
ATOM     25  C   UNL     1      48.629   3.838  16.902  0.00  0.00    +0.000 A 
ATOM     26  C   UNL     1      49.073   2.548  17.153  0.00  0.00    +0.000 A 
ATOM     27  N   UNL     1      50.327   2.248  17.535  0.00  0.00    +0.000 NA
ATOM     28  C   UNL     1      51.179   3.302  17.654  0.00  0.00    +0.000 A 
ATOM     29  C   UNL     1      50.828   4.624  17.397  0.00  0.00    +0.000 A 
BRANCH  28  30
ATOM     30  C   UNL     1      52.560   2.979  18.134  0.00  0.00    +0.000 C 
ATOM     31  N   UNL     1      52.756   1.677  18.507  0.00  0.00    +0.000 N 
ATOM     32  O   UNL     1      53.449   3.816  18.207  0.00  0.00    +0.000 OA
ATOM     33  H   UNL     1      51.981   1.024  18.459  0.00  0.00    +0.000 HD
ATOM     34  H   UNL     1      53.647   1.388  18.885  0.00  0.00    +0.000 HD
ENDBRANCH  28  30
ENDBRANCH  22  24
ENDBRANCH   1  18
TORSDOF 6
ENDMDL
MODEL 8
REMARK VINA RESULT:    -6.344      4.290      7.691
REMARK INTER + INTRA:          -9.416
REMARK INTER:                  -9.128
REMARK INTRA:                  -0.288
REMARK UNBOUND:                -0.847
REMARK  Name = 
REMARK  6 active torsions:
REMARK  status: ('A' for Active; 'I' for Inactive)
REMARK    1  A    between atoms: C_2  and  C_3
REMARK    2  A    between atoms: N_7  and  C_8
REMARK    3  A    between atoms: C_8  and  C_9
REMARK    4  A    between atoms: C_13  and  C_14
REMARK    5  A    between atoms: C_18  and  C_19
REMARK    6  A    between atoms: C_27  and  C_28
REMARK                            x       y       z     vdW  Elec       q    Type
REMARK                         _______ _______ _______ _____ _____    ______ ____
ROOT
ATOM      1  C   UNL     1      47.786   8.331  13.899  0.00  0.00    +0.000 C 
ATOM      2  C   UNL     1      48.595   7.319  14.709  0.00  0.00    +0.000 C 
ATOM      3  C   UNL     1      48.292   8.655  15.293  0.00  0.00    +0.000 C 
ENDROOT
BRANCH   1   8
ATOM      4  C   UNL     1      45.065   5.224  10.719  0.00  0.00    +0.000 A 
ATOM      5  N   UNL     1      46.242   5.854  10.436  0.00  0.00    +0.000 NA
ATOM      6  C   UNL     1      46.728   6.696  11.392  0.00  0.00    +0.000 A 
ATOM      7  C   UNL     1      46.092   6.914  12.600  0.00  0.00    +0.000 A 
ATOM      8  N   UNL     1      46.450   7.835  13.569  0.00  0.00    +0.000 N 
ATOM      9  N   UNL     1      44.944   6.260  12.875  0.00  0.00    +0.000 NA
ATOM     10  C   UNL     1      44.421   5.408  11.932  0.00  0.00    +0.000 A 
ATOM     11  H   UNL     1      45.811   7.712  14.353  0.00  0.00    +0.000 HD
BRANCH  10  12
ATOM     12  C   UNL     1      43.133   4.710  12.301  0.00  0.00    +0.000 C 
ATOM     13  F   UNL     1      42.726   4.878  13.586  0.00  0.00    +0.000 F 
ATOM     14  F   UNL     1      42.084   5.129  11.534  0.00  0.00    +0.000 F 
ATOM     15  F   UNL     1      43.205   3.360  12.120  0.00  0.00    +0.000 F 
ENDBRANCH  10  12
BRANCH   4  17
ATOM     16  N   UNL     1      44.142   3.728   8.808  0.00  0.00    +0.000 NA
ATOM     17  C   UNL     1      44.553   4.403   9.655  0.00  0.00    +0.000 C 
ENDBRANCH   4  17
ENDBRANCH   1   8
BRANCH   1  18
ATOM     18  C   UNL     1      48.475   9.092  12.768  0.00  0.00    +0.000 A 
ATOM     19  C   UNL     1      47.924  10.285  12.276  0.00  0.00    +0.000 A 
ATOM     20  C   UNL     1      48.620  11.073  11.366  0.00  0.00    +0.000 A 
ATOM     21  C   UNL     1      49.875  10.669  10.909  0.00  0.00    +0.000 A 
ATOM     22  C   UNL     1      50.438   9.440  11.297  0.00  0.00    +0.000 A 
ATOM     23  C   UNL     1      49.707   8.671  12.225  0.00  0.00    +0.000 A 
BRANCH  22  24
ATOM     24  C   UNL     1      51.739   8.980  10.747  0.00  0.00    +0.000 A 
ATOM     25  C   UNL     1      52.741   9.897  10.386  0.00  0.00    +0.000 A 
ATOM     26  C   UNL     1      53.943   9.447   9.858  0.00  0.00    +0.000 A 
ATOM     27  N   UNL     1      54.225   8.151   9.637  0.00  0.00    +0.000 NA
ATOM     28  C   UNL     1      53.252   7.265   9.979  0.00  0.00    +0.000 A 
ATOM     29  C   UNL     1      52.029   7.624  10.540  0.00  0.00    +0.000 A 
BRANCH  28  30
ATOM     30  C   UNL     1      53.540   5.826   9.682  0.00  0.00    +0.000 C 
ATOM     31  N   UNL     1      53.816   5.050  10.775  0.00  0.00    +0.000 N 
ATOM     32  O   UNL     1      53.547   5.372   8.546  0.00  0.00    +0.000 OA
ATOM     33  H   UNL     1      53.829   5.477  11.696  0.00  0.00    +0.000 HD
ATOM     34  H   UNL     1      54.066   4.079  10.656  0.00  0.00    +0.000 HD
ENDBRANCH  28  30
ENDBRANCH  22  24
ENDBRANCH   1  18
TORSDOF 6
ENDMDL
MODEL 9
REMARK VINA RESULT:    -6.245      2.615      3.940
REMARK INTER + INTRA:          -9.282
REMARK INTER:                  -8.313
REMARK INTRA:                  -0.969
REMARK UNBOUND:                -0.847
REMARK  Name = 
REMARK  6 active torsions:
REMARK  status: ('A' for Active; 'I' for Inactive)
REMARK    1  A    between atoms: C_2  and  C_3
REMARK    2  A    between atoms: N_7  and  C_8
REMARK    3  A    between atoms: C_8  and  C_9
REMARK    4  A    between atoms: C_13  and  C_14
REMARK    5  A    between atoms: C_18  and  C_19
REMARK    6  A    between atoms: C_27  and  C_28
REMARK                            x       y       z     vdW  Elec       q    Type
REMARK                         _______ _______ _______ _____ _____    ______ ____
ROOT
ATOM      1  C   UNL     1      49.191   8.473  16.936  0.00  0.00    +0.000 C 
ATOM      2  C   UNL     1      49.204   9.899  17.484  0.00  0.00    +0.000 C 
ATOM      3  C   UNL     1      47.938   9.117  17.501  0.00  0.00    +0.000 C 
ENDROOT
BRANCH   1   8
ATOM      4  C   UNL     1      50.859   3.562  17.449  0.00  0.00    +0.000 A 
ATOM      5  N   UNL     1      49.629   3.966  17.017  0.00  0.00    +0.000 NA
ATOM      6  C   UNL     1      49.381   5.306  17.051  0.00  0.00    +0.000 A 
ATOM      7  C   UNL     1      50.309   6.235  17.486  0.00  0.00    +0.000 A 
ATOM      8  N   UNL     1      50.101   7.591  17.666  0.00  0.00    +0.000 N 
ATOM      9  N   UNL     1      51.530   5.819  17.881  0.00  0.00    +0.000 NA
ATOM     10  C   UNL     1      51.814   4.474  17.866  0.00  0.00    +0.000 A 
ATOM     11  H   UNL     1      50.991   7.999  17.947  0.00  0.00    +0.000 HD
BRANCH  10  12
ATOM     12  C   UNL     1      53.197   4.076  18.324  0.00  0.00    +0.000 C 
ATOM     13  F   UNL     1      53.948   3.416  17.404  0.00  0.00    +0.000 F 
ATOM     14  F   UNL     1      53.947   5.155  18.693  0.00  0.00    +0.000 F 
ATOM     15  F   UNL     1      53.165   3.259  19.416  0.00  0.00    +0.000 F 
ENDBRANCH  10  12
BRANCH   4  17
ATOM     16  N   UNL     1      51.188   0.986  17.467  0.00  0.00    +0.000 NA
ATOM     17  C   UNL     1      51.050   2.136  17.462  0.00  0.00    +0.000 C 
ENDBRANCH   4  17
ENDBRANCH   1   8
BRANCH   1  18
ATOM     18  C   UNL     1      49.183   8.262  15.423  0.00  0.00    +0.000 A 
ATOM     19  C   UNL     1      50.344   8.486  14.668  0.00  0.00    +0.000 A 
ATOM     20  C   UNL     1      50.401   8.142  13.322  0.00  0.00    +0.000 A 
ATOM     21  C   UNL     1      49.284   7.589  12.696  0.00  0.00    +0.000 A 
ATOM     22  C   UNL     1      48.064   7.425  13.377  0.00  0.00    +0.000 A 
ATOM     23  C   UNL     1      48.046   7.778  14.741  0.00  0.00    +0.000 A 
BRANCH  22  24
ATOM     24  C   UNL     1      46.857   6.907  12.684  0.00  0.00    +0.000 A 
ATOM     25  C   UNL     1      45.942   7.778  12.068  0.00  0.00    +0.000 A 
ATOM     26  C   UNL     1      44.811   7.275  11.441  0.00  0.00    +0.000 A 
ATOM     27  N   UNL     1      44.500   5.967  11.395  0.00  0.00    +0.000 NA
ATOM     28  C   UNL     1      45.382   5.126  11.997  0.00  0.00    +0.000 A 
ATOM     29  C   UNL     1      46.554   5.539  12.625  0.00  0.00    +0.000 A 
BRANCH  28  30
ATOM     30  C   UNL     1      45.011   3.675  11.997  0.00  0.00    +0.000 C 
ATOM     31  N   UNL     1      45.754   2.884  12.832  0.00  0.00    +0.000 N 
ATOM     32  O   UNL     1      44.122   3.218  11.291  0.00  0.00    +0.000 OA
ATOM     33  H   UNL     1      46.502   3.301  13.374  0.00  0.00    +0.000 HD
ATOM     34  H   UNL     1      45.597   1.887  12.855  0.00  0.00    +0.000 HD
ENDBRANCH  28  30
ENDBRANCH  22  24
ENDBRANCH   1  18
TORSDOF 6
ENDMDL
