MODEL 1
REMARK VINA RESULT:    -8.115      0.000      0.000
REMARK INTER + INTRA:         -12.761
REMARK INTER:                 -11.436
REMARK INTRA:                  -1.326
REMARK UNBOUND:                -1.326
REMARK  Name = 
REMARK  8 active torsions:
REMARK  status: ('A' for Active; 'I' for Inactive)
REMARK    1  A    between atoms: C_1  and  C_2
REMARK    2  A    between atoms: C_2  and  C_3
REMARK    3  A    between atoms: C_2  and  C_14
REMARK    4  A    between atoms: C_3  and  N_4
REMARK    5  A    between atoms: N_4  and  C_5
REMARK    6  A    between atoms: C_9  and  C_10
REMARK    7  A    between atoms: C_18  and  O_19
REMARK    8  A    between atoms: O_19  and  C_20
REMARK                            x       y       z     vdW  Elec       q    Type
REMARK                         _______ _______ _______ _____ _____    ______ ____
ROOT
ATOM      1  C   UNL     1      43.436   5.137  10.491  0.00  0.00    +0.000 C 
ENDROOT
BRANCH   1   3
ATOM      2  C   UNL     1      43.036   4.707  12.959  0.00  0.00    +0.000 C 
ATOM      3  C   UNL     1      43.552   5.708  11.918  0.00  0.00    +0.000 C 
BRANCH   3   4
ATOM      4  C   UNL     1      44.938   6.234  12.236  0.00  0.00    +0.000 A 
ATOM      5  N   UNL     1      45.235   7.485  11.842  0.00  0.00    +0.000 NA
ATOM      6  C   UNL     1      46.480   7.921  12.114  0.00  0.00    +0.000 A 
ATOM      7  C   UNL     1      47.435   7.164  12.749  0.00  0.00    +0.000 A 
ATOM      8  C   UNL     1      47.049   5.894  13.091  0.00  0.00    +0.000 A 
ATOM      9  N   UNL     1      45.825   5.412  12.825  0.00  0.00    +0.000 NA
BRANCH   8  10
ATOM     10  O   UNL     1      47.830   5.025  13.806  0.00  0.00    +0.000 OA
BRANCH  10  11
ATOM     11  C   UNL     1      47.218   4.300  14.882  0.00  0.00    +0.000 C 
ATOM     12  C   UNL     1      47.735   4.661  16.283  0.00  0.00    +0.000 C 
ATOM     13  C   UNL     1      47.879   3.157  16.464  0.00  0.00    +0.000 C 
ATOM     14  O   UNL     1      47.689   2.932  15.047  0.00  0.00    +0.000 OA
ENDBRANCH  10  11
ENDBRANCH   8  10
ENDBRANCH   3   4
ENDBRANCH   1   3
BRANCH   1  15
ATOM     15  N   UNL     1      44.709   5.136   9.764  0.00  0.00    +0.000 N 
ATOM     16  H   UNL     1      45.451   5.684  10.192  0.00  0.00    +0.000 HD
BRANCH  15  17
ATOM     17  C   UNL     1      45.164   3.984   9.129  0.00  0.00    +0.000 A 
ATOM     18  C   UNL     1      44.903   2.720   9.666  0.00  0.00    +0.000 A 
ATOM     19  N   UNL     1      45.305   1.539   9.130  0.00  0.00    +0.000 NA
ATOM     20  C   UNL     1      46.055   1.619   8.009  0.00  0.00    +0.000 A 
ATOM     21  C   UNL     1      46.447   2.817   7.432  0.00  0.00    +0.000 A 
ATOM     22  C   UNL     1      45.992   4.008   8.005  0.00  0.00    +0.000 A 
BRANCH  21  23
ATOM     23  C   UNL     1      47.301   2.797   6.230  0.00  0.00    +0.000 C 
ATOM     24  N   UNL     1      48.641   2.582   6.410  0.00  0.00    +0.000 N 
ATOM     25  O   UNL     1      46.832   2.937   5.110  0.00  0.00    +0.000 OA
ATOM     26  H   UNL     1      49.029   2.228   7.270  0.00  0.00    +0.000 HD
ATOM     27  H   UNL     1      49.199   2.484   5.567  0.00  0.00    +0.000 HD
ENDBRANCH  21  23
ENDBRANCH  15  17
ENDBRANCH   1  15
TORSDOF 7
ENDMDL
MODEL 2
REMARK VINA RESULT:    -6.808      1.601      2.760
REMARK INTER + INTRA:         -10.920
REMARK INTER:                 -10.342
REMARK INTRA:                  -0.578
REMARK UNBOUND:                -1.326
REMARK  Name = 
REMARK  8 active torsions:
REMARK  status: ('A' for Active; 'I' for Inactive)
REMARK    1  A    between atoms: C_1  and  C_2
REMARK    2  A    between atoms: C_2  and  C_3
REMARK    3  A    between atoms: C_2  and  C_14
REMARK    4  A    between atoms: C_3  and  N_4
REMARK    5  A    between atoms: N_4  and  C_5
REMARK    6  A    between atoms: C_9  and  C_10
REMARK    7  A    between atoms: C_18  and  O_19
REMARK    8  A    between atoms: O_19  and  C_20
REMARK                            x       y       z     vdW  Elec       q    Type
REMARK                         _______ _______ _______ _____ _____    ______ ____
ROOT
ATOM      1  C   UNL     1      45.121   6.222  12.502  0.00  0.00    +0.000 C 
ENDROOT
BRANCH   1   3
ATOM      2  C   UNL     1      47.337   7.015  11.554  0.00  0.00    +0.000 C 
ATOM      3  C   UNL     1      46.644   5.987  12.455  0.00  0.00    +0.000 C 
BRANCH   3   4
ATOM      4  C   UNL     1      47.272   5.885  13.832  0.00  0.00    +0.000 A 
ATOM      5  N   UNL     1      48.206   6.795  14.158  0.00  0.00    +0.000 NA
ATOM      6  C   UNL     1      48.767   6.669  15.377  0.00  0.00    +0.000 A 
ATOM      7  C   UNL     1      48.443   5.676  16.270  0.00  0.00    +0.000 A 
ATOM      8  C   UNL     1      47.498   4.782  15.840  0.00  0.00    +0.000 A 
ATOM      9  N   UNL     1      46.925   4.859  14.629  0.00  0.00    +0.000 NA
BRANCH   8  10
ATOM     10  O   UNL     1      46.984   3.781  16.620  0.00  0.00    +0.000 OA
BRANCH  10  11
ATOM     11  C   UNL     1      47.825   2.656  16.914  0.00  0.00    +0.000 C 
ATOM     12  C   UNL     1      48.898   2.912  17.983  0.00  0.00    +0.000 C 
ATOM     13  C   UNL     1      49.854   2.298  16.969  0.00  0.00    +0.000 C 
ATOM     14  O   UNL     1      48.858   2.387  15.923  0.00  0.00    +0.000 OA
ENDBRANCH  10  11
ENDBRANCH   8  10
ENDBRANCH   3   4
ENDBRANCH   1   3
BRANCH   1  15
ATOM     15  N   UNL     1      44.475   6.090  11.194  0.00  0.00    +0.000 N 
ATOM     16  H   UNL     1      44.540   6.910  10.595  0.00  0.00    +0.000 HD
BRANCH  15  17
ATOM     17  C   UNL     1      44.525   4.887  10.495  0.00  0.00    +0.000 A 
ATOM     18  C   UNL     1      43.832   3.763  10.956  0.00  0.00    +0.000 A 
ATOM     19  N   UNL     1      43.818   2.546  10.353  0.00  0.00    +0.000 NA
ATOM     20  C   UNL     1      44.579   2.422   9.244  0.00  0.00    +0.000 A 
ATOM     21  C   UNL     1      45.373   3.442   8.741  0.00  0.00    +0.000 A 
ATOM     22  C   UNL     1      45.339   4.684   9.379  0.00  0.00    +0.000 A 
BRANCH  21  23
ATOM     23  C   UNL     1      46.199   3.193   7.544  0.00  0.00    +0.000 C 
ATOM     24  N   UNL     1      46.688   1.926   7.366  0.00  0.00    +0.000 N 
ATOM     25  O   UNL     1      46.418   4.071   6.724  0.00  0.00    +0.000 OA
ATOM     26  H   UNL     1      46.341   1.128   7.875  0.00  0.00    +0.000 HD
ATOM     27  H   UNL     1      47.180   1.751   6.495  0.00  0.00    +0.000 HD
ENDBRANCH  21  23
ENDBRANCH  15  17
ENDBRANCH   1  15
TORSDOF 7
ENDMDL
MODEL 3
REMARK VINA RESULT:    -6.764      1.734      3.056
REMARK INTER + INTRA:         -10.858
REMARK INTER:                 -10.062
REMARK INTRA:                  -0.796
REMARK UNBOUND:                -1.326
REMARK  Name = 
REMARK  8 active torsions:
REMARK  status: ('A' for Active; 'I' for Inactive)
REMARK    1  A    between atoms: C_1  and  C_2
REMARK    2  A    between atoms: C_2  and  C_3
REMARK    3  A    between atoms: C_2  and  C_14
REMARK    4  A    between atoms: C_3  and  N_4
REMARK    5  A    between atoms: N_4  and  C_5
REMARK    6  A    between atoms: C_9  and  C_10
REMARK    7  A    between atoms: C_18  and  O_19
REMARK    8  A    between atoms: O_19  and  C_20
REMARK                            x       y       z     vdW  Elec       q    Type
REMARK                         _______ _______ _______ _____ _____    ______ ____
ROOT
ATOM      1  C   UNL     1      45.180   5.627   9.731  0.00  0.00    +0.000 C 
ENDROOT
BRANCH   1   3
ATOM      2  C   UNL     1      43.241   5.379  11.347  0.00  0.00    +0.000 C 
ATOM      3  C   UNL     1      44.642   5.963  11.136  0.00  0.00    +0.000 C 
BRANCH   3   4
ATOM      4  C   UNL     1      45.611   5.599  12.245  0.00  0.00    +0.000 A 
ATOM      5  N   UNL     1      45.186   4.736  13.184  0.00  0.00    +0.000 NA
ATOM      6  C   UNL     1      46.055   4.447  14.172  0.00  0.00    +0.000 A 
ATOM      7  C   UNL     1      47.315   4.987  14.265  0.00  0.00    +0.000 A 
ATOM      8  C   UNL     1      47.651   5.874  13.276  0.00  0.00    +0.000 A 
ATOM      9  N   UNL     1      46.811   6.204  12.282  0.00  0.00    +0.000 NA
BRANCH   8  10
ATOM     10  O   UNL     1      48.889   6.445  13.151  0.00  0.00    +0.000 OA
BRANCH  10  11
ATOM     11  C   UNL     1      48.998   7.655  12.388  0.00  0.00    +0.000 C 
ATOM     12  C   UNL     1      50.173   7.694  11.398  0.00  0.00    +0.000 C 
ATOM     13  C   UNL     1      50.472   9.050  12.022  0.00  0.00    +0.000 C 
ATOM     14  O   UNL     1      49.555   8.790  13.111  0.00  0.00    +0.000 OA
ENDBRANCH  10  11
ENDBRANCH   8  10
ENDBRANCH   3   4
ENDBRANCH   1   3
BRANCH   1  15
ATOM     15  N   UNL     1      44.433   4.556   9.067  0.00  0.00    +0.000 N 
ATOM     16  H   UNL     1      43.663   4.865   8.480  0.00  0.00    +0.000 HD
BRANCH  15  17
ATOM     17  C   UNL     1      45.089   3.431   8.574  0.00  0.00    +0.000 A 
ATOM     18  C   UNL     1      44.952   2.189   9.203  0.00  0.00    +0.000 A 
ATOM     19  N   UNL     1      45.550   1.037   8.807  0.00  0.00    +0.000 NA
ATOM     20  C   UNL     1      46.377   1.130   7.742  0.00  0.00    +0.000 A 
ATOM     21  C   UNL     1      46.656   2.322   7.090  0.00  0.00    +0.000 A 
ATOM     22  C   UNL     1      46.000   3.479   7.517  0.00  0.00    +0.000 A 
BRANCH  21  23
ATOM     23  C   UNL     1      47.604   2.324   5.961  0.00  0.00    +0.000 C 
ATOM     24  N   UNL     1      47.471   3.315   5.026  0.00  0.00    +0.000 N 
ATOM     25  O   UNL     1      48.496   1.493   5.873  0.00  0.00    +0.000 OA
ATOM     26  H   UNL     1      46.919   4.145   5.181  0.00  0.00    +0.000 HD
ATOM     27  H   UNL     1      48.185   3.354   4.304  0.00  0.00    +0.000 HD
ENDBRANCH  21  23
ENDBRANCH  15  17
ENDBRANCH   1  15
TORSDOF 7
ENDMDL
MODEL 4
REMARK VINA RESULT:    -6.746      2.990      7.730
REMARK INTER + INTRA:         -10.832
REMARK INTER:                 -10.147
REMARK INTRA:                  -0.686
REMARK UNBOUND:                -1.326
REMARK  Name = 
REMARK  8 active torsions:
REMARK  status: ('A' for Active; 'I' for Inactive)
REMARK    1  A    between atoms: C_1  and  C_2
REMARK    2  A    between atoms: C_2  and  C_3
REMARK    3  A    between atoms: C_2  and  C_14
REMARK    4  A    between atoms: C_3  and  N_4
REMARK    5  A    between atoms: N_4  and  C_5
REMARK    6  A    between atoms: C_9  and  C_10
REMARK    7  A    between atoms: C_18  and  O_19
REMARK    8  A    between atoms: O_19  and  C_20
REMARK                            x       y       z     vdW  Elec       q    Type
REMARK                         _______ _______ _______ _____ _____    ______ ____
ROOT
ATOM      1  C   UNL     1      47.013   4.572  14.076  0.00  0.00    +0.000 C 
ENDROOT
BRANCH   1   3
ATOM      2  C   UNL     1      47.392   6.413  12.371  0.00  0.00    +0.000 C 
ATOM      3  C   UNL     1      46.376   5.748  13.308  0.00  0.00    +0.000 C 
BRANCH   3   4
ATOM      4  C   UNL     1      45.083   5.371  12.611  0.00  0.00    +0.000 A 
ATOM      5  N   UNL     1      43.933   5.597  13.269  0.00  0.00    +0.000 NA
ATOM      6  C   UNL     1      42.799   5.231  12.640  0.00  0.00    +0.000 A 
ATOM      7  C   UNL     1      42.768   4.646  11.397  0.00  0.00    +0.000 A 
ATOM      8  C   UNL     1      43.990   4.433  10.815  0.00  0.00    +0.000 A 
ATOM      9  N   UNL     1      45.146   4.767  11.411  0.00  0.00    +0.000 NA
BRANCH   8  10
ATOM     10  O   UNL     1      44.157   3.945   9.546  0.00  0.00    +0.000 OA
BRANCH  10  11
ATOM     11  C   UNL     1      45.448   3.431   9.187  0.00  0.00    +0.000 C 
ATOM     12  C   UNL     1      45.820   3.594   7.705  0.00  0.00    +0.000 C 
ATOM     13  C   UNL     1      46.181   2.117   7.779  0.00  0.00    +0.000 C 
ATOM     14  O   UNL     1      45.519   1.983   9.059  0.00  0.00    +0.000 OA
ENDBRANCH  10  11
ENDBRANCH   8  10
ENDBRANCH   3   4
ENDBRANCH   1   3
BRANCH   1  15
ATOM     15  N   UNL     1      46.508   4.436  15.445  0.00  0.00    +0.000 N 
ATOM     16  H   UNL     1      45.615   3.958  15.530  0.00  0.00    +0.000 HD
BRANCH  15  17
ATOM     17  C   UNL     1      47.378   4.181  16.501  0.00  0.00    +0.000 A 
ATOM     18  C   UNL     1      47.240   4.853  17.720  0.00  0.00    +0.000 A 
ATOM     19  N   UNL     1      48.035   4.681  18.807  0.00  0.00    +0.000 NA
ATOM     20  C   UNL     1      49.065   3.818  18.661  0.00  0.00    +0.000 A 
ATOM     21  C   UNL     1      49.350   3.158  17.476  0.00  0.00    +0.000 A 
ATOM     22  C   UNL     1      48.492   3.347  16.390  0.00  0.00    +0.000 A 
BRANCH  21  23
ATOM     23  C   UNL     1      50.523   2.266  17.409  0.00  0.00    +0.000 C 
ATOM     24  N   UNL     1      51.593   2.567  18.208  0.00  0.00    +0.000 N 
ATOM     25  O   UNL     1      50.534   1.278  16.690  0.00  0.00    +0.000 OA
ATOM     26  H   UNL     1      51.537   3.216  18.978  0.00  0.00    +0.000 HD
ATOM     27  H   UNL     1      52.355   1.895  18.214  0.00  0.00    +0.000 HD
ENDBRANCH  21  23
ENDBRANCH  15  17
ENDBRANCH   1  15
TORSDOF 7
ENDMDL
MODEL 5
REMARK VINA RESULT:    -6.728      2.435      7.495
REMARK INTER + INTRA:         -10.807
REMARK INTER:                  -9.759
REMARK INTRA:                  -1.048
REMARK UNBOUND:                -1.326
REMARK  Name = 
REMARK  8 active torsions:
REMARK  status: ('A' for Active; 'I' for Inactive)
REMARK    1  A    between atoms: C_1  and  C_2
REMARK    2  A    between atoms: C_2  and  C_3
REMARK    3  A    between atoms: C_2  and  C_14
REMARK    4  A    between atoms: C_3  and  N_4
REMARK    5  A    between atoms: N_4  and  C_5
REMARK    6  A    between atoms: C_9  and  C_10
REMARK    7  A    between atoms: C_18  and  O_19
REMARK    8  A    between atoms: O_19  and  C_20
REMARK                            x       y       z     vdW  Elec       q    Type
REMARK                         _______ _______ _______ _____ _____    ______ ____
ROOT
ATOM      1  C   UNL     1      46.491   6.636  12.785  0.00  0.00    +0.000 C 
ENDROOT
BRANCH   1   3
ATOM      2  C   UNL     1      44.709   7.826  11.425  0.00  0.00    +0.000 C 
ATOM      3  C   UNL     1      45.008   6.651  12.364  0.00  0.00    +0.000 C 
BRANCH   3   4
ATOM      4  C   UNL     1      44.532   5.319  11.818  0.00  0.00    +0.000 A 
ATOM      5  N   UNL     1      43.885   4.496  12.661  0.00  0.00    +0.000 NA
ATOM      6  C   UNL     1      43.494   3.308  12.160  0.00  0.00    +0.000 A 
ATOM      7  C   UNL     1      43.729   2.909  10.866  0.00  0.00    +0.000 A 
ATOM      8  C   UNL     1      44.417   3.803  10.089  0.00  0.00    +0.000 A 
ATOM      9  N   UNL     1      44.840   4.990  10.551  0.00  0.00    +0.000 NA
BRANCH   8  10
ATOM     10  O   UNL     1      44.667   3.620   8.755  0.00  0.00    +0.000 OA
BRANCH  10  11
ATOM     11  C   UNL     1      45.998   3.254   8.364  0.00  0.00    +0.000 C 
ATOM     12  C   UNL     1      46.280   3.350   6.857  0.00  0.00    +0.000 C 
ATOM     13  C   UNL     1      46.839   1.943   7.014  0.00  0.00    +0.000 C 
ATOM     14  O   UNL     1      46.258   1.822   8.334  0.00  0.00    +0.000 OA
ENDBRANCH  10  11
ENDBRANCH   8  10
ENDBRANCH   3   4
ENDBRANCH   1   3
BRANCH   1  15
ATOM     15  N   UNL     1      46.921   5.350  13.341  0.00  0.00    +0.000 N 
ATOM     16  H   UNL     1      47.316   4.699  12.669  0.00  0.00    +0.000 HD
BRANCH  15  17
ATOM     17  C   UNL     1      47.519   5.283  14.597  0.00  0.00    +0.000 A 
ATOM     18  C   UNL     1      48.546   6.165  14.948  0.00  0.00    +0.000 A 
ATOM     19  N   UNL     1      49.196   6.180  16.140  0.00  0.00    +0.000 NA
ATOM     20  C   UNL     1      48.835   5.227  17.027  0.00  0.00    +0.000 A 
ATOM     21  C   UNL     1      47.890   4.249  16.760  0.00  0.00    +0.000 A 
ATOM     22  C   UNL     1      47.229   4.285  15.529  0.00  0.00    +0.000 A 
BRANCH  21  23
ATOM     23  C   UNL     1      47.595   3.228  17.782  0.00  0.00    +0.000 C 
ATOM     24  N   UNL     1      48.402   3.189  18.888  0.00  0.00    +0.000 N 
ATOM     25  O   UNL     1      46.650   2.462  17.668  0.00  0.00    +0.000 OA
ATOM     26  H   UNL     1      49.028   3.939  19.136  0.00  0.00    +0.000 HD
ATOM     27  H   UNL     1      48.132   2.540  19.621  0.00  0.00    +0.000 HD
ENDBRANCH  21  23
ENDBRANCH  15  17
ENDBRANCH   1  15
TORSDOF 7
ENDMDL
MODEL 6
REMARK VINA RESULT:    -6.572      2.317      3.410
REMARK INTER + INTRA:         -10.587
REMARK INTER:                  -9.426
REMARK INTRA:                  -1.161
REMARK UNBOUND:                -1.326
REMARK  Name = 
REMARK  8 active torsions:
REMARK  status: ('A' for Active; 'I' for Inactive)
REMARK    1  A    between atoms: C_1  and  C_2
REMARK    2  A    between atoms: C_2  and  C_3
REMARK    3  A    between atoms: C_2  and  C_14
REMARK    4  A    between atoms: C_3  and  N_4
REMARK    5  A    between atoms: N_4  and  C_5
REMARK    6  A    between atoms: C_9  and  C_10
REMARK    7  A    between atoms: C_18  and  O_19
REMARK    8  A    between atoms: O_19  and  C_20
REMARK                            x       y       z     vdW  Elec       q    Type
REMARK                         _______ _______ _______ _____ _____    ______ ____
ROOT
ATOM      1  C   UNL     1      44.140   2.371  11.524  0.00  0.00    +0.000 C 
ENDROOT
BRANCH   1   3
ATOM      2  C   UNL     1      46.061   3.347  12.864  0.00  0.00    +0.000 C 
ATOM      3  C   UNL     1      44.564   3.444  12.547  0.00  0.00    +0.000 C 
BRANCH   3   4
ATOM      4  C   UNL     1      44.129   4.843  12.155  0.00  0.00    +0.000 A 
ATOM      5  N   UNL     1      42.822   5.042  11.907  0.00  0.00    +0.000 NA
ATOM      6  C   UNL     1      42.464   6.286  11.536  0.00  0.00    +0.000 A 
ATOM      7  C   UNL     1      43.350   7.328  11.395  0.00  0.00    +0.000 A 
ATOM      8  C   UNL     1      44.662   7.024  11.645  0.00  0.00    +0.000 A 
ATOM      9  N   UNL     1      45.067   5.794  12.001  0.00  0.00    +0.000 NA
BRANCH   8  10
ATOM     10  O   UNL     1      45.674   7.947  11.642  0.00  0.00    +0.000 OA
BRANCH  10  11
ATOM     11  C   UNL     1      46.891   7.613  12.324  0.00  0.00    +0.000 C 
ATOM     12  C   UNL     1      47.595   8.794  13.010  0.00  0.00    +0.000 C 
ATOM     13  C   UNL     1      48.839   8.286  12.295  0.00  0.00    +0.000 C 
ATOM     14  O   UNL     1      48.045   7.412  11.458  0.00  0.00    +0.000 OA
ENDBRANCH  10  11
ENDBRANCH   8  10
ENDBRANCH   3   4
ENDBRANCH   1   3
BRANCH   1  15
ATOM     15  N   UNL     1      43.834   2.923  10.201  0.00  0.00    +0.000 N 
ATOM     16  H   UNL     1      43.109   3.636  10.188  0.00  0.00    +0.000 HD
BRANCH  15  17
ATOM     17  C   UNL     1      44.845   3.142   9.270  0.00  0.00    +0.000 A 
ATOM     18  C   UNL     1      45.114   4.430   8.796  0.00  0.00    +0.000 A 
ATOM     19  N   UNL     1      46.072   4.749   7.887  0.00  0.00    +0.000 NA
ATOM     20  C   UNL     1      46.780   3.716   7.381  0.00  0.00    +0.000 A 
ATOM     21  C   UNL     1      46.547   2.390   7.713  0.00  0.00    +0.000 A 
ATOM     22  C   UNL     1      45.567   2.109   8.669  0.00  0.00    +0.000 A 
BRANCH  21  23
ATOM     23  C   UNL     1      47.350   1.331   7.073  0.00  0.00    +0.000 C 
ATOM     24  N   UNL     1      48.398   1.722   6.285  0.00  0.00    +0.000 N 
ATOM     25  O   UNL     1      47.111   0.147   7.259  0.00  0.00    +0.000 OA
ATOM     26  H   UNL     1      48.774   2.658   6.297  0.00  0.00    +0.000 HD
ATOM     27  H   UNL     1      48.993   0.982   5.924  0.00  0.00    +0.000 HD
ENDBRANCH  21  23
ENDBRANCH  15  17
ENDBRANCH   1  15
TORSDOF 7
ENDMDL
MODEL 7
REMARK VINA RESULT:    -6.543      3.056      8.032
REMARK INTER + INTRA:         -10.547
REMARK INTER:                  -9.545
REMARK INTRA:                  -1.001
REMARK UNBOUND:                -1.326
REMARK  Name = 
REMARK  8 active torsions:
REMARK  status: ('A' for Active; 'I' for Inactive)
REMARK    1  A    between atoms: C_1  and  C_2
REMARK    2  A    between atoms: C_2  and  C_3
REMARK    3  A    between atoms: C_2  and  C_14
REMARK    4  A    between atoms: C_3  and  N_4
REMARK    5  A    between atoms: N_4  and  C_5
REMARK    6  A    between atoms: C_9  and  C_10
REMARK    7  A    between atoms: C_18  and  O_19
REMARK    8  A    between atoms: O_19  and  C_20
REMARK                            x       y       z     vdW  Elec       q    Type
REMARK                         _______ _______ _______ _____ _____    ______ ____
ROOT
ATOM      1  C   UNL     1      47.416   5.812  13.969  0.00  0.00    +0.000 C 
ENDROOT
BRANCH   1   3
ATOM      2  C   UNL     1      47.192   7.040  11.761  0.00  0.00    +0.000 C 
ATOM      3  C   UNL     1      46.444   6.475  12.973  0.00  0.00    +0.000 C 
BRANCH   3   4
ATOM      4  C   UNL     1      45.284   5.576  12.589  0.00  0.00    +0.000 A 
ATOM      5  N   UNL     1      44.065   5.903  13.051  0.00  0.00    +0.000 NA
ATOM      6  C   UNL     1      43.054   5.077  12.717  0.00  0.00    +0.000 A 
ATOM      7  C   UNL     1      43.213   3.943  11.956  0.00  0.00    +0.000 A 
ATOM      8  C   UNL     1      44.495   3.678  11.552  0.00  0.00    +0.000 A 
ATOM      9  N   UNL     1      45.534   4.465  11.875  0.00  0.00    +0.000 NA
BRANCH   8  10
ATOM     10  O   UNL     1      44.835   2.647  10.717  0.00  0.00    +0.000 OA
BRANCH  10  11
ATOM     11  C   UNL     1      44.515   2.775   9.325  0.00  0.00    +0.000 C 
ATOM     12  C   UNL     1      45.573   2.215   8.363  0.00  0.00    +0.000 C 
ATOM     13  C   UNL     1      45.440   3.557   7.657  0.00  0.00    +0.000 C 
ATOM     14  O   UNL     1      44.701   4.109   8.772  0.00  0.00    +0.000 OA
ENDBRANCH  10  11
ENDBRANCH   8  10
ENDBRANCH   3   4
ENDBRANCH   1   3
BRANCH   1  15
ATOM     15  N   UNL     1      46.749   4.919  14.920  0.00  0.00    +0.000 N 
ATOM     16  H   UNL     1      46.055   4.297  14.514  0.00  0.00    +0.000 HD
BRANCH  15  17
ATOM     17  C   UNL     1      47.455   4.350  15.977  0.00  0.00    +0.000 A 
ATOM     18  C   UNL     1      48.099   3.117  15.825  0.00  0.00    +0.000 A 
ATOM     19  N   UNL     1      48.807   2.477  16.790  0.00  0.00    +0.000 NA
ATOM     20  C   UNL     1      48.841   3.075  18.001  0.00  0.00    +0.000 A 
ATOM     21  C   UNL     1      48.171   4.254  18.292  0.00  0.00    +0.000 A 
ATOM     22  C   UNL     1      47.474   4.891  17.263  0.00  0.00    +0.000 A 
BRANCH  21  23
ATOM     23  C   UNL     1      48.239   4.806  19.658  0.00  0.00    +0.000 C 
ATOM     24  N   UNL     1      48.689   3.979  20.653  0.00  0.00    +0.000 N 
ATOM     25  O   UNL     1      47.933   5.965  19.896  0.00  0.00    +0.000 OA
ATOM     26  H   UNL     1      49.172   3.113  20.469  0.00  0.00    +0.000 HD
ATOM     27  H   UNL     1      48.812   4.400  21.569  0.00  0.00    +0.000 HD
ENDBRANCH  21  23
ENDBRANCH  15  17
ENDBRANCH   1  15
TORSDOF 7
ENDMDL
MODEL 8
REMARK VINA RESULT:    -6.421      2.325      4.002
REMARK INTER + INTRA:         -10.375
REMARK INTER:                  -9.186
REMARK INTRA:                  -1.188
REMARK UNBOUND:                -1.326
REMARK  Name = 
REMARK  8 active torsions:
REMARK  status: ('A' for Active; 'I' for Inactive)
REMARK    1  A    between atoms: C_1  and  C_2
REMARK    2  A    between atoms: C_2  and  C_3
REMARK    3  A    between atoms: C_2  and  C_14
REMARK    4  A    between atoms: C_3  and  N_4
REMARK    5  A    between atoms: N_4  and  C_5
REMARK    6  A    between atoms: C_9  and  C_10
REMARK    7  A    between atoms: C_18  and  O_19
REMARK    8  A    between atoms: O_19  and  C_20
REMARK                            x       y       z     vdW  Elec       q    Type
REMARK                         _______ _______ _______ _____ _____    ______ ____
ROOT
ATOM      1  C   UNL     1      45.985   8.573  12.481  0.00  0.00    +0.000 C 
ENDROOT
BRANCH   1   3
ATOM      2  C   UNL     1      48.244   9.592  11.936  0.00  0.00    +0.000 C 
ATOM      3  C   UNL     1      47.514   8.402  12.572  0.00  0.00    +0.000 C 
BRANCH   3   4
ATOM      4  C   UNL     1      47.995   8.093  13.977  0.00  0.00    +0.000 A 
ATOM      5  N   UNL     1      48.238   9.132  14.794  0.00  0.00    +0.000 NA
ATOM      6  C   UNL     1      48.688   8.834  16.029  0.00  0.00    +0.000 A 
ATOM      7  C   UNL     1      48.911   7.552  16.472  0.00  0.00    +0.000 A 
ATOM      8  C   UNL     1      48.658   6.560  15.561  0.00  0.00    +0.000 A 
ATOM      9  N   UNL     1      48.225   6.812  14.316  0.00  0.00    +0.000 NA
BRANCH   8  10
ATOM     10  O   UNL     1      48.737   5.223  15.847  0.00  0.00    +0.000 OA
BRANCH  10  11
ATOM     11  C   UNL     1      47.931   4.716  16.920  0.00  0.00    +0.000 C 
ATOM     12  C   UNL     1      48.593   3.616  17.764  0.00  0.00    +0.000 C 
ATOM     13  C   UNL     1      47.290   2.858  17.544  0.00  0.00    +0.000 C 
ATOM     14  O   UNL     1      46.881   3.792  16.517  0.00  0.00    +0.000 OA
ENDBRANCH  10  11
ENDBRANCH   8  10
ENDBRANCH   3   4
ENDBRANCH   1   3
BRANCH   1  15
ATOM     15  N   UNL     1      45.243   7.480  13.117  0.00  0.00    +0.000 N 
ATOM     16  H   UNL     1      44.397   7.760  13.606  0.00  0.00    +0.000 HD
BRANCH  15  17
ATOM     17  C   UNL     1      45.143   6.236  12.502  0.00  0.00    +0.000 A 
ATOM     18  C   UNL     1      45.089   5.064  13.263  0.00  0.00    +0.000 A 
ATOM     19  N   UNL     1      44.996   3.805  12.762  0.00  0.00    +0.000 NA
ATOM     20  C   UNL     1      45.003   3.698  11.415  0.00  0.00    +0.000 A 
ATOM     21  C   UNL     1      45.137   4.781  10.560  0.00  0.00    +0.000 A 
ATOM     22  C   UNL     1      45.207   6.060  11.118  0.00  0.00    +0.000 A 
BRANCH  21  23
ATOM     23  C   UNL     1      45.174   4.553   9.104  0.00  0.00    +0.000 C 
ATOM     24  N   UNL     1      44.184   3.779   8.560  0.00  0.00    +0.000 N 
ATOM     25  O   UNL     1      46.035   5.057   8.399  0.00  0.00    +0.000 OA
ATOM     26  H   UNL     1      43.335   3.549   9.052  0.00  0.00    +0.000 HD
ATOM     27  H   UNL     1      44.174   3.705   7.547  0.00  0.00    +0.000 HD
ENDBRANCH  21  23
ENDBRANCH  15  17
ENDBRANCH   1  15
TORSDOF 7
ENDMDL
MODEL 9
REMARK VINA RESULT:    -6.191      3.104      4.938
REMARK INTER + INTRA:         -10.050
REMARK INTER:                  -8.877
REMARK INTRA:                  -1.173
REMARK UNBOUND:                -1.326
REMARK  Name = 
REMARK  8 active torsions:
REMARK  status: ('A' for Active; 'I' for Inactive)
REMARK    1  A    between atoms: C_1  and  C_2
REMARK    2  A    between atoms: C_2  and  C_3
REMARK    3  A    between atoms: C_2  and  C_14
REMARK    4  A    between atoms: C_3  and  N_4
REMARK    5  A    between atoms: N_4  and  C_5
REMARK    6  A    between atoms: C_9  and  C_10
REMARK    7  A    between atoms: C_18  and  O_19
REMARK    8  A    between atoms: O_19  and  C_20
REMARK                            x       y       z     vdW  Elec       q    Type
REMARK                         _______ _______ _______ _____ _____    ______ ____
ROOT
ATOM      1  C   UNL     1      47.542   7.830  12.731  0.00  0.00    +0.000 C 
ENDROOT
BRANCH   1   3
ATOM      2  C   UNL     1      49.714   7.986  11.428  0.00  0.00    +0.000 C 
ATOM      3  C   UNL     1      48.987   7.310  12.597  0.00  0.00    +0.000 C 
BRANCH   3   4
ATOM      4  C   UNL     1      49.764   7.376  13.897  0.00  0.00    +0.000 A 
ATOM      5  N   UNL     1      50.854   8.163  13.932  0.00  0.00    +0.000 NA
ATOM      6  C   UNL     1      51.542   8.186  15.090  0.00  0.00    +0.000 A 
ATOM      7  C   UNL     1      51.195   7.455  16.201  0.00  0.00    +0.000 A 
ATOM      8  C   UNL     1      50.085   6.663  16.063  0.00  0.00    +0.000 A 
ATOM      9  N   UNL     1      49.379   6.597  14.924  0.00  0.00    +0.000 NA
BRANCH   8  10
ATOM     10  O   UNL     1      49.537   5.934  17.084  0.00  0.00    +0.000 OA
BRANCH  10  11
ATOM     11  C   UNL     1      48.403   5.106  16.785  0.00  0.00    +0.000 C 
ATOM     12  C   UNL     1      47.511   4.771  17.990  0.00  0.00    +0.000 C 
ATOM     13  C   UNL     1      47.632   3.334  17.502  0.00  0.00    +0.000 C 
ATOM     14  O   UNL     1      48.706   3.694  16.600  0.00  0.00    +0.000 OA
ENDBRANCH  10  11
ENDBRANCH   8  10
ENDBRANCH   3   4
ENDBRANCH   1   3
BRANCH   1  15
ATOM     15  N   UNL     1      46.715   7.014  13.623  0.00  0.00    +0.000 N 
ATOM     16  H   UNL     1      46.057   7.533  14.199  0.00  0.00    +0.000 HD
BRANCH  15  17
ATOM     17  C   UNL     1      46.232   5.775  13.210  0.00  0.00    +0.000 A 
ATOM     18  C   UNL     1      46.765   4.590  13.729  0.00  0.00    +0.000 A 
ATOM     19  N   UNL     1      46.370   3.336  13.390  0.00  0.00    +0.000 NA
ATOM     20  C   UNL     1      45.414   3.249  12.439  0.00  0.00    +0.000 A 
ATOM     21  C   UNL     1      44.871   4.350  11.795  0.00  0.00    +0.000 A 
ATOM     22  C   UNL     1      45.290   5.623  12.191  0.00  0.00    +0.000 A 
BRANCH  21  23
ATOM     23  C   UNL     1      43.859   4.146  10.742  0.00  0.00    +0.000 C 
ATOM     24  N   UNL     1      44.023   4.830   9.567  0.00  0.00    +0.000 N 
ATOM     25  O   UNL     1      42.923   3.376  10.894  0.00  0.00    +0.000 OA
ATOM     26  H   UNL     1      44.889   5.278   9.309  0.00  0.00    +0.000 HD
ATOM     27  H   UNL     1      43.367   4.611   8.822  0.00  0.00    +0.000 HD
ENDBRANCH  21  23
ENDBRANCH  15  17
ENDBRANCH   1  15
TORSDOF 7
ENDMDL
