MODEL 1
REMARK VINA RESULT:    -7.839      0.000      0.000
REMARK INTER + INTRA:          -9.857
REMARK INTER:                  -9.443
REMARK INTRA:                  -0.414
REMARK UNBOUND:                -0.414
REMARK  Name = 
REMARK  4 active torsions:
REMARK  status: ('A' for Active; 'I' for Inactive)
REMARK    1  A    between atoms: N_1  and  C_2
REMARK    2  A    between atoms: C_2  and  C_3
REMARK    3  A    between atoms: C_6  and  C_7
REMARK    4  A    between atoms: C_7  and  N_8
REMARK                            x       y       z     vdW  Elec       q    Type
REMARK                         _______ _______ _______ _____ _____    ______ ____
ROOT
ATOM      1  C   UNL     1      44.188   3.152  10.482  0.00  0.00    +0.000 C 
ENDROOT
BRANCH   1   2
ATOM      2  N   UNL     1      44.983   3.733  11.554  0.00  0.00    +0.000 N 
ATOM      3  N   UNL     1      45.533   2.920  12.483  0.00  0.00    +0.000 NA
ATOM      4  C   UNL     1      46.192   3.760  13.284  0.00  0.00    +0.000 A 
ATOM      5  C   UNL     1      46.048   5.111  12.898  0.00  0.00    +0.000 A 
ATOM      6  C   UNL     1      46.518   6.348  13.372  0.00  0.00    +0.000 A 
ATOM      7  C   UNL     1      46.132   7.510  12.696  0.00  0.00    +0.000 A 
ATOM      8 CL   UNL     1      46.715   9.036  13.243  0.00  0.00    +0.000 Cl
ATOM      9  C   UNL     1      45.288   7.458  11.589  0.00  0.00    +0.000 A 
ATOM     10  C   UNL     1      44.809   6.234  11.108  0.00  0.00    +0.000 A 
ATOM     11  C   UNL     1      45.221   5.072  11.777  0.00  0.00    +0.000 A 
ENDBRANCH   1   2
BRANCH   1  15
ATOM     12  C   UNL     1      46.519   2.801   6.929  0.00  0.00    +0.000 A 
ATOM     13  C   UNL     1      46.357   1.672   7.726  0.00  0.00    +0.000 A 
ATOM     14  C   UNL     1      45.584   1.765   8.882  0.00  0.00    +0.000 A 
ATOM     15  C   UNL     1      44.983   2.980   9.219  0.00  0.00    +0.000 A 
ATOM     16  C   UNL     1      45.156   4.040   8.335  0.00  0.00    +0.000 A 
ATOM     17  N   UNL     1      45.912   3.980   7.216  0.00  0.00    +0.000 NA
BRANCH  12  18
ATOM     18  C   UNL     1      47.427   2.757   5.718  0.00  0.00    +0.000 C 
BRANCH  18  19
ATOM     19  N   UNL     1      48.495   1.758   5.828  0.00  0.00    +0.000 NA
ATOM     20  H   UNL     1      49.390   2.237   5.747  0.00  0.00    +0.000 HD
ATOM     21  H   UNL     1      48.433   1.149   5.010  0.00  0.00    +0.000 HD
ENDBRANCH  18  19
ENDBRANCH  12  18
ENDBRANCH   1  15
TORSDOF 4
ENDMDL
MODEL 2
REMARK VINA RESULT:    -7.271      1.674      2.467
REMARK INTER + INTRA:          -9.173
REMARK INTER:                  -8.632
REMARK INTRA:                  -0.541
REMARK UNBOUND:                -0.414
REMARK  Name = 
REMARK  4 active torsions:
REMARK  status: ('A' for Active; 'I' for Inactive)
REMARK    1  A    between atoms: N_1  and  C_2
REMARK    2  A    between atoms: C_2  and  C_3
REMARK    3  A    between atoms: C_6  and  C_7
REMARK    4  A    between atoms: C_7  and  N_8
REMARK                            x       y       z     vdW  Elec       q    Type
REMARK                         _______ _______ _______ _____ _____    ______ ____
ROOT
ATOM      1  C   UNL     1      43.844   4.553  10.237  0.00  0.00    +0.000 C 
ENDROOT
BRANCH   1   2
ATOM      2  N   UNL     1      44.629   5.381  11.140  0.00  0.00    +0.000 N 
ATOM      3  N   UNL     1      44.651   6.720  10.956  0.00  0.00    +0.000 NA
ATOM      4  C   UNL     1      45.432   7.159  11.945  0.00  0.00    +0.000 A 
ATOM      5  C   UNL     1      45.938   6.114  12.749  0.00  0.00    +0.000 A 
ATOM      6  C   UNL     1      46.770   6.027  13.879  0.00  0.00    +0.000 A 
ATOM      7  C   UNL     1      47.057   4.760  14.397  0.00  0.00    +0.000 A 
ATOM      8 CL   UNL     1      48.054   4.629  15.796  0.00  0.00    +0.000 Cl
ATOM      9  C   UNL     1      46.553   3.604  13.806  0.00  0.00    +0.000 A 
ATOM     10  C   UNL     1      45.727   3.675  12.678  0.00  0.00    +0.000 A 
ATOM     11  C   UNL     1      45.424   4.951  12.180  0.00  0.00    +0.000 A 
ENDBRANCH   1   2
BRANCH   1  15
ATOM     12  C   UNL     1      46.421   2.421   7.592  0.00  0.00    +0.000 A 
ATOM     13  C   UNL     1      45.685   1.695   8.524  0.00  0.00    +0.000 A 
ATOM     14  C   UNL     1      44.824   2.375   9.384  0.00  0.00    +0.000 A 
ATOM     15  C   UNL     1      44.711   3.764   9.297  0.00  0.00    +0.000 A 
ATOM     16  C   UNL     1      45.444   4.399   8.301  0.00  0.00    +0.000 A 
ATOM     17  N   UNL     1      46.297   3.766   7.463  0.00  0.00    +0.000 NA
BRANCH  12  18
ATOM     18  C   UNL     1      47.432   1.722   6.706  0.00  0.00    +0.000 C 
BRANCH  18  19
ATOM     19  N   UNL     1      48.581   2.564   6.360  0.00  0.00    +0.000 NA
ATOM     20  H   UNL     1      48.463   3.468   6.812  0.00  0.00    +0.000 HD
ATOM     21  H   UNL     1      48.535   2.749   5.356  0.00  0.00    +0.000 HD
ENDBRANCH  18  19
ENDBRANCH  12  18
ENDBRANCH   1  15
TORSDOF 4
ENDMDL
MODEL 3
REMARK VINA RESULT:    -7.231      1.693      2.589
REMARK INTER + INTRA:          -9.125
REMARK INTER:                  -8.610
REMARK INTRA:                  -0.514
REMARK UNBOUND:                -0.414
REMARK  Name = 
REMARK  4 active torsions:
REMARK  status: ('A' for Active; 'I' for Inactive)
REMARK    1  A    between atoms: N_1  and  C_2
REMARK    2  A    between atoms: C_2  and  C_3
REMARK    3  A    between atoms: C_6  and  C_7
REMARK    4  A    between atoms: C_7  and  N_8
REMARK                            x       y       z     vdW  Elec       q    Type
REMARK                         _______ _______ _______ _____ _____    ______ ____
ROOT
ATOM      1  C   UNL     1      43.987   4.416  10.290  0.00  0.00    +0.000 C 
ENDROOT
BRANCH   1   2
ATOM      2  N   UNL     1      44.706   5.396  11.089  0.00  0.00    +0.000 N 
ATOM      3  N   UNL     1      44.608   6.706  10.771  0.00  0.00    +0.000 NA
ATOM      4  C   UNL     1      45.359   7.310  11.695  0.00  0.00    +0.000 A 
ATOM      5  C   UNL     1      45.965   6.399  12.589  0.00  0.00    +0.000 A 
ATOM      6  C   UNL     1      46.814   6.499  13.705  0.00  0.00    +0.000 A 
ATOM      7  C   UNL     1      47.218   5.321  14.341  0.00  0.00    +0.000 A 
ATOM      8 CL   UNL     1      48.239   5.419  15.725  0.00  0.00    +0.000 Cl
ATOM      9  C   UNL     1      46.811   4.072  13.879  0.00  0.00    +0.000 A 
ATOM     10  C   UNL     1      45.969   3.956  12.767  0.00  0.00    +0.000 A 
ATOM     11  C   UNL     1      45.548   5.144  12.150  0.00  0.00    +0.000 A 
ENDBRANCH   1   2
BRANCH   1  15
ATOM     12  C   UNL     1      46.474   2.113   7.703  0.00  0.00    +0.000 A 
ATOM     13  C   UNL     1      46.429   3.493   7.520  0.00  0.00    +0.000 A 
ATOM     14  C   UNL     1      45.635   4.262   8.368  0.00  0.00    +0.000 A 
ATOM     15  C   UNL     1      44.903   3.643   9.385  0.00  0.00    +0.000 A 
ATOM     16  C   UNL     1      45.052   2.267   9.526  0.00  0.00    +0.000 A 
ATOM     17  N   UNL     1      45.804   1.496   8.708  0.00  0.00    +0.000 NA
BRANCH  12  18
ATOM     18  C   UNL     1      47.255   1.241   6.741  0.00  0.00    +0.000 C 
BRANCH  18  19
ATOM     19  N   UNL     1      48.351   1.948   6.073  0.00  0.00    +0.000 NA
ATOM     20  H   UNL     1      48.926   2.394   6.786  0.00  0.00    +0.000 HD
ATOM     21  H   UNL     1      47.941   2.711   5.532  0.00  0.00    +0.000 HD
ENDBRANCH  18  19
ENDBRANCH  12  18
ENDBRANCH   1  15
TORSDOF 4
ENDMDL
MODEL 4
REMARK VINA RESULT:    -7.082      3.156      6.323
REMARK INTER + INTRA:          -8.945
REMARK INTER:                  -8.514
REMARK INTRA:                  -0.431
REMARK UNBOUND:                -0.414
REMARK  Name = 
REMARK  4 active torsions:
REMARK  status: ('A' for Active; 'I' for Inactive)
REMARK    1  A    between atoms: N_1  and  C_2
REMARK    2  A    between atoms: C_2  and  C_3
REMARK    3  A    between atoms: C_6  and  C_7
REMARK    4  A    between atoms: C_7  and  N_8
REMARK                            x       y       z     vdW  Elec       q    Type
REMARK                         _______ _______ _______ _____ _____    ______ ____
ROOT
ATOM      1  C   UNL     1      43.451   5.562  10.871  0.00  0.00    +0.000 C 
ENDROOT
BRANCH   1   2
ATOM      2  N   UNL     1      43.860   4.221  10.481  0.00  0.00    +0.000 N 
ATOM      3  N   UNL     1      43.338   3.157  11.132  0.00  0.00    +0.000 NA
ATOM      4  C   UNL     1      43.902   2.111  10.524  0.00  0.00    +0.000 A 
ATOM      5  C   UNL     1      44.806   2.490   9.507  0.00  0.00    +0.000 A 
ATOM      6  C   UNL     1      45.632   1.814   8.592  0.00  0.00    +0.000 A 
ATOM      7  C   UNL     1      46.416   2.572   7.718  0.00  0.00    +0.000 A 
ATOM      8 CL   UNL     1      47.418   1.767   6.571  0.00  0.00    +0.000 Cl
ATOM      9  C   UNL     1      46.404   3.965   7.755  0.00  0.00    +0.000 A 
ATOM     10  C   UNL     1      45.590   4.651   8.664  0.00  0.00    +0.000 A 
ATOM     11  C   UNL     1      44.788   3.883   9.520  0.00  0.00    +0.000 A 
ENDBRANCH   1   2
BRANCH   1  15
ATOM     12  C   UNL     1      46.565   7.445  13.093  0.00  0.00    +0.000 A 
ATOM     13  C   UNL     1      45.877   8.202  12.149  0.00  0.00    +0.000 A 
ATOM     14  C   UNL     1      44.845   7.607  11.427  0.00  0.00    +0.000 A 
ATOM     15  C   UNL     1      44.515   6.270  11.661  0.00  0.00    +0.000 A 
ATOM     16  C   UNL     1      45.220   5.608  12.660  0.00  0.00    +0.000 A 
ATOM     17  N   UNL     1      46.235   6.157  13.365  0.00  0.00    +0.000 NA
BRANCH  12  18
ATOM     18  C   UNL     1      47.751   8.035  13.828  0.00  0.00    +0.000 C 
BRANCH  18  19
ATOM     19  N   UNL     1      47.369   8.924  14.930  0.00  0.00    +0.000 NA
ATOM     20  H   UNL     1      47.173   9.845  14.544  0.00  0.00    +0.000 HD
ATOM     21  H   UNL     1      48.188   9.042  15.528  0.00  0.00    +0.000 HD
ENDBRANCH  18  19
ENDBRANCH  12  18
ENDBRANCH   1  15
TORSDOF 4
ENDMDL
MODEL 5
REMARK VINA RESULT:    -6.561      1.355      1.772
REMARK INTER + INTRA:          -8.317
REMARK INTER:                  -7.884
REMARK INTRA:                  -0.433
REMARK UNBOUND:                -0.414
REMARK  Name = 
REMARK  4 active torsions:
REMARK  status: ('A' for Active; 'I' for Inactive)
REMARK    1  A    between atoms: N_1  and  C_2
REMARK    2  A    between atoms: C_2  and  C_3
REMARK    3  A    between atoms: C_6  and  C_7
REMARK    4  A    between atoms: C_7  and  N_8
REMARK                            x       y       z     vdW  Elec       q    Type
REMARK                         _______ _______ _______ _____ _____    ______ ____
ROOT
ATOM      1  C   UNL     1      44.250   4.509  11.175  0.00  0.00    +0.000 C 
ENDROOT
BRANCH   1   2
ATOM      2  N   UNL     1      45.124   5.479  11.818  0.00  0.00    +0.000 N 
ATOM      3  N   UNL     1      46.117   5.040  12.624  0.00  0.00    +0.000 NA
ATOM      4  C   UNL     1      46.718   6.164  13.021  0.00  0.00    +0.000 A 
ATOM      5  C   UNL     1      46.104   7.326  12.504  0.00  0.00    +0.000 A 
ATOM      6  C   UNL     1      46.330   8.710  12.599  0.00  0.00    +0.000 A 
ATOM      7  C   UNL     1      45.463   9.573  11.921  0.00  0.00    +0.000 A 
ATOM      8 CL   UNL     1      45.734  11.273  12.003  0.00  0.00    +0.000 Cl
ATOM      9  C   UNL     1      44.389   9.087  11.181  0.00  0.00    +0.000 A 
ATOM     10  C   UNL     1      44.149   7.712  11.080  0.00  0.00    +0.000 A 
ATOM     11  C   UNL     1      45.037   6.852  11.742  0.00  0.00    +0.000 A 
ENDBRANCH   1   2
BRANCH   1  15
ATOM     12  C   UNL     1      46.151   2.914   7.708  0.00  0.00    +0.000 A 
ATOM     13  C   UNL     1      45.553   2.028   8.599  0.00  0.00    +0.000 A 
ATOM     14  C   UNL     1      44.912   2.535   9.728  0.00  0.00    +0.000 A 
ATOM     15  C   UNL     1      44.876   3.914   9.947  0.00  0.00    +0.000 A 
ATOM     16  C   UNL     1      45.453   4.724   8.975  0.00  0.00    +0.000 A 
ATOM     17  N   UNL     1      46.093   4.259   7.878  0.00  0.00    +0.000 NA
BRANCH  12  18
ATOM     18  C   UNL     1      46.933   2.391   6.521  0.00  0.00    +0.000 C 
BRANCH  18  19
ATOM     19  N   UNL     1      48.325   2.850   6.494  0.00  0.00    +0.000 NA
ATOM     20  H   UNL     1      48.424   3.527   5.740  0.00  0.00    +0.000 HD
ATOM     21  H   UNL     1      48.907   2.053   6.229  0.00  0.00    +0.000 HD
ENDBRANCH  18  19
ENDBRANCH  12  18
ENDBRANCH   1  15
TORSDOF 4
ENDMDL
MODEL 6
REMARK VINA RESULT:    -6.138      3.046      6.445
REMARK INTER + INTRA:          -7.808
REMARK INTER:                  -7.594
REMARK INTRA:                  -0.214
REMARK UNBOUND:                -0.414
REMARK  Name = 
REMARK  4 active torsions:
REMARK  status: ('A' for Active; 'I' for Inactive)
REMARK    1  A    between atoms: N_1  and  C_2
REMARK    2  A    between atoms: C_2  and  C_3
REMARK    3  A    between atoms: C_6  and  C_7
REMARK    4  A    between atoms: C_7  and  N_8
REMARK                            x       y       z     vdW  Elec       q    Type
REMARK                         _______ _______ _______ _____ _____    ______ ____
ROOT
ATOM      1  C   UNL     1      44.313   5.036  10.792  0.00  0.00    +0.000 C 
ENDROOT
BRANCH   1   2
ATOM      2  N   UNL     1      44.549   3.861   9.966  0.00  0.00    +0.000 N 
ATOM      3  N   UNL     1      43.917   2.705  10.269  0.00  0.00    +0.000 NA
ATOM      4  C   UNL     1      44.336   1.862   9.323  0.00  0.00    +0.000 A 
ATOM      5  C   UNL     1      45.255   2.455   8.429  0.00  0.00    +0.000 A 
ATOM      6  C   UNL     1      45.971   2.033   7.296  0.00  0.00    +0.000 A 
ATOM      7  C   UNL     1      46.821   2.948   6.667  0.00  0.00    +0.000 A 
ATOM      8 CL   UNL     1      47.691   2.461   5.262  0.00  0.00    +0.000 Cl
ATOM      9  C   UNL     1      46.978   4.244   7.153  0.00  0.00    +0.000 A 
ATOM     10  C   UNL     1      46.275   4.677   8.282  0.00  0.00    +0.000 A 
ATOM     11  C   UNL     1      45.406   3.761   8.892  0.00  0.00    +0.000 A 
ENDBRANCH   1   2
BRANCH   1  15
ATOM     12  C   UNL     1      46.860   4.943  14.211  0.00  0.00    +0.000 A 
ATOM     13  C   UNL     1      46.713   6.148  13.530  0.00  0.00    +0.000 A 
ATOM     14  C   UNL     1      45.870   6.200  12.421  0.00  0.00    +0.000 A 
ATOM     15  C   UNL     1      45.188   5.052  12.014  0.00  0.00    +0.000 A 
ATOM     16  C   UNL     1      45.354   3.907  12.786  0.00  0.00    +0.000 A 
ATOM     17  N   UNL     1      46.176   3.826  13.858  0.00  0.00    +0.000 NA
BRANCH  12  18
ATOM     18  C   UNL     1      47.837   4.831  15.363  0.00  0.00    +0.000 C 
BRANCH  18  19
ATOM     19  N   UNL     1      47.242   5.149  16.664  0.00  0.00    +0.000 NA
ATOM     20  H   UNL     1      46.229   5.139  16.563  0.00  0.00    +0.000 HD
ATOM     21  H   UNL     1      47.488   6.115  16.887  0.00  0.00    +0.000 HD
ENDBRANCH  18  19
ENDBRANCH  12  18
ENDBRANCH   1  15
TORSDOF 4
ENDMDL
MODEL 7
REMARK VINA RESULT:    -6.129      4.653      7.537
REMARK INTER + INTRA:          -7.796
REMARK INTER:                  -7.274
REMARK INTRA:                  -0.522
REMARK UNBOUND:                -0.414
REMARK  Name = 
REMARK  4 active torsions:
REMARK  status: ('A' for Active; 'I' for Inactive)
REMARK    1  A    between atoms: N_1  and  C_2
REMARK    2  A    between atoms: C_2  and  C_3
REMARK    3  A    between atoms: C_6  and  C_7
REMARK    4  A    between atoms: C_7  and  N_8
REMARK                            x       y       z     vdW  Elec       q    Type
REMARK                         _______ _______ _______ _____ _____    ______ ____
ROOT
ATOM      1  C   UNL     1      47.145   4.377  16.575  0.00  0.00    +0.000 C 
ENDROOT
BRANCH   1   2
ATOM      2  N   UNL     1      47.039   4.753  15.173  0.00  0.00    +0.000 N 
ATOM      3  N   UNL     1      46.215   4.052  14.362  0.00  0.00    +0.000 NA
ATOM      4  C   UNL     1      46.345   4.661  13.182  0.00  0.00    +0.000 A 
ATOM      5  C   UNL     1      47.268   5.729  13.215  0.00  0.00    +0.000 A 
ATOM      6  C   UNL     1      47.756   6.666  12.287  0.00  0.00    +0.000 A 
ATOM      7  C   UNL     1      48.708   7.595  12.719  0.00  0.00    +0.000 A 
ATOM      8 CL   UNL     1      49.302   8.769  11.607  0.00  0.00    +0.000 Cl
ATOM      9  C   UNL     1      49.184   7.591  14.027  0.00  0.00    +0.000 A 
ATOM     10  C   UNL     1      48.711   6.661  14.961  0.00  0.00    +0.000 A 
ATOM     11  C   UNL     1      47.738   5.749  14.526  0.00  0.00    +0.000 A 
ENDBRANCH   1   2
BRANCH   1  15
ATOM     12  C   UNL     1      50.699   2.110  17.216  0.00  0.00    +0.000 A 
ATOM     13  C   UNL     1      50.570   3.333  17.868  0.00  0.00    +0.000 A 
ATOM     14  C   UNL     1      49.406   4.078  17.683  0.00  0.00    +0.000 A 
ATOM     15  C   UNL     1      48.393   3.589  16.855  0.00  0.00    +0.000 A 
ATOM     16  C   UNL     1      48.587   2.334  16.288  0.00  0.00    +0.000 A 
ATOM     17  N   UNL     1      49.712   1.597  16.440  0.00  0.00    +0.000 NA
BRANCH  12  18
ATOM     18  C   UNL     1      51.987   1.321  17.323  0.00  0.00    +0.000 C 
BRANCH  18  19
ATOM     19  N   UNL     1      51.859   0.106  18.133  0.00  0.00    +0.000 NA
ATOM     20  H   UNL     1      51.150   0.269  18.845  0.00  0.00    +0.000 HD
ATOM     21  H   UNL     1      52.737  -0.020  18.641  0.00  0.00    +0.000 HD
ENDBRANCH  18  19
ENDBRANCH  12  18
ENDBRANCH   1  15
TORSDOF 4
ENDMDL
MODEL 8
REMARK VINA RESULT:    -5.965      4.826      7.776
REMARK INTER + INTRA:          -7.600
REMARK INTER:                  -7.265
REMARK INTRA:                  -0.335
REMARK UNBOUND:                -0.414
REMARK  Name = 
REMARK  4 active torsions:
REMARK  status: ('A' for Active; 'I' for Inactive)
REMARK    1  A    between atoms: N_1  and  C_2
REMARK    2  A    between atoms: C_2  and  C_3
REMARK    3  A    between atoms: C_6  and  C_7
REMARK    4  A    between atoms: C_7  and  N_8
REMARK                            x       y       z     vdW  Elec       q    Type
REMARK                         _______ _______ _______ _____ _____    ______ ____
ROOT
ATOM      1  C   UNL     1      47.698   4.759  16.660  0.00  0.00    +0.000 C 
ENDROOT
BRANCH   1   2
ATOM      2  N   UNL     1      47.906   5.522  15.438  0.00  0.00    +0.000 N 
ATOM      3  N   UNL     1      48.878   6.461  15.404  0.00  0.00    +0.000 NA
ATOM      4  C   UNL     1      48.805   6.942  14.162  0.00  0.00    +0.000 A 
ATOM      5  C   UNL     1      47.776   6.344  13.402  0.00  0.00    +0.000 A 
ATOM      6  C   UNL     1      47.289   6.473  12.089  0.00  0.00    +0.000 A 
ATOM      7  C   UNL     1      46.205   5.679  11.701  0.00  0.00    +0.000 A 
ATOM      8 CL   UNL     1      45.607   5.802  10.090  0.00  0.00    +0.000 Cl
ATOM      9  C   UNL     1      45.602   4.792  12.588  0.00  0.00    +0.000 A 
ATOM     10  C   UNL     1      46.073   4.655  13.899  0.00  0.00    +0.000 A 
ATOM     11  C   UNL     1      47.175   5.437  14.273  0.00  0.00    +0.000 A 
ENDBRANCH   1   2
BRANCH   1  15
ATOM     12  C   UNL     1      50.949   2.080  17.321  0.00  0.00    +0.000 A 
ATOM     13  C   UNL     1      51.015   3.350  17.886  0.00  0.00    +0.000 A 
ATOM     14  C   UNL     1      49.953   4.232  17.695  0.00  0.00    +0.000 A 
ATOM     15  C   UNL     1      48.844   3.830  16.947  0.00  0.00    +0.000 A 
ATOM     16  C   UNL     1      48.842   2.525  16.466  0.00  0.00    +0.000 A 
ATOM     17  N   UNL     1      49.865   1.655  16.625  0.00  0.00    +0.000 NA
BRANCH  12  18
ATOM     18  C   UNL     1      52.125   1.132  17.433  0.00  0.00    +0.000 C 
BRANCH  18  19
ATOM     19  N   UNL     1      51.835  -0.063  18.230  0.00  0.00    +0.000 NA
ATOM     20  H   UNL     1      52.718  -0.510  18.469  0.00  0.00    +0.000 HD
ATOM     21  H   UNL     1      51.345  -0.725  17.625  0.00  0.00    +0.000 HD
ENDBRANCH  18  19
ENDBRANCH  12  18
ENDBRANCH   1  15
TORSDOF 4
ENDMDL
MODEL 9
REMARK VINA RESULT:    -5.684      2.219      3.435
REMARK INTER + INTRA:          -7.260
REMARK INTER:                  -7.000
REMARK INTRA:                  -0.260
REMARK UNBOUND:                -0.414
REMARK  Name = 
REMARK  4 active torsions:
REMARK  status: ('A' for Active; 'I' for Inactive)
REMARK    1  A    between atoms: N_1  and  C_2
REMARK    2  A    between atoms: C_2  and  C_3
REMARK    3  A    between atoms: C_6  and  C_7
REMARK    4  A    between atoms: C_7  and  N_8
REMARK                            x       y       z     vdW  Elec       q    Type
REMARK                         _______ _______ _______ _____ _____    ______ ____
ROOT
ATOM      1  C   UNL     1      44.967   5.639  12.427  0.00  0.00    +0.000 C 
ENDROOT
BRANCH   1   2
ATOM      2  N   UNL     1      45.578   6.959  12.475  0.00  0.00    +0.000 N 
ATOM      3  N   UNL     1      44.812   8.050  12.252  0.00  0.00    +0.000 NA
ATOM      4  C   UNL     1      45.666   9.066  12.387  0.00  0.00    +0.000 A 
ATOM      5  C   UNL     1      46.983   8.641  12.667  0.00  0.00    +0.000 A 
ATOM      6  C   UNL     1      48.217   9.274  12.897  0.00  0.00    +0.000 A 
ATOM      7  C   UNL     1      49.340   8.476  13.139  0.00  0.00    +0.000 A 
ATOM      8 CL   UNL     1      50.858   9.229  13.449  0.00  0.00    +0.000 Cl
ATOM      9  C   UNL     1      49.254   7.086  13.136  0.00  0.00    +0.000 A 
ATOM     10  C   UNL     1      48.034   6.441  12.904  0.00  0.00    +0.000 A 
ATOM     11  C   UNL     1      46.909   7.250  12.687  0.00  0.00    +0.000 A 
ENDBRANCH   1   2
BRANCH   1  15
ATOM     12  C   UNL     1      45.508   3.887   8.577  0.00  0.00    +0.000 A 
ATOM     13  C   UNL     1      44.874   3.135   9.562  0.00  0.00    +0.000 A 
ATOM     14  C   UNL     1      44.673   3.699  10.820  0.00  0.00    +0.000 A 
ATOM     15  C   UNL     1      45.105   5.003  11.073  0.00  0.00    +0.000 A 
ATOM     16  C   UNL     1      45.680   5.697  10.014  0.00  0.00    +0.000 A 
ATOM     17  N   UNL     1      45.899   5.169   8.788  0.00  0.00    +0.000 NA
BRANCH  12  18
ATOM     18  C   UNL     1      45.823   3.271   7.230  0.00  0.00    +0.000 C 
BRANCH  18  19
ATOM     19  N   UNL     1      46.808   4.034   6.457  0.00  0.00    +0.000 NA
ATOM     20  H   UNL     1      46.556   5.019   6.504  0.00  0.00    +0.000 HD
ATOM     21  H   UNL     1      46.703   3.767   5.476  0.00  0.00    +0.000 HD
ENDBRANCH  18  19
ENDBRANCH  12  18
ENDBRANCH   1  15
TORSDOF 4
ENDMDL
