MODEL 1
REMARK VINA RESULT:    -7.690      0.000      0.000
REMARK INTER + INTRA:         -11.313
REMARK INTER:                 -10.387
REMARK INTRA:                  -0.926
REMARK UNBOUND:                -0.926
REMARK  Name = 
REMARK  8 active torsions:
REMARK  status: ('A' for Active; 'I' for Inactive)
REMARK    1  A    between atoms: C_1  and  C_2
REMARK    2  A    between atoms: C_2  and  C_3
REMARK    3  A    between atoms: C_2  and  N_4
REMARK    4  A    between atoms: N_4  and  C_5
REMARK    5  A    between atoms: C_5  and  C_6
REMARK    6  A    between atoms: C_9  and  C_10
REMARK    7  A    between atoms: C_10  and  N_11
REMARK    8  A    between atoms: C_16  and  C_17
REMARK                            x       y       z     vdW  Elec       q    Type
REMARK                         _______ _______ _______ _____ _____    ______ ____
ROOT
ATOM      1  N   UNL     1      43.949   4.293  10.481  0.00  0.00    +0.000 N 
ATOM      2  N   UNL     1      43.336   3.254  11.098  0.00  0.00    +0.000 NA
ATOM      3  C   UNL     1      43.843   2.181  10.492  0.00  0.00    +0.000 A 
ATOM      4  C   UNL     1      44.758   2.520   9.475  0.00  0.00    +0.000 A 
ATOM      5  C   UNL     1      45.607   1.814   8.623  0.00  0.00    +0.000 A 
ATOM      6  C   UNL     1      46.365   2.586   7.755  0.00  0.00    +0.000 A 
ATOM      7  N   UNL     1      46.268   3.942   7.623  0.00  0.00    +0.000 NA
ATOM      8  C   UNL     1      45.431   4.621   8.447  0.00  0.00    +0.000 A 
ATOM      9  C   UNL     1      44.725   3.910   9.412  0.00  0.00    +0.000 A 
ENDROOT
BRANCH   6  10
ATOM     10  C   UNL     1      47.437   1.907   6.956  0.00  0.00    +0.000 C 
ATOM     11  N   UNL     1      48.437   2.714   6.487  0.00  0.00    +0.000 N 
ATOM     12  O   UNL     1      47.447   0.697   6.763  0.00  0.00    +0.000 OA
ATOM     13  H   UNL     1      48.439   3.698   6.731  0.00  0.00    +0.000 HD
ATOM     14  H   UNL     1      49.230   2.296   6.025  0.00  0.00    +0.000 HD
ENDBRANCH   6  10
BRANCH   1  15
ATOM     15  C   UNL     1      43.783   5.625  11.047  0.00  0.00    +0.000 C 
BRANCH  15  19
ATOM     16  C   UNL     1      47.259   6.687  13.294  0.00  0.00    +0.000 A 
ATOM     17  C   UNL     1      46.691   7.648  12.458  0.00  0.00    +0.000 A 
ATOM     18  C   UNL     1      45.530   7.340  11.738  0.00  0.00    +0.000 A 
ATOM     19  C   UNL     1      44.949   6.087  11.889  0.00  0.00    +0.000 A 
ATOM     20  N   UNL     1      45.461   5.158  12.735  0.00  0.00    +0.000 NA
ATOM     21  C   UNL     1      46.599   5.470  13.399  0.00  0.00    +0.000 A 
BRANCH  16  22
ATOM     22  C   UNL     1      48.561   6.912  14.013  0.00  0.00    +0.000 C 
BRANCH  22  23
ATOM     23  N   UNL     1      49.732   6.828  13.134  0.00  0.00    +0.000 NA
ATOM     24  H   UNL     1      50.384   6.145  13.519  0.00  0.00    +0.000 HD
BRANCH  23  26
ATOM     25  C   UNL     1      50.216   8.666  11.512  0.00  0.00    +0.000 C 
ATOM     26  C   UNL     1      50.435   8.101  12.916  0.00  0.00    +0.000 C 
ATOM     27  C   UNL     1      49.939   9.109  13.959  0.00  0.00    +0.000 C 
ENDBRANCH  23  26
ENDBRANCH  22  23
ENDBRANCH  16  22
ENDBRANCH  15  19
ENDBRANCH   1  15
TORSDOF 6
ENDMDL
MODEL 2
REMARK VINA RESULT:    -7.632      1.310      2.039
REMARK INTER + INTRA:         -11.235
REMARK INTER:                 -10.457
REMARK INTRA:                  -0.778
REMARK UNBOUND:                -0.926
REMARK  Name = 
REMARK  8 active torsions:
REMARK  status: ('A' for Active; 'I' for Inactive)
REMARK    1  A    between atoms: C_1  and  C_2
REMARK    2  A    between atoms: C_2  and  C_3
REMARK    3  A    between atoms: C_2  and  N_4
REMARK    4  A    between atoms: N_4  and  C_5
REMARK    5  A    between atoms: C_5  and  C_6
REMARK    6  A    between atoms: C_9  and  C_10
REMARK    7  A    between atoms: C_10  and  N_11
REMARK    8  A    between atoms: C_16  and  C_17
REMARK                            x       y       z     vdW  Elec       q    Type
REMARK                         _______ _______ _______ _____ _____    ______ ____
ROOT
ATOM      1  N   UNL     1      44.164   4.365  10.489  0.00  0.00    +0.000 N 
ATOM      2  N   UNL     1      43.510   3.348  11.102  0.00  0.00    +0.000 NA
ATOM      3  C   UNL     1      43.951   2.261  10.470  0.00  0.00    +0.000 A 
ATOM      4  C   UNL     1      44.863   2.569   9.442  0.00  0.00    +0.000 A 
ATOM      5  C   UNL     1      45.659   1.833   8.564  0.00  0.00    +0.000 A 
ATOM      6  C   UNL     1      46.440   2.579   7.693  0.00  0.00    +0.000 A 
ATOM      7  N   UNL     1      46.411   3.941   7.582  0.00  0.00    +0.000 NA
ATOM      8  C   UNL     1      45.624   4.648   8.432  0.00  0.00    +0.000 A 
ATOM      9  C   UNL     1      44.900   3.959   9.400  0.00  0.00    +0.000 A 
ENDROOT
BRANCH   6  10
ATOM     10  C   UNL     1      47.461   1.859   6.864  0.00  0.00    +0.000 C 
ATOM     11  N   UNL     1      48.567   2.582   6.514  0.00  0.00    +0.000 N 
ATOM     12  O   UNL     1      47.340   0.682   6.547  0.00  0.00    +0.000 OA
ATOM     13  H   UNL     1      48.673   3.531   6.858  0.00  0.00    +0.000 HD
ATOM     14  H   UNL     1      49.327   2.120   6.037  0.00  0.00    +0.000 HD
ENDBRANCH   6  10
BRANCH   1  15
ATOM     15  C   UNL     1      44.077   5.694  11.077  0.00  0.00    +0.000 C 
BRANCH  15  19
ATOM     16  C   UNL     1      47.376   7.058  13.426  0.00  0.00    +0.000 A 
ATOM     17  C   UNL     1      47.162   5.684  13.319  0.00  0.00    +0.000 A 
ATOM     18  C   UNL     1      46.111   5.207  12.526  0.00  0.00    +0.000 A 
ATOM     19  C   UNL     1      45.313   6.114  11.837  0.00  0.00    +0.000 A 
ATOM     20  N   UNL     1      45.539   7.451  11.892  0.00  0.00    +0.000 NA
ATOM     21  C   UNL     1      46.544   7.888  12.687  0.00  0.00    +0.000 A 
BRANCH  16  22
ATOM     22  C   UNL     1      48.417   7.643  14.341  0.00  0.00    +0.000 C 
BRANCH  22  23
ATOM     23  N   UNL     1      49.394   6.657  14.816  0.00  0.00    +0.000 NA
ATOM     24  H   UNL     1      49.183   5.755  14.390  0.00  0.00    +0.000 HD
BRANCH  23  26
ATOM     25  C   UNL     1      48.586   5.357  16.791  0.00  0.00    +0.000 C 
ATOM     26  C   UNL     1      49.459   6.503  16.277  0.00  0.00    +0.000 C 
ATOM     27  C   UNL     1      50.919   6.253  16.670  0.00  0.00    +0.000 C 
ENDBRANCH  23  26
ENDBRANCH  22  23
ENDBRANCH  16  22
ENDBRANCH  15  19
ENDBRANCH   1  15
TORSDOF 6
ENDMDL
MODEL 3
REMARK VINA RESULT:    -7.563      1.356      2.050
REMARK INTER + INTRA:         -11.142
REMARK INTER:                 -10.408
REMARK INTRA:                  -0.735
REMARK UNBOUND:                -0.926
REMARK  Name = 
REMARK  8 active torsions:
REMARK  status: ('A' for Active; 'I' for Inactive)
REMARK    1  A    between atoms: C_1  and  C_2
REMARK    2  A    between atoms: C_2  and  C_3
REMARK    3  A    between atoms: C_2  and  N_4
REMARK    4  A    between atoms: N_4  and  C_5
REMARK    5  A    between atoms: C_5  and  C_6
REMARK    6  A    between atoms: C_9  and  C_10
REMARK    7  A    between atoms: C_10  and  N_11
REMARK    8  A    between atoms: C_16  and  C_17
REMARK                            x       y       z     vdW  Elec       q    Type
REMARK                         _______ _______ _______ _____ _____    ______ ____
ROOT
ATOM      1  N   UNL     1      44.021   4.245  10.447  0.00  0.00    +0.000 N 
ATOM      2  N   UNL     1      43.400   3.191  11.030  0.00  0.00    +0.000 NA
ATOM      3  C   UNL     1      43.908   2.134  10.397  0.00  0.00    +0.000 A 
ATOM      4  C   UNL     1      44.831   2.498   9.397  0.00  0.00    +0.000 A 
ATOM      5  C   UNL     1      45.684   1.813   8.532  0.00  0.00    +0.000 A 
ATOM      6  C   UNL     1      46.451   2.606   7.691  0.00  0.00    +0.000 A 
ATOM      7  N   UNL     1      46.360   3.966   7.596  0.00  0.00    +0.000 NA
ATOM      8  C   UNL     1      45.519   4.624   8.433  0.00  0.00    +0.000 A 
ATOM      9  C   UNL     1      44.804   3.889   9.373  0.00  0.00    +0.000 A 
ENDROOT
BRANCH   6  10
ATOM     10  C   UNL     1      47.526   1.945   6.881  0.00  0.00    +0.000 C 
ATOM     11  N   UNL     1      48.558   2.750   6.486  0.00  0.00    +0.000 N 
ATOM     12  O   UNL     1      47.511   0.749   6.618  0.00  0.00    +0.000 OA
ATOM     13  H   UNL     1      48.580   3.718   6.788  0.00  0.00    +0.000 HD
ATOM     14  H   UNL     1      49.353   2.339   6.020  0.00  0.00    +0.000 HD
ENDBRANCH   6  10
BRANCH   1  15
ATOM     15  C   UNL     1      43.856   5.561  11.048  0.00  0.00    +0.000 C 
BRANCH  15  19
ATOM     16  C   UNL     1      47.268   6.483  13.450  0.00  0.00    +0.000 A 
ATOM     17  C   UNL     1      46.982   7.306  12.360  0.00  0.00    +0.000 A 
ATOM     18  C   UNL     1      45.850   7.050  11.578  0.00  0.00    +0.000 A 
ATOM     19  C   UNL     1      45.014   5.992  11.917  0.00  0.00    +0.000 A 
ATOM     20  N   UNL     1      45.251   5.212  13.001  0.00  0.00    +0.000 NA
ATOM     21  C   UNL     1      46.367   5.463  13.726  0.00  0.00    +0.000 A 
BRANCH  16  22
ATOM     22  C   UNL     1      48.521   6.633  14.268  0.00  0.00    +0.000 C 
BRANCH  22  23
ATOM     23  N   UNL     1      48.286   7.235  15.585  0.00  0.00    +0.000 NA
ATOM     24  H   UNL     1      48.562   8.216  15.552  0.00  0.00    +0.000 HD
BRANCH  23  26
ATOM     25  C   UNL     1      48.738   7.268  18.042  0.00  0.00    +0.000 C 
ATOM     26  C   UNL     1      48.978   6.573  16.701  0.00  0.00    +0.000 C 
ATOM     27  C   UNL     1      48.487   5.123  16.778  0.00  0.00    +0.000 C 
ENDBRANCH  23  26
ENDBRANCH  22  23
ENDBRANCH  16  22
ENDBRANCH  15  19
ENDBRANCH   1  15
TORSDOF 6
ENDMDL
MODEL 4
REMARK VINA RESULT:    -6.393      2.684      7.238
REMARK INTER + INTRA:          -9.562
REMARK INTER:                  -8.920
REMARK INTRA:                  -0.642
REMARK UNBOUND:                -0.926
REMARK  Name = 
REMARK  8 active torsions:
REMARK  status: ('A' for Active; 'I' for Inactive)
REMARK    1  A    between atoms: C_1  and  C_2
REMARK    2  A    between atoms: C_2  and  C_3
REMARK    3  A    between atoms: C_2  and  N_4
REMARK    4  A    between atoms: N_4  and  C_5
REMARK    5  A    between atoms: C_5  and  C_6
REMARK    6  A    between atoms: C_9  and  C_10
REMARK    7  A    between atoms: C_10  and  N_11
REMARK    8  A    between atoms: C_16  and  C_17
REMARK                            x       y       z     vdW  Elec       q    Type
REMARK                         _______ _______ _______ _____ _____    ______ ____
ROOT
ATOM      1  N   UNL     1      45.685   7.032  12.973  0.00  0.00    +0.000 N 
ATOM      2  N   UNL     1      45.064   8.178  12.602  0.00  0.00    +0.000 NA
ATOM      3  C   UNL     1      46.041   9.085  12.613  0.00  0.00    +0.000 A 
ATOM      4  C   UNL     1      47.277   8.540  13.010  0.00  0.00    +0.000 A 
ATOM      5  C   UNL     1      48.588   9.008  13.105  0.00  0.00    +0.000 A 
ATOM      6  C   UNL     1      49.525   8.086  13.551  0.00  0.00    +0.000 A 
ATOM      7  N   UNL     1      49.239   6.819  13.974  0.00  0.00    +0.000 NA
ATOM      8  C   UNL     1      47.959   6.375  13.890  0.00  0.00    +0.000 A 
ATOM      9  C   UNL     1      46.995   7.220  13.349  0.00  0.00    +0.000 A 
ENDROOT
BRANCH   6  10
ATOM     10  C   UNL     1      50.975   8.463  13.487  0.00  0.00    +0.000 C 
ATOM     11  N   UNL     1      51.829   7.681  14.213  0.00  0.00    +0.000 N 
ATOM     12  O   UNL     1      51.384   9.389  12.798  0.00  0.00    +0.000 OA
ATOM     13  H   UNL     1      51.467   6.874  14.710  0.00  0.00    +0.000 HD
ATOM     14  H   UNL     1      52.823   7.832  14.132  0.00  0.00    +0.000 HD
ENDBRANCH   6  10
BRANCH   1  15
ATOM     15  C   UNL     1      44.947   5.781  12.861  0.00  0.00    +0.000 C 
BRANCH  15  19
ATOM     16  C   UNL     1      45.091   3.796   9.079  0.00  0.00    +0.000 A 
ATOM     17  C   UNL     1      45.700   5.045   9.196  0.00  0.00    +0.000 A 
ATOM     18  C   UNL     1      45.701   5.702  10.431  0.00  0.00    +0.000 A 
ATOM     19  C   UNL     1      45.115   5.084  11.531  0.00  0.00    +0.000 A 
ATOM     20  N   UNL     1      44.561   3.849  11.446  0.00  0.00    +0.000 NA
ATOM     21  C   UNL     1      44.549   3.246  10.233  0.00  0.00    +0.000 A 
BRANCH  16  22
ATOM     22  C   UNL     1      44.959   3.082   7.762  0.00  0.00    +0.000 C 
BRANCH  22  23
ATOM     23  N   UNL     1      46.093   3.315   6.859  0.00  0.00    +0.000 NA
ATOM     24  H   UNL     1      45.768   3.234   5.896  0.00  0.00    +0.000 HD
BRANCH  23  26
ATOM     25  C   UNL     1      46.828   1.030   7.553  0.00  0.00    +0.000 C 
ATOM     26  C   UNL     1      47.240   2.418   7.062  0.00  0.00    +0.000 C 
ATOM     27  C   UNL     1      47.992   2.291   5.733  0.00  0.00    +0.000 C 
ENDBRANCH  23  26
ENDBRANCH  22  23
ENDBRANCH  16  22
ENDBRANCH  15  19
ENDBRANCH   1  15
TORSDOF 6
ENDMDL
MODEL 5
REMARK VINA RESULT:    -5.981      5.375      7.042
REMARK INTER + INTRA:          -9.005
REMARK INTER:                  -8.543
REMARK INTRA:                  -0.461
REMARK UNBOUND:                -0.926
REMARK  Name = 
REMARK  8 active torsions:
REMARK  status: ('A' for Active; 'I' for Inactive)
REMARK    1  A    between atoms: C_1  and  C_2
REMARK    2  A    between atoms: C_2  and  C_3
REMARK    3  A    between atoms: C_2  and  N_4
REMARK    4  A    between atoms: N_4  and  C_5
REMARK    5  A    between atoms: C_5  and  C_6
REMARK    6  A    between atoms: C_9  and  C_10
REMARK    7  A    between atoms: C_10  and  N_11
REMARK    8  A    between atoms: C_16  and  C_17
REMARK                            x       y       z     vdW  Elec       q    Type
REMARK                         _______ _______ _______ _____ _____    ______ ____
ROOT
ATOM      1  N   UNL     1      47.412   4.733  15.149  0.00  0.00    +0.000 N 
ATOM      2  N   UNL     1      48.129   5.883  15.189  0.00  0.00    +0.000 NA
ATOM      3  C   UNL     1      47.864   6.463  14.020  0.00  0.00    +0.000 A 
ATOM      4  C   UNL     1      47.004   5.689  13.217  0.00  0.00    +0.000 A 
ATOM      5  C   UNL     1      46.365   5.859  11.989  0.00  0.00    +0.000 A 
ATOM      6  C   UNL     1      45.573   4.799  11.571  0.00  0.00    +0.000 A 
ATOM      7  N   UNL     1      45.456   3.603  12.221  0.00  0.00    +0.000 NA
ATOM      8  C   UNL     1      46.091   3.440  13.409  0.00  0.00    +0.000 A 
ATOM      9  C   UNL     1      46.812   4.509  13.931  0.00  0.00    +0.000 A 
ENDROOT
BRANCH   6  10
ATOM     10  C   UNL     1      44.706   4.996  10.363  0.00  0.00    +0.000 C 
ATOM     11  N   UNL     1      45.364   5.189   9.180  0.00  0.00    +0.000 N 
ATOM     12  O   UNL     1      43.483   4.949  10.416  0.00  0.00    +0.000 OA
ATOM     13  H   UNL     1      46.377   5.144   9.159  0.00  0.00    +0.000 HD
ATOM     14  H   UNL     1      44.832   5.233   8.323  0.00  0.00    +0.000 HD
ENDBRANCH   6  10
BRANCH   1  15
ATOM     15  C   UNL     1      47.303   3.945  16.369  0.00  0.00    +0.000 C 
BRANCH  15  19
ATOM     16  C   UNL     1      51.148   2.481  17.525  0.00  0.00    +0.000 A 
ATOM     17  C   UNL     1      50.699   3.678  18.082  0.00  0.00    +0.000 A 
ATOM     18  C   UNL     1      49.429   4.163  17.750  0.00  0.00    +0.000 A 
ATOM     19  C   UNL     1      48.624   3.427  16.888  0.00  0.00    +0.000 A 
ATOM     20  N   UNL     1      49.026   2.237  16.375  0.00  0.00    +0.000 NA
ATOM     21  C   UNL     1      50.269   1.803  16.691  0.00  0.00    +0.000 A 
BRANCH  16  22
ATOM     22  C   UNL     1      52.539   1.956  17.753  0.00  0.00    +0.000 C 
BRANCH  22  23
ATOM     23  N   UNL     1      52.567   0.559  18.199  0.00  0.00    +0.000 NA
ATOM     24  H   UNL     1      52.307   0.524  19.185  0.00  0.00    +0.000 HD
BRANCH  23  26
ATOM     25  C   UNL     1      54.439   0.086  16.614  0.00  0.00    +0.000 C 
ATOM     26  C   UNL     1      53.854  -0.126  18.011  0.00  0.00    +0.000 C 
ATOM     27  C   UNL     1      54.836   0.397  19.064  0.00  0.00    +0.000 C 
ENDBRANCH  23  26
ENDBRANCH  22  23
ENDBRANCH  16  22
ENDBRANCH  15  19
ENDBRANCH   1  15
TORSDOF 6
ENDMDL
MODEL 6
REMARK VINA RESULT:    -5.858      5.009      8.758
REMARK INTER + INTRA:          -8.840
REMARK INTER:                  -8.096
REMARK INTRA:                  -0.744
REMARK UNBOUND:                -0.926
REMARK  Name = 
REMARK  8 active torsions:
REMARK  status: ('A' for Active; 'I' for Inactive)
REMARK    1  A    between atoms: C_1  and  C_2
REMARK    2  A    between atoms: C_2  and  C_3
REMARK    3  A    between atoms: C_2  and  N_4
REMARK    4  A    between atoms: N_4  and  C_5
REMARK    5  A    between atoms: C_5  and  C_6
REMARK    6  A    between atoms: C_9  and  C_10
REMARK    7  A    between atoms: C_10  and  N_11
REMARK    8  A    between atoms: C_16  and  C_17
REMARK                            x       y       z     vdW  Elec       q    Type
REMARK                         _______ _______ _______ _____ _____    ______ ____
ROOT
ATOM      1  N   UNL     1      48.157   3.789  16.280  0.00  0.00    +0.000 N 
ATOM      2  N   UNL     1      48.449   2.510  15.940  0.00  0.00    +0.000 NA
ATOM      3  C   UNL     1      49.592   2.264  16.581  0.00  0.00    +0.000 A 
ATOM      4  C   UNL     1      50.050   3.379  17.309  0.00  0.00    +0.000 A 
ATOM      5  C   UNL     1      51.103   3.629  18.190  0.00  0.00    +0.000 A 
ATOM      6  C   UNL     1      51.168   4.919  18.697  0.00  0.00    +0.000 A 
ATOM      7  N   UNL     1      50.349   5.949  18.331  0.00  0.00    +0.000 NA
ATOM      8  C   UNL     1      49.335   5.700  17.464  0.00  0.00    +0.000 A 
ATOM      9  C   UNL     1      49.154   4.399  17.006  0.00  0.00    +0.000 A 
ENDROOT
BRANCH   6  10
ATOM     10  C   UNL     1      52.151   5.198  19.795  0.00  0.00    +0.000 C 
ATOM     11  N   UNL     1      52.218   4.264  20.791  0.00  0.00    +0.000 N 
ATOM     12  O   UNL     1      52.883   6.181  19.789  0.00  0.00    +0.000 OA
ATOM     13  H   UNL     1      51.654   3.423  20.725  0.00  0.00    +0.000 HD
ATOM     14  H   UNL     1      52.926   4.354  21.504  0.00  0.00    +0.000 HD
ENDBRANCH   6  10
BRANCH   1  15
ATOM     15  C   UNL     1      46.849   4.317  15.919  0.00  0.00    +0.000 C 
BRANCH  15  19
ATOM     16  C   UNL     1      46.099   5.284  11.825  0.00  0.00    +0.000 A 
ATOM     17  C   UNL     1      47.067   6.016  12.513  0.00  0.00    +0.000 A 
ATOM     18  C   UNL     1      47.360   5.697  13.844  0.00  0.00    +0.000 A 
ATOM     19  C   UNL     1      46.697   4.636  14.451  0.00  0.00    +0.000 A 
ATOM     20  N   UNL     1      45.787   3.884  13.781  0.00  0.00    +0.000 NA
ATOM     21  C   UNL     1      45.503   4.230  12.504  0.00  0.00    +0.000 A 
BRANCH  16  22
ATOM     22  C   UNL     1      45.658   5.639  10.431  0.00  0.00    +0.000 C 
BRANCH  22  23
ATOM     23  N   UNL     1      44.425   4.958  10.021  0.00  0.00    +0.000 NA
ATOM     24  H   UNL     1      44.062   4.431  10.814  0.00  0.00    +0.000 HD
BRANCH  23  26
ATOM     25  C   UNL     1      45.914   4.218   8.155  0.00  0.00    +0.000 C 
ATOM     26  C   UNL     1      44.568   4.062   8.864  0.00  0.00    +0.000 C 
ATOM     27  C   UNL     1      44.409   2.618   9.353  0.00  0.00    +0.000 C 
ENDBRANCH  23  26
ENDBRANCH  22  23
ENDBRANCH  16  22
ENDBRANCH  15  19
ENDBRANCH   1  15
TORSDOF 6
ENDMDL
MODEL 7
REMARK VINA RESULT:    -5.724      2.092      3.107
REMARK INTER + INTRA:          -8.658
REMARK INTER:                  -7.890
REMARK INTRA:                  -0.768
REMARK UNBOUND:                -0.926
REMARK  Name = 
REMARK  8 active torsions:
REMARK  status: ('A' for Active; 'I' for Inactive)
REMARK    1  A    between atoms: C_1  and  C_2
REMARK    2  A    between atoms: C_2  and  C_3
REMARK    3  A    between atoms: C_2  and  N_4
REMARK    4  A    between atoms: N_4  and  C_5
REMARK    5  A    between atoms: C_5  and  C_6
REMARK    6  A    between atoms: C_9  and  C_10
REMARK    7  A    between atoms: C_10  and  N_11
REMARK    8  A    between atoms: C_16  and  C_17
REMARK                            x       y       z     vdW  Elec       q    Type
REMARK                         _______ _______ _______ _____ _____    ______ ____
ROOT
ATOM      1  N   UNL     1      44.495   6.157  12.191  0.00  0.00    +0.000 N 
ATOM      2  N   UNL     1      43.864   5.599  13.252  0.00  0.00    +0.000 NA
ATOM      3  C   UNL     1      43.710   4.324  12.895  0.00  0.00    +0.000 A 
ATOM      4  C   UNL     1      44.214   4.062  11.606  0.00  0.00    +0.000 A 
ATOM      5  C   UNL     1      44.379   2.927  10.813  0.00  0.00    +0.000 A 
ATOM      6  C   UNL     1      44.950   3.142   9.566  0.00  0.00    +0.000 A 
ATOM      7  N   UNL     1      45.263   4.367   9.048  0.00  0.00    +0.000 NA
ATOM      8  C   UNL     1      45.088   5.468   9.821  0.00  0.00    +0.000 A 
ATOM      9  C   UNL     1      44.621   5.302  11.121  0.00  0.00    +0.000 A 
ENDROOT
BRANCH   6  10
ATOM     10  C   UNL     1      45.336   1.946   8.748  0.00  0.00    +0.000 C 
ATOM     11  N   UNL     1      46.467   2.078   7.991  0.00  0.00    +0.000 N 
ATOM     12  O   UNL     1      44.706   0.896   8.780  0.00  0.00    +0.000 OA
ATOM     13  H   UNL     1      47.008   2.934   8.048  0.00  0.00    +0.000 HD
ATOM     14  H   UNL     1      46.824   1.275   7.496  0.00  0.00    +0.000 HD
ENDBRANCH   6  10
BRANCH   1  15
ATOM     15  C   UNL     1      45.013   7.511  12.331  0.00  0.00    +0.000 C 
BRANCH  15  19
ATOM     16  C   UNL     1      48.955   7.682  13.972  0.00  0.00    +0.000 A 
ATOM     17  C   UNL     1      48.648   6.645  13.090  0.00  0.00    +0.000 A 
ATOM     18  C   UNL     1      47.376   6.585  12.509  0.00  0.00    +0.000 A 
ATOM     19  C   UNL     1      46.447   7.577  12.801  0.00  0.00    +0.000 A 
ATOM     20  N   UNL     1      46.745   8.618  13.619  0.00  0.00    +0.000 NA
ATOM     21  C   UNL     1      47.973   8.639  14.190  0.00  0.00    +0.000 A 
BRANCH  16  22
ATOM     22  C   UNL     1      50.262   7.749  14.714  0.00  0.00    +0.000 C 
BRANCH  22  23
ATOM     23  N   UNL     1      50.544   6.546  15.504  0.00  0.00    +0.000 NA
ATOM     24  H   UNL     1      50.341   5.725  14.936  0.00  0.00    +0.000 HD
BRANCH  23  26
ATOM     25  C   UNL     1      48.807   5.299  16.796  0.00  0.00    +0.000 C 
ATOM     26  C   UNL     1      49.810   6.453  16.775  0.00  0.00    +0.000 C 
ATOM     27  C   UNL     1      50.828   6.270  17.906  0.00  0.00    +0.000 C 
ENDBRANCH  23  26
ENDBRANCH  22  23
ENDBRANCH  16  22
ENDBRANCH  15  19
ENDBRANCH   1  15
TORSDOF 6
ENDMDL
MODEL 8
REMARK VINA RESULT:    -5.574      4.224      8.760
REMARK INTER + INTRA:          -8.456
REMARK INTER:                  -7.724
REMARK INTRA:                  -0.732
REMARK UNBOUND:                -0.926
REMARK  Name = 
REMARK  8 active torsions:
REMARK  status: ('A' for Active; 'I' for Inactive)
REMARK    1  A    between atoms: C_1  and  C_2
REMARK    2  A    between atoms: C_2  and  C_3
REMARK    3  A    between atoms: C_2  and  N_4
REMARK    4  A    between atoms: N_4  and  C_5
REMARK    5  A    between atoms: C_5  and  C_6
REMARK    6  A    between atoms: C_9  and  C_10
REMARK    7  A    between atoms: C_10  and  N_11
REMARK    8  A    between atoms: C_16  and  C_17
REMARK                            x       y       z     vdW  Elec       q    Type
REMARK                         _______ _______ _______ _____ _____    ______ ____
ROOT
ATOM      1  N   UNL     1      48.395   7.457  14.318  0.00  0.00    +0.000 N 
ATOM      2  N   UNL     1      48.116   8.778  14.196  0.00  0.00    +0.000 NA
ATOM      3  C   UNL     1      48.263   9.249  15.434  0.00  0.00    +0.000 A 
ATOM      4  C   UNL     1      48.612   8.242  16.355  0.00  0.00    +0.000 A 
ATOM      5  C   UNL     1      48.957   8.204  17.706  0.00  0.00    +0.000 A 
ATOM      6  C   UNL     1      49.244   6.946  18.217  0.00  0.00    +0.000 A 
ATOM      7  N   UNL     1      49.125   5.773  17.528  0.00  0.00    +0.000 NA
ATOM      8  C   UNL     1      48.777   5.817  16.217  0.00  0.00    +0.000 A 
ATOM      9  C   UNL     1      48.582   7.059  15.621  0.00  0.00    +0.000 A 
ENDROOT
BRANCH   6  10
ATOM     10  C   UNL     1      49.812   6.859  19.603  0.00  0.00    +0.000 C 
ATOM     11  N   UNL     1      50.566   5.751  19.871  0.00  0.00    +0.000 N 
ATOM     12  O   UNL     1      49.648   7.740  20.437  0.00  0.00    +0.000 OA
ATOM     13  H   UNL     1      50.747   5.078  19.133  0.00  0.00    +0.000 HD
ATOM     14  H   UNL     1      51.049   5.686  20.755  0.00  0.00    +0.000 HD
ENDBRANCH   6  10
BRANCH   1  15
ATOM     15  C   UNL     1      48.537   6.667  13.103  0.00  0.00    +0.000 C 
BRANCH  15  19
ATOM     16  C   UNL     1      45.028   4.947  11.373  0.00  0.00    +0.000 A 
ATOM     17  C   UNL     1      45.469   4.458  12.603  0.00  0.00    +0.000 A 
ATOM     18  C   UNL     1      46.594   5.027  13.210  0.00  0.00    +0.000 A 
ATOM     19  C   UNL     1      47.238   6.091  12.588  0.00  0.00    +0.000 A 
ATOM     20  N   UNL     1      46.793   6.610  11.417  0.00  0.00    +0.000 NA
ATOM     21  C   UNL     1      45.719   6.024  10.836  0.00  0.00    +0.000 A 
BRANCH  16  22
ATOM     22  C   UNL     1      43.893   4.316  10.614  0.00  0.00    +0.000 C 
BRANCH  22  23
ATOM     23  N   UNL     1      43.936   4.588   9.173  0.00  0.00    +0.000 NA
ATOM     24  H   UNL     1      42.990   4.783   8.847  0.00  0.00    +0.000 HD
BRANCH  23  26
ATOM     25  C   UNL     1      45.921   3.851   7.847  0.00  0.00    +0.000 C 
ATOM     26  C   UNL     1      44.520   3.513   8.356  0.00  0.00    +0.000 C 
ATOM     27  C   UNL     1      44.575   2.239   9.207  0.00  0.00    +0.000 C 
ENDBRANCH  23  26
ENDBRANCH  22  23
ENDBRANCH  16  22
ENDBRANCH  15  19
ENDBRANCH   1  15
TORSDOF 6
ENDMDL
MODEL 9
REMARK VINA RESULT:    -5.566      2.748      4.987
REMARK INTER + INTRA:          -8.444
REMARK INTER:                  -7.692
REMARK INTRA:                  -0.752
REMARK UNBOUND:                -0.926
REMARK  Name = 
REMARK  8 active torsions:
REMARK  status: ('A' for Active; 'I' for Inactive)
REMARK    1  A    between atoms: C_1  and  C_2
REMARK    2  A    between atoms: C_2  and  C_3
REMARK    3  A    between atoms: C_2  and  N_4
REMARK    4  A    between atoms: N_4  and  C_5
REMARK    5  A    between atoms: C_5  and  C_6
REMARK    6  A    between atoms: C_9  and  C_10
REMARK    7  A    between atoms: C_10  and  N_11
REMARK    8  A    between atoms: C_16  and  C_17
REMARK                            x       y       z     vdW  Elec       q    Type
REMARK                         _______ _______ _______ _____ _____    ______ ____
ROOT
ATOM      1  N   UNL     1      47.197   6.486  13.772  0.00  0.00    +0.000 N 
ATOM      2  N   UNL     1      47.685   5.510  14.576  0.00  0.00    +0.000 NA
ATOM      3  C   UNL     1      47.130   4.397  14.096  0.00  0.00    +0.000 A 
ATOM      4  C   UNL     1      46.273   4.650  13.007  0.00  0.00    +0.000 A 
ATOM      5  C   UNL     1      45.537   3.869  12.116  0.00  0.00    +0.000 A 
ATOM      6  C   UNL     1      44.815   4.567  11.159  0.00  0.00    +0.000 A 
ATOM      7  N   UNL     1      44.709   5.927  11.094  0.00  0.00    +0.000 NA
ATOM      8  C   UNL     1      45.417   6.680  11.972  0.00  0.00    +0.000 A 
ATOM      9  C   UNL     1      46.245   6.036  12.886  0.00  0.00    +0.000 A 
ENDROOT
BRANCH   6  10
ATOM     10  C   UNL     1      44.166   3.787  10.054  0.00  0.00    +0.000 C 
ATOM     11  N   UNL     1      44.119   4.404   8.835  0.00  0.00    +0.000 N 
ATOM     12  O   UNL     1      43.737   2.652  10.214  0.00  0.00    +0.000 OA
ATOM     13  H   UNL     1      44.553   5.313   8.717  0.00  0.00    +0.000 HD
ATOM     14  H   UNL     1      43.778   3.889   8.036  0.00  0.00    +0.000 HD
ENDBRANCH   6  10
BRANCH   1  15
ATOM     15  C   UNL     1      47.769   7.821  13.883  0.00  0.00    +0.000 C 
BRANCH  15  19
ATOM     16  C   UNL     1      51.503   8.154  11.831  0.00  0.00    +0.000 A 
ATOM     17  C   UNL     1      50.381   7.751  11.106  0.00  0.00    +0.000 A 
ATOM     18  C   UNL     1      49.138   7.668  11.744  0.00  0.00    +0.000 A 
ATOM     19  C   UNL     1      49.038   8.016  13.086  0.00  0.00    +0.000 A 
ATOM     20  N   UNL     1      50.109   8.456  13.793  0.00  0.00    +0.000 NA
ATOM     21  C   UNL     1      51.305   8.502  13.161  0.00  0.00    +0.000 A 
BRANCH  16  22
ATOM     22  C   UNL     1      52.886   8.163  11.240  0.00  0.00    +0.000 C 
BRANCH  22  23
ATOM     23  N   UNL     1      53.563   6.865  11.327  0.00  0.00    +0.000 NA
ATOM     24  H   UNL     1      54.226   6.892  12.100  0.00  0.00    +0.000 HD
BRANCH  23  26
ATOM     25  C   UNL     1      54.980   5.107  10.257  0.00  0.00    +0.000 C 
ATOM     26  C   UNL     1      54.261   6.447  10.101  0.00  0.00    +0.000 C 
ATOM     27  C   UNL     1      53.232   6.350   8.971  0.00  0.00    +0.000 C 
ENDBRANCH  23  26
ENDBRANCH  22  23
ENDBRANCH  16  22
ENDBRANCH  15  19
ENDBRANCH   1  15
TORSDOF 6
ENDMDL
