MODEL 1
REMARK VINA RESULT:    -8.175      0.000      0.000
REMARK INTER + INTRA:         -11.177
REMARK INTER:                 -10.804
REMARK INTRA:                  -0.373
REMARK UNBOUND:                -0.373
REMARK  Name = 
REMARK  6 active torsions:
REMARK  status: ('A' for Active; 'I' for Inactive)
REMARK    1  A    between atoms: N_1  and  C_2
REMARK    2  A    between atoms: C_2  and  C_3
REMARK    3  A    between atoms: C_3  and  C_4
REMARK    4  A    between atoms: C_7  and  C_8
REMARK    5  A    between atoms: C_8  and  N_9
REMARK    6  A    between atoms: C_14  and  C_15
REMARK                            x       y       z     vdW  Elec       q    Type
REMARK                         _______ _______ _______ _____ _____    ______ ____
ROOT
ATOM      1  N   UNL     1      44.547   5.371  11.298  0.00  0.00    +0.000 N 
ATOM      2  N   UNL     1      44.443   6.710  11.444  0.00  0.00    +0.000 NA
ATOM      3  N   UNL     1      45.130   7.050  12.527  0.00  0.00    +0.000 NA
ATOM      4  C   UNL     1      45.653   5.913  13.079  0.00  0.00    +0.000 A 
ATOM      5  C   UNL     1      46.412   5.734  14.233  0.00  0.00    +0.000 A 
ATOM      6  C   UNL     1      46.755   4.421  14.512  0.00  0.00    +0.000 A 
ATOM      7  N   UNL     1      46.420   3.337  13.745  0.00  0.00    +0.000 NA
ATOM      8  C   UNL     1      45.687   3.529  12.623  0.00  0.00    +0.000 A 
ATOM      9  C   UNL     1      45.302   4.818  12.300  0.00  0.00    +0.000 A 
ENDROOT
BRANCH   6  10
ATOM     10  C   UNL     1      47.543   4.128  15.755  0.00  0.00    +0.000 C 
ATOM     11  N   UNL     1      47.478   5.082  16.734  0.00  0.00    +0.000 N 
ATOM     12  O   UNL     1      48.206   3.109  15.893  0.00  0.00    +0.000 OA
ATOM     13  H   UNL     1      46.926   5.919  16.587  0.00  0.00    +0.000 HD
ATOM     14  H   UNL     1      47.993   4.949  17.592  0.00  0.00    +0.000 HD
ENDBRANCH   6  10
BRANCH   1  15
ATOM     15  C   UNL     1      43.752   4.694  10.287  0.00  0.00    +0.000 C 
BRANCH  15  19
ATOM     16  C   UNL     1      46.177   2.124   7.777  0.00  0.00    +0.000 A 
ATOM     17  C   UNL     1      45.283   1.573   8.703  0.00  0.00    +0.000 A 
ATOM     18  C   UNL     1      44.494   2.399   9.510  0.00  0.00    +0.000 A 
ATOM     19  C   UNL     1      44.582   3.795   9.405  0.00  0.00    +0.000 A 
ATOM     20  C   UNL     1      45.463   4.343   8.463  0.00  0.00    +0.000 A 
ATOM     21  C   UNL     1      46.245   3.516   7.651  0.00  0.00    +0.000 A 
BRANCH  16  22
ATOM     22  C   UNL     1      47.070   1.231   6.949  0.00  0.00    +0.000 C 
BRANCH  22  23
ATOM     23  C   UNL     1      48.365   1.919   6.505  0.00  0.00    +0.000 C 
BRANCH  23  24
ATOM     24  N   UNL     1      48.328   2.223   5.073  0.00  0.00    +0.000 NA
ATOM     25  H   UNL     1      47.550   1.726   4.641  0.00  0.00    +0.000 HD
ATOM     26  H   UNL     1      49.174   1.874   4.624  0.00  0.00    +0.000 HD
ENDBRANCH  23  24
ENDBRANCH  22  23
ENDBRANCH  16  22
ENDBRANCH  15  19
ENDBRANCH   1  15
TORSDOF 6
ENDMDL
MODEL 2
REMARK VINA RESULT:    -8.105      1.926      2.375
REMARK INTER + INTRA:         -11.084
REMARK INTER:                 -10.533
REMARK INTRA:                  -0.550
REMARK UNBOUND:                -0.373
REMARK  Name = 
REMARK  6 active torsions:
REMARK  status: ('A' for Active; 'I' for Inactive)
REMARK    1  A    between atoms: N_1  and  C_2
REMARK    2  A    between atoms: C_2  and  C_3
REMARK    3  A    between atoms: C_3  and  C_4
REMARK    4  A    between atoms: C_7  and  C_8
REMARK    5  A    between atoms: C_8  and  N_9
REMARK    6  A    between atoms: C_14  and  C_15
REMARK                            x       y       z     vdW  Elec       q    Type
REMARK                         _______ _______ _______ _____ _____    ______ ____
ROOT
ATOM      1  N   UNL     1      44.583   4.737  11.882  0.00  0.00    +0.000 N 
ATOM      2  N   UNL     1      44.289   3.937  12.930  0.00  0.00    +0.000 NA
ATOM      3  N   UNL     1      45.194   4.165  13.875  0.00  0.00    +0.000 NA
ATOM      4  C   UNL     1      46.076   5.100  13.408  0.00  0.00    +0.000 A 
ATOM      5  C   UNL     1      47.214   5.644  13.997  0.00  0.00    +0.000 A 
ATOM      6  C   UNL     1      47.898   6.563  13.218  0.00  0.00    +0.000 A 
ATOM      7  N   UNL     1      47.528   6.962  11.961  0.00  0.00    +0.000 NA
ATOM      8  C   UNL     1      46.415   6.428  11.404  0.00  0.00    +0.000 A 
ATOM      9  C   UNL     1      45.698   5.494  12.131  0.00  0.00    +0.000 A 
ENDROOT
BRANCH   6  10
ATOM     10  C   UNL     1      49.157   7.175  13.758  0.00  0.00    +0.000 C 
ATOM     11  N   UNL     1      50.183   7.304  12.860  0.00  0.00    +0.000 N 
ATOM     12  O   UNL     1      49.272   7.533  14.922  0.00  0.00    +0.000 OA
ATOM     13  H   UNL     1      50.059   6.991  11.905  0.00  0.00    +0.000 HD
ATOM     14  H   UNL     1      51.060   7.701  13.163  0.00  0.00    +0.000 HD
ENDBRANCH   6  10
BRANCH   1  15
ATOM     15  C   UNL     1      43.857   4.579  10.632  0.00  0.00    +0.000 C 
BRANCH  15  19
ATOM     16  C   UNL     1      46.103   2.269   7.733  0.00  0.00    +0.000 A 
ATOM     17  C   UNL     1      45.385   1.627   8.750  0.00  0.00    +0.000 A 
ATOM     18  C   UNL     1      44.654   2.369   9.683  0.00  0.00    +0.000 A 
ATOM     19  C   UNL     1      44.624   3.770   9.617  0.00  0.00    +0.000 A 
ATOM     20  C   UNL     1      45.327   4.408   8.585  0.00  0.00    +0.000 A 
ATOM     21  C   UNL     1      46.051   3.665   7.648  0.00  0.00    +0.000 A 
BRANCH  16  22
ATOM     22  C   UNL     1      46.939   1.469   6.762  0.00  0.00    +0.000 C 
BRANCH  22  23
ATOM     23  C   UNL     1      48.256   2.158   6.391  0.00  0.00    +0.000 C 
BRANCH  23  24
ATOM     24  N   UNL     1      48.263   2.538   4.978  0.00  0.00    +0.000 NA
ATOM     25  H   UNL     1      48.752   3.425   4.867  0.00  0.00    +0.000 HD
ATOM     26  H   UNL     1      47.307   2.698   4.659  0.00  0.00    +0.000 HD
ENDBRANCH  23  24
ENDBRANCH  22  23
ENDBRANCH  16  22
ENDBRANCH  15  19
ENDBRANCH   1  15
TORSDOF 6
ENDMDL
MODEL 3
REMARK VINA RESULT:    -7.540      3.007      7.188
REMARK INTER + INTRA:         -10.338
REMARK INTER:                  -9.945
REMARK INTRA:                  -0.393
REMARK UNBOUND:                -0.373
REMARK  Name = 
REMARK  6 active torsions:
REMARK  status: ('A' for Active; 'I' for Inactive)
REMARK    1  A    between atoms: N_1  and  C_2
REMARK    2  A    between atoms: C_2  and  C_3
REMARK    3  A    between atoms: C_3  and  C_4
REMARK    4  A    between atoms: C_7  and  C_8
REMARK    5  A    between atoms: C_8  and  N_9
REMARK    6  A    between atoms: C_14  and  C_15
REMARK                            x       y       z     vdW  Elec       q    Type
REMARK                         _______ _______ _______ _____ _____    ______ ____
ROOT
ATOM      1  N   UNL     1      43.981   4.365  10.553  0.00  0.00    +0.000 N 
ATOM      2  N   UNL     1      43.377   3.244  11.005  0.00  0.00    +0.000 NA
ATOM      3  N   UNL     1      43.849   2.222  10.301  0.00  0.00    +0.000 NA
ATOM      4  C   UNL     1      44.741   2.707   9.385  0.00  0.00    +0.000 A 
ATOM      5  C   UNL     1      45.473   2.051   8.399  0.00  0.00    +0.000 A 
ATOM      6  C   UNL     1      46.274   2.868   7.619  0.00  0.00    +0.000 A 
ATOM      7  N   UNL     1      46.397   4.225   7.764  0.00  0.00    +0.000 NA
ATOM      8  C   UNL     1      45.683   4.847   8.732  0.00  0.00    +0.000 A 
ATOM      9  C   UNL     1      44.854   4.084   9.534  0.00  0.00    +0.000 A 
ENDROOT
BRANCH   6  10
ATOM     10  C   UNL     1      47.072   2.252   6.507  0.00  0.00    +0.000 C 
ATOM     11  N   UNL     1      47.222   3.027   5.389  0.00  0.00    +0.000 N 
ATOM     12  O   UNL     1      47.556   1.131   6.583  0.00  0.00    +0.000 OA
ATOM     13  H   UNL     1      46.802   3.949   5.353  0.00  0.00    +0.000 HD
ATOM     14  H   UNL     1      47.740   2.666   4.601  0.00  0.00    +0.000 HD
ENDBRANCH   6  10
BRANCH   1  15
ATOM     15  C   UNL     1      43.533   5.664  11.027  0.00  0.00    +0.000 C 
BRANCH  15  19
ATOM     16  C   UNL     1      46.769   7.962  12.769  0.00  0.00    +0.000 A 
ATOM     17  C   UNL     1      45.757   8.600  12.040  0.00  0.00    +0.000 A 
ATOM     18  C   UNL     1      44.708   7.862  11.482  0.00  0.00    +0.000 A 
ATOM     19  C   UNL     1      44.648   6.470  11.644  0.00  0.00    +0.000 A 
ATOM     20  C   UNL     1      45.651   5.838  12.392  0.00  0.00    +0.000 A 
ATOM     21  C   UNL     1      46.695   6.577  12.955  0.00  0.00    +0.000 A 
BRANCH  16  22
ATOM     22  C   UNL     1      47.932   8.752  13.320  0.00  0.00    +0.000 C 
BRANCH  22  23
ATOM     23  C   UNL     1      48.289   8.373  14.760  0.00  0.00    +0.000 C 
BRANCH  23  24
ATOM     24  N   UNL     1      47.544   9.196  15.714  0.00  0.00    +0.000 NA
ATOM     25  H   UNL     1      46.573   9.268  15.413  0.00  0.00    +0.000 HD
ATOM     26  H   UNL     1      47.914  10.146  15.713  0.00  0.00    +0.000 HD
ENDBRANCH  23  24
ENDBRANCH  22  23
ENDBRANCH  16  22
ENDBRANCH  15  19
ENDBRANCH   1  15
TORSDOF 6
ENDMDL
MODEL 4
REMARK VINA RESULT:    -7.483      1.648      2.026
REMARK INTER + INTRA:         -10.262
REMARK INTER:                  -9.843
REMARK INTRA:                  -0.419
REMARK UNBOUND:                -0.373
REMARK  Name = 
REMARK  6 active torsions:
REMARK  status: ('A' for Active; 'I' for Inactive)
REMARK    1  A    between atoms: N_1  and  C_2
REMARK    2  A    between atoms: C_2  and  C_3
REMARK    3  A    between atoms: C_3  and  C_4
REMARK    4  A    between atoms: C_7  and  C_8
REMARK    5  A    between atoms: C_8  and  N_9
REMARK    6  A    between atoms: C_14  and  C_15
REMARK                            x       y       z     vdW  Elec       q    Type
REMARK                         _______ _______ _______ _____ _____    ______ ____
ROOT
ATOM      1  N   UNL     1      45.083   6.180  11.726  0.00  0.00    +0.000 N 
ATOM      2  N   UNL     1      44.839   7.484  11.472  0.00  0.00    +0.000 NA
ATOM      3  N   UNL     1      45.684   8.201  12.204  0.00  0.00    +0.000 NA
ATOM      4  C   UNL     1      46.450   7.340  12.940  0.00  0.00    +0.000 A 
ATOM      5  C   UNL     1      47.446   7.593  13.880  0.00  0.00    +0.000 A 
ATOM      6  C   UNL     1      48.006   6.467  14.461  0.00  0.00    +0.000 A 
ATOM      7  N   UNL     1      47.663   5.174  14.168  0.00  0.00    +0.000 NA
ATOM      8  C   UNL     1      46.697   4.944  13.247  0.00  0.00    +0.000 A 
ATOM      9  C   UNL     1      46.092   6.032  12.642  0.00  0.00    +0.000 A 
ENDROOT
BRANCH   6  10
ATOM     10  C   UNL     1      49.062   6.644  15.512  0.00  0.00    +0.000 C 
ATOM     11  N   UNL     1      48.629   6.551  16.807  0.00  0.00    +0.000 N 
ATOM     12  O   UNL     1      50.235   6.863  15.241  0.00  0.00    +0.000 OA
ATOM     13  H   UNL     1      47.649   6.376  17.000  0.00  0.00    +0.000 HD
ATOM     14  H   UNL     1      49.289   6.670  17.562  0.00  0.00    +0.000 HD
ENDBRANCH   6  10
BRANCH   1  15
ATOM     15  C   UNL     1      44.191   5.164  11.190  0.00  0.00    +0.000 C 
BRANCH  15  19
ATOM     16  C   UNL     1      45.869   3.057   7.795  0.00  0.00    +0.000 A 
ATOM     17  C   UNL     1      46.174   4.406   8.014  0.00  0.00    +0.000 A 
ATOM     18  C   UNL     1      45.639   5.088   9.112  0.00  0.00    +0.000 A 
ATOM     19  C   UNL     1      44.790   4.432  10.016  0.00  0.00    +0.000 A 
ATOM     20  C   UNL     1      44.504   3.076   9.805  0.00  0.00    +0.000 A 
ATOM     21  C   UNL     1      45.045   2.394   8.711  0.00  0.00    +0.000 A 
BRANCH  16  22
ATOM     22  C   UNL     1      46.399   2.340   6.576  0.00  0.00    +0.000 C 
BRANCH  22  23
ATOM     23  C   UNL     1      47.761   1.679   6.811  0.00  0.00    +0.000 C 
BRANCH  23  24
ATOM     24  N   UNL     1      48.608   1.796   5.623  0.00  0.00    +0.000 NA
ATOM     25  H   UNL     1      48.023   1.796   4.788  0.00  0.00    +0.000 HD
ATOM     26  H   UNL     1      49.212   0.978   5.547  0.00  0.00    +0.000 HD
ENDBRANCH  23  24
ENDBRANCH  22  23
ENDBRANCH  16  22
ENDBRANCH  15  19
ENDBRANCH   1  15
TORSDOF 6
ENDMDL
MODEL 5
REMARK VINA RESULT:    -6.046      4.508      6.576
REMARK INTER + INTRA:          -8.363
REMARK INTER:                  -7.843
REMARK INTRA:                  -0.520
REMARK UNBOUND:                -0.373
REMARK  Name = 
REMARK  6 active torsions:
REMARK  status: ('A' for Active; 'I' for Inactive)
REMARK    1  A    between atoms: N_1  and  C_2
REMARK    2  A    between atoms: C_2  and  C_3
REMARK    3  A    between atoms: C_3  and  C_4
REMARK    4  A    between atoms: C_7  and  C_8
REMARK    5  A    between atoms: C_8  and  N_9
REMARK    6  A    between atoms: C_14  and  C_15
REMARK                            x       y       z     vdW  Elec       q    Type
REMARK                         _______ _______ _______ _____ _____    ______ ____
ROOT
ATOM      1  N   UNL     1      47.564   6.154  13.787  0.00  0.00    +0.000 N 
ATOM      2  N   UNL     1      47.905   5.326  14.798  0.00  0.00    +0.000 NA
ATOM      3  N   UNL     1      47.294   4.166  14.592  0.00  0.00    +0.000 NA
ATOM      4  C   UNL     1      46.545   4.273  13.453  0.00  0.00    +0.000 A 
ATOM      5  C   UNL     1      45.698   3.354  12.836  0.00  0.00    +0.000 A 
ATOM      6  C   UNL     1      45.068   3.812  11.691  0.00  0.00    +0.000 A 
ATOM      7  N   UNL     1      45.231   5.057  11.144  0.00  0.00    +0.000 NA
ATOM      8  C   UNL     1      46.062   5.937  11.752  0.00  0.00    +0.000 A 
ATOM      9  C   UNL     1      46.710   5.540  12.908  0.00  0.00    +0.000 A 
ENDROOT
BRANCH   6  10
ATOM     10  C   UNL     1      44.110   2.903  10.980  0.00  0.00    +0.000 C 
ATOM     11  N   UNL     1      44.598   2.292   9.857  0.00  0.00    +0.000 N 
ATOM     12  O   UNL     1      42.964   2.716  11.366  0.00  0.00    +0.000 OA
ATOM     13  H   UNL     1      45.550   2.473   9.557  0.00  0.00    +0.000 HD
ATOM     14  H   UNL     1      44.000   1.674   9.327  0.00  0.00    +0.000 HD
ENDBRANCH   6  10
BRANCH   1  15
ATOM     15  C   UNL     1      47.954   7.554  13.841  0.00  0.00    +0.000 C 
BRANCH  15  19
ATOM     16  C   UNL     1      51.697   8.282  11.783  0.00  0.00    +0.000 A 
ATOM     17  C   UNL     1      50.544   7.947  11.062  0.00  0.00    +0.000 A 
ATOM     18  C   UNL     1      49.333   7.717  11.723  0.00  0.00    +0.000 A 
ATOM     19  C   UNL     1      49.250   7.821  13.119  0.00  0.00    +0.000 A 
ATOM     20  C   UNL     1      50.401   8.176  13.835  0.00  0.00    +0.000 A 
ATOM     21  C   UNL     1      51.609   8.413  13.173  0.00  0.00    +0.000 A 
BRANCH  16  22
ATOM     22  C   UNL     1      53.017   8.471  11.074  0.00  0.00    +0.000 C 
BRANCH  22  23
ATOM     23  C   UNL     1      53.300   7.388  10.027  0.00  0.00    +0.000 C 
BRANCH  23  24
ATOM     24  N   UNL     1      53.577   6.103  10.671  0.00  0.00    +0.000 NA
ATOM     25  H   UNL     1      53.355   5.345  10.026  0.00  0.00    +0.000 HD
ATOM     26  H   UNL     1      52.962   5.981  11.476  0.00  0.00    +0.000 HD
ENDBRANCH  23  24
ENDBRANCH  22  23
ENDBRANCH  16  22
ENDBRANCH  15  19
ENDBRANCH   1  15
TORSDOF 6
ENDMDL
MODEL 6
REMARK VINA RESULT:    -6.003      2.603      7.128
REMARK INTER + INTRA:          -8.307
REMARK INTER:                  -7.808
REMARK INTRA:                  -0.499
REMARK UNBOUND:                -0.373
REMARK  Name = 
REMARK  6 active torsions:
REMARK  status: ('A' for Active; 'I' for Inactive)
REMARK    1  A    between atoms: N_1  and  C_2
REMARK    2  A    between atoms: C_2  and  C_3
REMARK    3  A    between atoms: C_3  and  C_4
REMARK    4  A    between atoms: C_7  and  C_8
REMARK    5  A    between atoms: C_8  and  N_9
REMARK    6  A    between atoms: C_14  and  C_15
REMARK                            x       y       z     vdW  Elec       q    Type
REMARK                         _______ _______ _______ _____ _____    ______ ____
ROOT
ATOM      1  N   UNL     1      44.915   4.631  10.271  0.00  0.00    +0.000 N 
ATOM      2  N   UNL     1      45.285   5.874   9.897  0.00  0.00    +0.000 NA
ATOM      3  N   UNL     1      45.973   5.765   8.766  0.00  0.00    +0.000 NA
ATOM      4  C   UNL     1      46.054   4.440   8.439  0.00  0.00    +0.000 A 
ATOM      5  C   UNL     1      46.695   3.808   7.377  0.00  0.00    +0.000 A 
ATOM      6  C   UNL     1      46.593   2.426   7.367  0.00  0.00    +0.000 A 
ATOM      7  N   UNL     1      45.916   1.678   8.292  0.00  0.00    +0.000 NA
ATOM      8  C   UNL     1      45.292   2.308   9.316  0.00  0.00    +0.000 A 
ATOM      9  C   UNL     1      45.371   3.688   9.386  0.00  0.00    +0.000 A 
ENDROOT
BRANCH   6  10
ATOM     10  C   UNL     1      47.284   1.658   6.279  0.00  0.00    +0.000 C 
ATOM     11  N   UNL     1      48.067   2.400   5.437  0.00  0.00    +0.000 N 
ATOM     12  O   UNL     1      47.158   0.448   6.141  0.00  0.00    +0.000 OA
ATOM     13  H   UNL     1      48.145   3.401   5.572  0.00  0.00    +0.000 HD
ATOM     14  H   UNL     1      48.551   1.943   4.678  0.00  0.00    +0.000 HD
ENDBRANCH   6  10
BRANCH   1  15
ATOM     15  C   UNL     1      44.291   4.426  11.568  0.00  0.00    +0.000 C 
BRANCH  15  19
ATOM     16  C   UNL     1      47.129   4.449  14.844  0.00  0.00    +0.000 A 
ATOM     17  C   UNL     1      46.892   3.275  14.118  0.00  0.00    +0.000 A 
ATOM     18  C   UNL     1      45.982   3.265  13.056  0.00  0.00    +0.000 A 
ATOM     19  C   UNL     1      45.291   4.432  12.697  0.00  0.00    +0.000 A 
ATOM     20  C   UNL     1      45.546   5.610  13.412  0.00  0.00    +0.000 A 
ATOM     21  C   UNL     1      46.461   5.620  14.469  0.00  0.00    +0.000 A 
BRANCH  16  22
ATOM     22  C   UNL     1      48.067   4.443  16.028  0.00  0.00    +0.000 C 
BRANCH  22  23
ATOM     23  C   UNL     1      47.338   4.402  17.375  0.00  0.00    +0.000 C 
BRANCH  23  24
ATOM     24  N   UNL     1      46.715   3.096  17.589  0.00  0.00    +0.000 NA
ATOM     25  H   UNL     1      46.401   2.719  16.695  0.00  0.00    +0.000 HD
ATOM     26  H   UNL     1      45.878   3.203  18.162  0.00  0.00    +0.000 HD
ENDBRANCH  23  24
ENDBRANCH  22  23
ENDBRANCH  16  22
ENDBRANCH  15  19
ENDBRANCH   1  15
TORSDOF 6
ENDMDL
MODEL 7
REMARK VINA RESULT:    -5.739      4.018      8.519
REMARK INTER + INTRA:          -7.957
REMARK INTER:                  -7.409
REMARK INTRA:                  -0.548
REMARK UNBOUND:                -0.373
REMARK  Name = 
REMARK  6 active torsions:
REMARK  status: ('A' for Active; 'I' for Inactive)
REMARK    1  A    between atoms: N_1  and  C_2
REMARK    2  A    between atoms: C_2  and  C_3
REMARK    3  A    between atoms: C_3  and  C_4
REMARK    4  A    between atoms: C_7  and  C_8
REMARK    5  A    between atoms: C_8  and  N_9
REMARK    6  A    between atoms: C_14  and  C_15
REMARK                            x       y       z     vdW  Elec       q    Type
REMARK                         _______ _______ _______ _____ _____    ______ ____
ROOT
ATOM      1  N   UNL     1      47.479   6.969  13.787  0.00  0.00    +0.000 N 
ATOM      2  N   UNL     1      46.959   8.131  13.339  0.00  0.00    +0.000 NA
ATOM      3  N   UNL     1      45.814   7.851  12.728  0.00  0.00    +0.000 NA
ATOM      4  C   UNL     1      45.623   6.497  12.775  0.00  0.00    +0.000 A 
ATOM      5  C   UNL     1      44.603   5.708  12.249  0.00  0.00    +0.000 A 
ATOM      6  C   UNL     1      44.743   4.347  12.464  0.00  0.00    +0.000 A 
ATOM      7  N   UNL     1      45.773   3.757  13.147  0.00  0.00    +0.000 NA
ATOM      8  C   UNL     1      46.754   4.538  13.657  0.00  0.00    +0.000 A 
ATOM      9  C   UNL     1      46.676   5.906  13.462  0.00  0.00    +0.000 A 
ENDROOT
BRANCH   6  10
ATOM     10  C   UNL     1      43.709   3.416  11.903  0.00  0.00    +0.000 C 
ATOM     11  N   UNL     1      43.701   2.153  12.432  0.00  0.00    +0.000 N 
ATOM     12  O   UNL     1      42.923   3.751  11.027  0.00  0.00    +0.000 OA
ATOM     13  H   UNL     1      44.370   1.904  13.151  0.00  0.00    +0.000 HD
ATOM     14  H   UNL     1      43.035   1.476  12.090  0.00  0.00    +0.000 HD
ENDBRANCH   6  10
BRANCH   1  15
ATOM     15  C   UNL     1      48.819   6.949  14.351  0.00  0.00    +0.000 C 
BRANCH  15  19
ATOM     16  C   UNL     1      48.843   6.893  18.684  0.00  0.00    +0.000 A 
ATOM     17  C   UNL     1      48.817   8.109  17.990  0.00  0.00    +0.000 A 
ATOM     18  C   UNL     1      48.803   8.131  16.592  0.00  0.00    +0.000 A 
ATOM     19  C   UNL     1      48.812   6.935  15.858  0.00  0.00    +0.000 A 
ATOM     20  C   UNL     1      48.817   5.720  16.556  0.00  0.00    +0.000 A 
ATOM     21  C   UNL     1      48.823   5.699  17.954  0.00  0.00    +0.000 A 
BRANCH  16  22
ATOM     22  C   UNL     1      48.918   6.872  20.193  0.00  0.00    +0.000 C 
BRANCH  22  23
ATOM     23  C   UNL     1      47.544   6.952  20.866  0.00  0.00    +0.000 C 
BRANCH  23  24
ATOM     24  N   UNL     1      47.009   5.612  21.114  0.00  0.00    +0.000 NA
ATOM     25  H   UNL     1      47.521   5.179  21.881  0.00  0.00    +0.000 HD
ATOM     26  H   UNL     1      47.165   5.022  20.297  0.00  0.00    +0.000 HD
ENDBRANCH  23  24
ENDBRANCH  22  23
ENDBRANCH  16  22
ENDBRANCH  15  19
ENDBRANCH   1  15
TORSDOF 6
ENDMDL
MODEL 8
REMARK VINA RESULT:    -5.616      4.425      6.247
REMARK INTER + INTRA:          -7.795
REMARK INTER:                  -7.250
REMARK INTRA:                  -0.544
REMARK UNBOUND:                -0.373
REMARK  Name = 
REMARK  6 active torsions:
REMARK  status: ('A' for Active; 'I' for Inactive)
REMARK    1  A    between atoms: N_1  and  C_2
REMARK    2  A    between atoms: C_2  and  C_3
REMARK    3  A    between atoms: C_3  and  C_4
REMARK    4  A    between atoms: C_7  and  C_8
REMARK    5  A    between atoms: C_8  and  N_9
REMARK    6  A    between atoms: C_14  and  C_15
REMARK                            x       y       z     vdW  Elec       q    Type
REMARK                         _______ _______ _______ _____ _____    ______ ____
ROOT
ATOM      1  N   UNL     1      46.151   7.991  12.929  0.00  0.00    +0.000 N 
ATOM      2  N   UNL     1      45.474   8.830  12.117  0.00  0.00    +0.000 NA
ATOM      3  N   UNL     1      44.612   8.103  11.416  0.00  0.00    +0.000 NA
ATOM      4  C   UNL     1      44.763   6.792  11.776  0.00  0.00    +0.000 A 
ATOM      5  C   UNL     1      44.127   5.646  11.308  0.00  0.00    +0.000 A 
ATOM      6  C   UNL     1      44.551   4.460  11.886  0.00  0.00    +0.000 A 
ATOM      7  N   UNL     1      45.508   4.355  12.860  0.00  0.00    +0.000 NA
ATOM      8  C   UNL     1      46.113   5.480  13.309  0.00  0.00    +0.000 A 
ATOM      9  C   UNL     1      45.740   6.693  12.759  0.00  0.00    +0.000 A 
ENDROOT
BRANCH   6  10
ATOM     10  C   UNL     1      43.946   3.170  11.418  0.00  0.00    +0.000 C 
ATOM     11  N   UNL     1      43.707   2.240  12.395  0.00  0.00    +0.000 N 
ATOM     12  O   UNL     1      43.683   2.950  10.244  0.00  0.00    +0.000 OA
ATOM     13  H   UNL     1      43.943   2.449  13.358  0.00  0.00    +0.000 HD
ATOM     14  H   UNL     1      43.309   1.347  12.144  0.00  0.00    +0.000 HD
ENDBRANCH   6  10
BRANCH   1  15
ATOM     15  C   UNL     1      47.283   8.487  13.695  0.00  0.00    +0.000 C 
BRANCH  15  19
ATOM     16  C   UNL     1      50.827   8.925  11.239  0.00  0.00    +0.000 A 
ATOM     17  C   UNL     1      50.152  10.054  11.719  0.00  0.00    +0.000 A 
ATOM     18  C   UNL     1      49.011   9.917  12.517  0.00  0.00    +0.000 A 
ATOM     19  C   UNL     1      48.524   8.645  12.854  0.00  0.00    +0.000 A 
ATOM     20  C   UNL     1      49.214   7.517  12.389  0.00  0.00    +0.000 A 
ATOM     21  C   UNL     1      50.358   7.656  11.597  0.00  0.00    +0.000 A 
BRANCH  16  22
ATOM     22  C   UNL     1      52.022   9.076  10.329  0.00  0.00    +0.000 C 
BRANCH  22  23
ATOM     23  C   UNL     1      52.803   7.772  10.138  0.00  0.00    +0.000 C 
BRANCH  23  24
ATOM     24  N   UNL     1      52.674   7.286   8.763  0.00  0.00    +0.000 NA
ATOM     25  H   UNL     1      52.617   6.268   8.767  0.00  0.00    +0.000 HD
ATOM     26  H   UNL     1      53.513   7.523   8.234  0.00  0.00    +0.000 HD
ENDBRANCH  23  24
ENDBRANCH  22  23
ENDBRANCH  16  22
ENDBRANCH  15  19
ENDBRANCH   1  15
TORSDOF 6
ENDMDL
MODEL 9
REMARK VINA RESULT:    -5.349      3.011      4.250
REMARK INTER + INTRA:          -7.441
REMARK INTER:                  -6.906
REMARK INTRA:                  -0.536
REMARK UNBOUND:                -0.373
REMARK  Name = 
REMARK  6 active torsions:
REMARK  status: ('A' for Active; 'I' for Inactive)
REMARK    1  A    between atoms: N_1  and  C_2
REMARK    2  A    between atoms: C_2  and  C_3
REMARK    3  A    between atoms: C_3  and  C_4
REMARK    4  A    between atoms: C_7  and  C_8
REMARK    5  A    between atoms: C_8  and  N_9
REMARK    6  A    between atoms: C_14  and  C_15
REMARK                            x       y       z     vdW  Elec       q    Type
REMARK                         _______ _______ _______ _____ _____    ______ ____
ROOT
ATOM      1  N   UNL     1      47.049   7.881  12.951  0.00  0.00    +0.000 N 
ATOM      2  N   UNL     1      47.535   8.923  12.243  0.00  0.00    +0.000 NA
ATOM      3  N   UNL     1      48.792   9.117  12.626  0.00  0.00    +0.000 NA
ATOM      4  C   UNL     1      49.090   8.203  13.599  0.00  0.00    +0.000 A 
ATOM      5  C   UNL     1      50.253   8.019  14.341  0.00  0.00    +0.000 A 
ATOM      6  C   UNL     1      50.198   6.998  15.277  0.00  0.00    +0.000 A 
ATOM      7  N   UNL     1      49.119   6.185  15.494  0.00  0.00    +0.000 NA
ATOM      8  C   UNL     1      47.996   6.373  14.760  0.00  0.00    +0.000 A 
ATOM      9  C   UNL     1      47.988   7.387  13.819  0.00  0.00    +0.000 A 
ENDROOT
BRANCH   6  10
ATOM     10  C   UNL     1      51.394   6.750  16.147  0.00  0.00    +0.000 C 
ATOM     11  N   UNL     1      51.152   6.050  17.299  0.00  0.00    +0.000 N 
ATOM     12  O   UNL     1      52.516   7.146  15.860  0.00  0.00    +0.000 OA
ATOM     13  H   UNL     1      50.210   5.741  17.513  0.00  0.00    +0.000 HD
ATOM     14  H   UNL     1      51.914   5.857  17.933  0.00  0.00    +0.000 HD
ENDBRANCH   6  10
BRANCH   1  15
ATOM     15  C   UNL     1      45.636   7.549  12.862  0.00  0.00    +0.000 C 
BRANCH  15  19
ATOM     16  C   UNL     1      44.889   3.835  10.756  0.00  0.00    +0.000 A 
ATOM     17  C   UNL     1      45.262   4.988  10.053  0.00  0.00    +0.000 A 
ATOM     18  C   UNL     1      45.510   6.186  10.730  0.00  0.00    +0.000 A 
ATOM     19  C   UNL     1      45.392   6.256  12.126  0.00  0.00    +0.000 A 
ATOM     20  C   UNL     1      45.039   5.095  12.829  0.00  0.00    +0.000 A 
ATOM     21  C   UNL     1      44.799   3.896  12.151  0.00  0.00    +0.000 A 
BRANCH  16  22
ATOM     22  C   UNL     1      44.564   2.558  10.018  0.00  0.00    +0.000 C 
BRANCH  22  23
ATOM     23  C   UNL     1      45.197   2.490   8.625  0.00  0.00    +0.000 C 
BRANCH  23  24
ATOM     24  N   UNL     1      45.963   1.254   8.462  0.00  0.00    +0.000 NA
ATOM     25  H   UNL     1      45.605   0.546   9.102  0.00  0.00    +0.000 HD
ATOM     26  H   UNL     1      46.935   1.413   8.727  0.00  0.00    +0.000 HD
ENDBRANCH  23  24
ENDBRANCH  22  23
ENDBRANCH  16  22
ENDBRANCH  15  19
ENDBRANCH   1  15
TORSDOF 6
ENDMDL
