MODEL 1
REMARK VINA RESULT:    -7.673      0.000      0.000
REMARK INTER + INTRA:          -9.858
REMARK INTER:                  -9.467
REMARK INTRA:                  -0.390
REMARK UNBOUND:                -0.390
REMARK  Name = 
REMARK  4 active torsions:
REMARK  status: ('A' for Active; 'I' for Inactive)
REMARK    1  A    between atoms: C_2  and  C_3
REMARK    2  A    between atoms: C_6  and  C_7
REMARK    3  A    between atoms: C_7  and  C_8
REMARK    4  A    between atoms: C_12  and  C_13
REMARK                            x       y       z     vdW  Elec       q    Type
REMARK                         _______ _______ _______ _____ _____    ______ ____
ROOT
ATOM      1  C   UNL     1      45.312   5.216  11.691  0.00  0.00    +0.000 A 
ATOM      2  C   UNL     1      45.602   6.502  11.235  0.00  0.00    +0.000 A 
ATOM      3  N   UNL     1      46.404   7.383  11.873  0.00  0.00    +0.000 NA
ATOM      4  C   UNL     1      46.967   6.956  13.027  0.00  0.00    +0.000 A 
ATOM      5  C   UNL     1      46.745   5.711  13.617  0.00  0.00    +0.000 A 
ATOM      6  C   UNL     1      45.860   4.866  12.935  0.00  0.00    +0.000 A 
ENDROOT
BRANCH   5   7
ATOM      7  C   UNL     1      47.465   5.254  14.817  0.00  0.00    +0.000 A 
ATOM      8  C   UNL     1      48.398   6.067  15.483  0.00  0.00    +0.000 A 
ATOM      9  C   UNL     1      49.018   5.649  16.666  0.00  0.00    +0.000 A 
ATOM     10  C   UNL     1      48.720   4.399  17.199  0.00  0.00    +0.000 A 
ATOM     11 CL   UNL     1      49.470   3.887  18.659  0.00  0.00    +0.000 Cl
ATOM     12  C   UNL     1      47.809   3.566  16.557  0.00  0.00    +0.000 A 
ATOM     13  C   UNL     1      47.187   3.991  15.382  0.00  0.00    +0.000 A 
ENDBRANCH   5   7
BRANCH   1  14
ATOM     14  C   UNL     1      44.537   4.216  10.842  0.00  0.00    +0.000 C 
ATOM     15  C   UNL     1      43.682   3.207  11.606  0.00  0.00    +0.000 C 
ATOM     16  C   UNL     1      43.012   4.311  10.864  0.00  0.00    +0.000 C 
BRANCH  14  20
ATOM     17  C   UNL     1      46.655   2.673   7.428  0.00  0.00    +0.000 A 
ATOM     18  C   UNL     1      46.492   4.044   7.547  0.00  0.00    +0.000 A 
ATOM     19  C   UNL     1      45.785   4.561   8.637  0.00  0.00    +0.000 A 
ATOM     20  C   UNL     1      45.254   3.699   9.599  0.00  0.00    +0.000 A 
ATOM     21  N   UNL     1      45.402   2.351   9.468  0.00  0.00    +0.000 NA
ATOM     22  C   UNL     1      46.091   1.873   8.409  0.00  0.00    +0.000 A 
BRANCH  17  24
ATOM     23  N   UNL     1      48.010   1.602   5.493  0.00  0.00    +0.000 NA
ATOM     24  C   UNL     1      47.399   2.079   6.355  0.00  0.00    +0.000 C 
ENDBRANCH  17  24
ENDBRANCH  14  20
ENDBRANCH   1  14
TORSDOF 4
ENDMDL
MODEL 2
REMARK VINA RESULT:    -7.596      2.568      3.573
REMARK INTER + INTRA:          -9.763
REMARK INTER:                  -9.242
REMARK INTRA:                  -0.521
REMARK UNBOUND:                -0.390
REMARK  Name = 
REMARK  4 active torsions:
REMARK  status: ('A' for Active; 'I' for Inactive)
REMARK    1  A    between atoms: C_2  and  C_3
REMARK    2  A    between atoms: C_6  and  C_7
REMARK    3  A    between atoms: C_7  and  C_8
REMARK    4  A    between atoms: C_12  and  C_13
REMARK                            x       y       z     vdW  Elec       q    Type
REMARK                         _______ _______ _______ _____ _____    ______ ____
ROOT
ATOM      1  C   UNL     1      45.533   4.648  11.946  0.00  0.00    +0.000 A 
ATOM      2  C   UNL     1      45.562   3.976  13.167  0.00  0.00    +0.000 A 
ATOM      3  N   UNL     1      46.252   4.385  14.255  0.00  0.00    +0.000 NA
ATOM      4  C   UNL     1      46.944   5.541  14.128  0.00  0.00    +0.000 A 
ATOM      5  C   UNL     1      47.030   6.302  12.962  0.00  0.00    +0.000 A 
ATOM      6  C   UNL     1      46.337   5.795  11.854  0.00  0.00    +0.000 A 
ENDROOT
BRANCH   5   7
ATOM      7  C   UNL     1      47.707   7.608  12.906  0.00  0.00    +0.000 A 
ATOM      8  C   UNL     1      47.701   8.499  13.993  0.00  0.00    +0.000 A 
ATOM      9  C   UNL     1      48.413   9.703  13.954  0.00  0.00    +0.000 A 
ATOM     10  C   UNL     1      49.137  10.042  12.815  0.00  0.00    +0.000 A 
ATOM     11 CL   UNL     1      50.023  11.516  12.768  0.00  0.00    +0.000 Cl
ATOM     12  C   UNL     1      49.154   9.186  11.718  0.00  0.00    +0.000 A 
ATOM     13  C   UNL     1      48.449   7.982  11.766  0.00  0.00    +0.000 A 
ENDBRANCH   5   7
BRANCH   1  14
ATOM     14  C   UNL     1      44.603   4.224  10.815  0.00  0.00    +0.000 C 
ATOM     15  C   UNL     1      43.316   3.517  11.234  0.00  0.00    +0.000 C 
ATOM     16  C   UNL     1      43.244   4.917  10.727  0.00  0.00    +0.000 C 
BRANCH  14  20
ATOM     17  C   UNL     1      46.616   2.681   7.337  0.00  0.00    +0.000 A 
ATOM     18  C   UNL     1      46.498   4.055   7.485  0.00  0.00    +0.000 A 
ATOM     19  C   UNL     1      45.826   4.572   8.596  0.00  0.00    +0.000 A 
ATOM     20  C   UNL     1      45.283   3.709   9.551  0.00  0.00    +0.000 A 
ATOM     21  N   UNL     1      45.386   2.360   9.392  0.00  0.00    +0.000 NA
ATOM     22  C   UNL     1      46.042   1.881   8.312  0.00  0.00    +0.000 A 
BRANCH  17  24
ATOM     23  N   UNL     1      47.899   1.597   5.362  0.00  0.00    +0.000 NA
ATOM     24  C   UNL     1      47.322   2.086   6.241  0.00  0.00    +0.000 C 
ENDBRANCH  17  24
ENDBRANCH  14  20
ENDBRANCH   1  14
TORSDOF 4
ENDMDL
MODEL 3
REMARK VINA RESULT:    -7.358      2.336      2.798
REMARK INTER + INTRA:          -9.469
REMARK INTER:                  -9.147
REMARK INTRA:                  -0.322
REMARK UNBOUND:                -0.390
REMARK  Name = 
REMARK  4 active torsions:
REMARK  status: ('A' for Active; 'I' for Inactive)
REMARK    1  A    between atoms: C_2  and  C_3
REMARK    2  A    between atoms: C_6  and  C_7
REMARK    3  A    between atoms: C_7  and  C_8
REMARK    4  A    between atoms: C_12  and  C_13
REMARK                            x       y       z     vdW  Elec       q    Type
REMARK                         _______ _______ _______ _____ _____    ______ ____
ROOT
ATOM      1  C   UNL     1      44.817   5.391  11.423  0.00  0.00    +0.000 A 
ATOM      2  C   UNL     1      43.958   6.480  11.272  0.00  0.00    +0.000 A 
ATOM      3  N   UNL     1      44.278   7.759  11.566  0.00  0.00    +0.000 NA
ATOM      4  C   UNL     1      45.533   7.976  12.023  0.00  0.00    +0.000 A 
ATOM      5  C   UNL     1      46.487   6.983  12.252  0.00  0.00    +0.000 A 
ATOM      6  C   UNL     1      46.075   5.672  11.980  0.00  0.00    +0.000 A 
ENDROOT
BRANCH   5   7
ATOM      7  C   UNL     1      47.874   7.281  12.647  0.00  0.00    +0.000 A 
ATOM      8  C   UNL     1      48.824   7.763  11.731  0.00  0.00    +0.000 A 
ATOM      9  C   UNL     1      50.116   8.115  12.136  0.00  0.00    +0.000 A 
ATOM     10  C   UNL     1      50.483   7.979  13.471  0.00  0.00    +0.000 A 
ATOM     11 CL   UNL     1      52.067   8.422  13.976  0.00  0.00    +0.000 Cl
ATOM     12  C   UNL     1      49.568   7.494  14.401  0.00  0.00    +0.000 A 
ATOM     13  C   UNL     1      48.278   7.152  13.993  0.00  0.00    +0.000 A 
ENDBRANCH   5   7
BRANCH   1  14
ATOM     14  C   UNL     1      44.452   4.001  10.917  0.00  0.00    +0.000 C 
ATOM     15  C   UNL     1      44.208   2.939  11.987  0.00  0.00    +0.000 C 
ATOM     16  C   UNL     1      43.048   3.487  11.230  0.00  0.00    +0.000 C 
BRANCH  14  20
ATOM     17  C   UNL     1      46.583   2.624   7.440  0.00  0.00    +0.000 A 
ATOM     18  C   UNL     1      46.351   3.984   7.585  0.00  0.00    +0.000 A 
ATOM     19  C   UNL     1      45.640   4.445   8.696  0.00  0.00    +0.000 A 
ATOM     20  C   UNL     1      45.172   3.542   9.653  0.00  0.00    +0.000 A 
ATOM     21  N   UNL     1      45.387   2.206   9.497  0.00  0.00    +0.000 NA
ATOM     22  C   UNL     1      46.080   1.781   8.417  0.00  0.00    +0.000 A 
BRANCH  17  24
ATOM     23  N   UNL     1      47.951   1.664   5.457  0.00  0.00    +0.000 NA
ATOM     24  C   UNL     1      47.336   2.088   6.344  0.00  0.00    +0.000 C 
ENDBRANCH  17  24
ENDBRANCH  14  20
ENDBRANCH   1  14
TORSDOF 4
ENDMDL
MODEL 4
REMARK VINA RESULT:    -6.929      3.518      7.498
REMARK INTER + INTRA:          -8.939
REMARK INTER:                  -8.718
REMARK INTRA:                  -0.221
REMARK UNBOUND:                -0.390
REMARK  Name = 
REMARK  4 active torsions:
REMARK  status: ('A' for Active; 'I' for Inactive)
REMARK    1  A    between atoms: C_2  and  C_3
REMARK    2  A    between atoms: C_6  and  C_7
REMARK    3  A    between atoms: C_7  and  C_8
REMARK    4  A    between atoms: C_12  and  C_13
REMARK                            x       y       z     vdW  Elec       q    Type
REMARK                         _______ _______ _______ _____ _____    ______ ____
ROOT
ATOM      1  C   UNL     1      45.312   6.403  11.977  0.00  0.00    +0.000 A 
ATOM      2  C   UNL     1      43.956   6.286  12.282  0.00  0.00    +0.000 A 
ATOM      3  N   UNL     1      43.084   5.492  11.622  0.00  0.00    +0.000 NA
ATOM      4  C   UNL     1      43.591   4.756  10.606  0.00  0.00    +0.000 A 
ATOM      5  C   UNL     1      44.916   4.793  10.171  0.00  0.00    +0.000 A 
ATOM      6  C   UNL     1      45.757   5.677  10.861  0.00  0.00    +0.000 A 
ENDROOT
BRANCH   5   7
ATOM      7  C   UNL     1      45.443   3.892   9.132  0.00  0.00    +0.000 A 
ATOM      8  C   UNL     1      46.100   4.377   7.988  0.00  0.00    +0.000 A 
ATOM      9  C   UNL     1      46.664   3.507   7.047  0.00  0.00    +0.000 A 
ATOM     10  C   UNL     1      46.569   2.132   7.233  0.00  0.00    +0.000 A 
ATOM     11 CL   UNL     1      47.272   1.060   6.084  0.00  0.00    +0.000 Cl
ATOM     12  C   UNL     1      45.916   1.621   8.350  0.00  0.00    +0.000 A 
ATOM     13  C   UNL     1      45.363   2.493   9.290  0.00  0.00    +0.000 A 
ENDBRANCH   5   7
BRANCH   1  14
ATOM     14  C   UNL     1      46.273   7.186  12.863  0.00  0.00    +0.000 C 
ATOM     15  C   UNL     1      47.094   8.271  12.169  0.00  0.00    +0.000 C 
ATOM     16  C   UNL     1      45.980   8.671  13.074  0.00  0.00    +0.000 C 
BRANCH  14  20
ATOM     17  C   UNL     1      48.136   4.898  15.996  0.00  0.00    +0.000 A 
ATOM     18  C   UNL     1      48.634   6.158  15.705  0.00  0.00    +0.000 A 
ATOM     19  C   UNL     1      48.056   6.905  14.674  0.00  0.00    +0.000 A 
ATOM     20  C   UNL     1      46.982   6.384  13.949  0.00  0.00    +0.000 A 
ATOM     21  N   UNL     1      46.508   5.137  14.227  0.00  0.00    +0.000 NA
ATOM     22  C   UNL     1      47.079   4.434  15.229  0.00  0.00    +0.000 A 
BRANCH  17  24
ATOM     23  N   UNL     1      49.071   3.437  17.924  0.00  0.00    +0.000 NA
ATOM     24  C   UNL     1      48.658   4.094  17.063  0.00  0.00    +0.000 C 
ENDBRANCH  17  24
ENDBRANCH  14  20
ENDBRANCH   1  14
TORSDOF 4
ENDMDL
MODEL 5
REMARK VINA RESULT:    -6.446      3.843      7.389
REMARK INTER + INTRA:          -8.344
REMARK INTER:                  -7.868
REMARK INTRA:                  -0.475
REMARK UNBOUND:                -0.390
REMARK  Name = 
REMARK  4 active torsions:
REMARK  status: ('A' for Active; 'I' for Inactive)
REMARK    1  A    between atoms: C_2  and  C_3
REMARK    2  A    between atoms: C_6  and  C_7
REMARK    3  A    between atoms: C_7  and  C_8
REMARK    4  A    between atoms: C_12  and  C_13
REMARK                            x       y       z     vdW  Elec       q    Type
REMARK                         _______ _______ _______ _____ _____    ______ ____
ROOT
ATOM      1  C   UNL     1      45.037   6.776  11.907  0.00  0.00    +0.000 A 
ATOM      2  C   UNL     1      44.134   6.170  12.780  0.00  0.00    +0.000 A 
ATOM      3  N   UNL     1      43.608   4.937  12.609  0.00  0.00    +0.000 NA
ATOM      4  C   UNL     1      44.014   4.256  11.512  0.00  0.00    +0.000 A 
ATOM      5  C   UNL     1      44.887   4.747  10.541  0.00  0.00    +0.000 A 
ATOM      6  C   UNL     1      45.354   6.052  10.747  0.00  0.00    +0.000 A 
ENDROOT
BRANCH   5   7
ATOM      7  C   UNL     1      45.383   3.927   9.423  0.00  0.00    +0.000 A 
ATOM      8  C   UNL     1      46.012   4.496   8.302  0.00  0.00    +0.000 A 
ATOM      9  C   UNL     1      46.548   3.699   7.283  0.00  0.00    +0.000 A 
ATOM     10  C   UNL     1      46.453   2.314   7.366  0.00  0.00    +0.000 A 
ATOM     11 CL   UNL     1      47.121   1.331   6.122  0.00  0.00    +0.000 Cl
ATOM     12  C   UNL     1      45.826   1.721   8.458  0.00  0.00    +0.000 A 
ATOM     13  C   UNL     1      45.302   2.520   9.475  0.00  0.00    +0.000 A 
ENDBRANCH   5   7
BRANCH   1  14
ATOM     14  C   UNL     1      45.719   8.097  12.244  0.00  0.00    +0.000 C 
ATOM     15  C   UNL     1      45.444   9.257  11.290  0.00  0.00    +0.000 C 
ATOM     16  C   UNL     1      44.823   9.267  12.644  0.00  0.00    +0.000 C 
BRANCH  14  20
ATOM     17  C   UNL     1      49.661   7.831  13.953  0.00  0.00    +0.000 A 
ATOM     18  C   UNL     1      49.459   8.673  12.870  0.00  0.00    +0.000 A 
ATOM     19  C   UNL     1      48.191   8.753  12.288  0.00  0.00    +0.000 A 
ATOM     20  C   UNL     1      47.137   7.993  12.798  0.00  0.00    +0.000 A 
ATOM     21  N   UNL     1      47.344   7.154  13.852  0.00  0.00    +0.000 NA
ATOM     22  C   UNL     1      48.576   7.094  14.401  0.00  0.00    +0.000 A 
BRANCH  17  24
ATOM     23  N   UNL     1      51.948   7.634  15.159  0.00  0.00    +0.000 NA
ATOM     24  C   UNL     1      50.926   7.729  14.620  0.00  0.00    +0.000 C 
ENDBRANCH  17  24
ENDBRANCH  14  20
ENDBRANCH   1  14
TORSDOF 4
ENDMDL
MODEL 6
REMARK VINA RESULT:    -6.399      4.269      8.078
REMARK INTER + INTRA:          -8.286
REMARK INTER:                  -7.777
REMARK INTRA:                  -0.509
REMARK UNBOUND:                -0.390
REMARK  Name = 
REMARK  4 active torsions:
REMARK  status: ('A' for Active; 'I' for Inactive)
REMARK    1  A    between atoms: C_2  and  C_3
REMARK    2  A    between atoms: C_6  and  C_7
REMARK    3  A    between atoms: C_7  and  C_8
REMARK    4  A    between atoms: C_12  and  C_13
REMARK                            x       y       z     vdW  Elec       q    Type
REMARK                         _______ _______ _______ _____ _____    ______ ____
ROOT
ATOM      1  C   UNL     1      48.614   6.008  16.092  0.00  0.00    +0.000 A 
ATOM      2  C   UNL     1      49.096   7.306  15.926  0.00  0.00    +0.000 A 
ATOM      3  N   UNL     1      48.879   8.075  14.836  0.00  0.00    +0.000 NA
ATOM      4  C   UNL     1      48.123   7.528  13.856  0.00  0.00    +0.000 A 
ATOM      5  C   UNL     1      47.600   6.235  13.872  0.00  0.00    +0.000 A 
ATOM      6  C   UNL     1      47.908   5.470  15.005  0.00  0.00    +0.000 A 
ENDROOT
BRANCH   5   7
ATOM      7  C   UNL     1      46.693   5.725  12.830  0.00  0.00    +0.000 A 
ATOM      8  C   UNL     1      46.526   6.383  11.599  0.00  0.00    +0.000 A 
ATOM      9  C   UNL     1      45.720   5.847  10.588  0.00  0.00    +0.000 A 
ATOM     10  C   UNL     1      45.057   4.642  10.798  0.00  0.00    +0.000 A 
ATOM     11 CL   UNL     1      44.075   3.973   9.554  0.00  0.00    +0.000 Cl
ATOM     12  C   UNL     1      45.194   3.972  12.010  0.00  0.00    +0.000 A 
ATOM     13  C   UNL     1      46.006   4.507  13.012  0.00  0.00    +0.000 A 
ENDBRANCH   5   7
BRANCH   1  14
ATOM     14  C   UNL     1      48.753   5.259  17.412  0.00  0.00    +0.000 C 
ATOM     15  C   UNL     1      48.548   6.087  18.678  0.00  0.00    +0.000 C 
ATOM     16  C   UNL     1      47.498   5.111  18.270  0.00  0.00    +0.000 C 
BRANCH  14  20
ATOM     17  C   UNL     1      51.732   2.159  17.627  0.00  0.00    +0.000 A 
ATOM     18  C   UNL     1      52.050   3.424  18.098  0.00  0.00    +0.000 A 
ATOM     19  C   UNL     1      51.103   4.448  18.013  0.00  0.00    +0.000 A 
ATOM     20  C   UNL     1      49.845   4.194  17.462  0.00  0.00    +0.000 A 
ATOM     21  N   UNL     1      49.543   2.955  16.985  0.00  0.00    +0.000 NA
ATOM     22  C   UNL     1      50.472   1.979  17.080  0.00  0.00    +0.000 A 
BRANCH  17  24
ATOM     23  N   UNL     1      53.386   0.169  17.796  0.00  0.00    +0.000 NA
ATOM     24  C   UNL     1      52.643   1.056  17.716  0.00  0.00    +0.000 C 
ENDBRANCH  17  24
ENDBRANCH  14  20
ENDBRANCH   1  14
TORSDOF 4
ENDMDL
MODEL 7
REMARK VINA RESULT:    -6.274      3.926      8.093
REMARK INTER + INTRA:          -8.132
REMARK INTER:                  -7.612
REMARK INTRA:                  -0.521
REMARK UNBOUND:                -0.390
REMARK  Name = 
REMARK  4 active torsions:
REMARK  status: ('A' for Active; 'I' for Inactive)
REMARK    1  A    between atoms: C_2  and  C_3
REMARK    2  A    between atoms: C_6  and  C_7
REMARK    3  A    between atoms: C_7  and  C_8
REMARK    4  A    between atoms: C_12  and  C_13
REMARK                            x       y       z     vdW  Elec       q    Type
REMARK                         _______ _______ _______ _____ _____    ______ ____
ROOT
ATOM      1  C   UNL     1      47.488   8.032  12.549  0.00  0.00    +0.000 A 
ATOM      2  C   UNL     1      46.451   8.924  12.817  0.00  0.00    +0.000 A 
ATOM      3  N   UNL     1      45.169   8.756  12.421  0.00  0.00    +0.000 NA
ATOM      4  C   UNL     1      44.897   7.624  11.730  0.00  0.00    +0.000 A 
ATOM      5  C   UNL     1      45.837   6.660  11.365  0.00  0.00    +0.000 A 
ATOM      6  C   UNL     1      47.157   6.921  11.758  0.00  0.00    +0.000 A 
ENDROOT
BRANCH   5   7
ATOM      7  C   UNL     1      45.472   5.394  10.708  0.00  0.00    +0.000 A 
ATOM      8  C   UNL     1      45.677   5.180   9.335  0.00  0.00    +0.000 A 
ATOM      9  C   UNL     1      45.398   3.945   8.738  0.00  0.00    +0.000 A 
ATOM     10  C   UNL     1      44.895   2.903   9.510  0.00  0.00    +0.000 A 
ATOM     11 CL   UNL     1      44.561   1.379   8.783  0.00  0.00    +0.000 Cl
ATOM     12  C   UNL     1      44.671   3.087  10.871  0.00  0.00    +0.000 A 
ATOM     13  C   UNL     1      44.960   4.317  11.462  0.00  0.00    +0.000 A 
ENDBRANCH   5   7
BRANCH   1  14
ATOM     14  C   UNL     1      48.872   8.197  13.166  0.00  0.00    +0.000 C 
ATOM     15  C   UNL     1      50.051   7.766  12.296  0.00  0.00    +0.000 C 
ATOM     16  C   UNL     1      49.809   9.218  12.523  0.00  0.00    +0.000 C 
BRANCH  14  20
ATOM     17  C   UNL     1      49.090   7.206  17.349  0.00  0.00    +0.000 A 
ATOM     18  C   UNL     1      48.618   8.458  16.984  0.00  0.00    +0.000 A 
ATOM     19  C   UNL     1      48.564   8.804  15.631  0.00  0.00    +0.000 A 
ATOM     20  C   UNL     1      48.978   7.893  14.657  0.00  0.00    +0.000 A 
ATOM     21  N   UNL     1      49.457   6.671  15.022  0.00  0.00    +0.000 NA
ATOM     22  C   UNL     1      49.498   6.355  16.335  0.00  0.00    +0.000 A 
BRANCH  17  24
ATOM     23  N   UNL     1      49.179   6.434  19.823  0.00  0.00    +0.000 NA
ATOM     24  C   UNL     1      49.139   6.773  18.715  0.00  0.00    +0.000 C 
ENDBRANCH  17  24
ENDBRANCH  14  20
ENDBRANCH   1  14
TORSDOF 4
ENDMDL
MODEL 8
REMARK VINA RESULT:    -5.875      4.515      6.413
REMARK INTER + INTRA:          -7.640
REMARK INTER:                  -7.159
REMARK INTRA:                  -0.480
REMARK UNBOUND:                -0.390
REMARK  Name = 
REMARK  4 active torsions:
REMARK  status: ('A' for Active; 'I' for Inactive)
REMARK    1  A    between atoms: C_2  and  C_3
REMARK    2  A    between atoms: C_6  and  C_7
REMARK    3  A    between atoms: C_7  and  C_8
REMARK    4  A    between atoms: C_12  and  C_13
REMARK                            x       y       z     vdW  Elec       q    Type
REMARK                         _______ _______ _______ _____ _____    ______ ____
ROOT
ATOM      1  C   UNL     1      47.664   7.933  12.641  0.00  0.00    +0.000 A 
ATOM      2  C   UNL     1      48.074   7.875  13.973  0.00  0.00    +0.000 A 
ATOM      3  N   UNL     1      49.360   7.914  14.385  0.00  0.00    +0.000 NA
ATOM      4  C   UNL     1      50.299   8.036  13.417  0.00  0.00    +0.000 A 
ATOM      5  C   UNL     1      50.038   8.076  12.047  0.00  0.00    +0.000 A 
ATOM      6  C   UNL     1      48.689   7.974  11.682  0.00  0.00    +0.000 A 
ENDROOT
BRANCH   5   7
ATOM      7  C   UNL     1      51.084   8.318  11.040  0.00  0.00    +0.000 A 
ATOM      8  C   UNL     1      51.590   9.604  10.783  0.00  0.00    +0.000 A 
ATOM      9  C   UNL     1      52.638   9.809   9.878  0.00  0.00    +0.000 A 
ATOM     10  C   UNL     1      53.193   8.726   9.205  0.00  0.00    +0.000 A 
ATOM     11 CL   UNL     1      54.490   8.972   8.102  0.00  0.00    +0.000 Cl
ATOM     12  C   UNL     1      52.707   7.441   9.430  0.00  0.00    +0.000 A 
ATOM     13  C   UNL     1      51.668   7.241  10.339  0.00  0.00    +0.000 A 
ENDBRANCH   5   7
BRANCH   1  14
ATOM     14  C   UNL     1      46.195   8.052  12.255  0.00  0.00    +0.000 C 
ATOM     15  C   UNL     1      45.403   9.154  12.956  0.00  0.00    +0.000 C 
ATOM     16  C   UNL     1      45.763   9.320  11.519  0.00  0.00    +0.000 C 
BRANCH  14  20
ATOM     17  C   UNL     1      44.178   4.290  11.701  0.00  0.00    +0.000 A 
ATOM     18  C   UNL     1      45.015   4.752  10.697  0.00  0.00    +0.000 A 
ATOM     19  C   UNL     1      45.659   5.983  10.850  0.00  0.00    +0.000 A 
ATOM     20  C   UNL     1      45.462   6.737  12.009  0.00  0.00    +0.000 A 
ATOM     21  N   UNL     1      44.624   6.287  12.986  0.00  0.00    +0.000 NA
ATOM     22  C   UNL     1      44.015   5.093  12.818  0.00  0.00    +0.000 A 
BRANCH  17  24
ATOM     23  N   UNL     1      42.989   1.990  11.556  0.00  0.00    +0.000 NA
ATOM     24  C   UNL     1      43.516   3.021  11.624  0.00  0.00    +0.000 C 
ENDBRANCH  17  24
ENDBRANCH  14  20
ENDBRANCH   1  14
TORSDOF 4
ENDMDL
MODEL 9
REMARK VINA RESULT:    -5.707      4.693      8.132
REMARK INTER + INTRA:          -7.432
REMARK INTER:                  -7.026
REMARK INTRA:                  -0.407
REMARK UNBOUND:                -0.390
REMARK  Name = 
REMARK  4 active torsions:
REMARK  status: ('A' for Active; 'I' for Inactive)
REMARK    1  A    between atoms: C_2  and  C_3
REMARK    2  A    between atoms: C_6  and  C_7
REMARK    3  A    between atoms: C_7  and  C_8
REMARK    4  A    between atoms: C_12  and  C_13
REMARK                            x       y       z     vdW  Elec       q    Type
REMARK                         _______ _______ _______ _____ _____    ______ ____
ROOT
ATOM      1  C   UNL     1      47.882   5.074  15.916  0.00  0.00    +0.000 A 
ATOM      2  C   UNL     1      47.146   4.065  15.295  0.00  0.00    +0.000 A 
ATOM      3  N   UNL     1      46.701   4.110  14.020  0.00  0.00    +0.000 NA
ATOM      4  C   UNL     1      47.019   5.218  13.310  0.00  0.00    +0.000 A 
ATOM      5  C   UNL     1      47.721   6.315  13.808  0.00  0.00    +0.000 A 
ATOM      6  C   UNL     1      48.107   6.231  15.153  0.00  0.00    +0.000 A 
ENDROOT
BRANCH   5   7
ATOM      7  C   UNL     1      48.136   7.449  12.965  0.00  0.00    +0.000 A 
ATOM      8  C   UNL     1      47.374   8.627  12.870  0.00  0.00    +0.000 A 
ATOM      9  C   UNL     1      47.819   9.726  12.127  0.00  0.00    +0.000 A 
ATOM     10  C   UNL     1      49.035   9.660  11.455  0.00  0.00    +0.000 A 
ATOM     11 CL   UNL     1      49.590  11.013  10.549  0.00  0.00    +0.000 Cl
ATOM     12  C   UNL     1      49.807   8.504  11.520  0.00  0.00    +0.000 A 
ATOM     13  C   UNL     1      49.363   7.414  12.270  0.00  0.00    +0.000 A 
ENDBRANCH   5   7
BRANCH   1  14
ATOM     14  C   UNL     1      48.496   4.889  17.298  0.00  0.00    +0.000 C 
ATOM     15  C   UNL     1      48.550   6.135  18.180  0.00  0.00    +0.000 C 
ATOM     16  C   UNL     1      47.573   5.058  18.504  0.00  0.00    +0.000 C 
BRANCH  14  20
ATOM     17  C   UNL     1      51.781   2.124  17.596  0.00  0.00    +0.000 A 
ATOM     18  C   UNL     1      51.972   3.433  18.011  0.00  0.00    +0.000 A 
ATOM     19  C   UNL     1      50.923   4.350  17.899  0.00  0.00    +0.000 A 
ATOM     20  C   UNL     1      49.692   3.946  17.376  0.00  0.00    +0.000 A 
ATOM     21  N   UNL     1      49.516   2.663  16.952  0.00  0.00    +0.000 NA
ATOM     22  C   UNL     1      50.542   1.793  17.073  0.00  0.00    +0.000 A 
BRANCH  17  24
ATOM     23  N   UNL     1      53.629   0.317  17.801  0.00  0.00    +0.000 NA
ATOM     24  C   UNL     1      52.803   1.125  17.716  0.00  0.00    +0.000 C 
ENDBRANCH  17  24
ENDBRANCH  14  20
ENDBRANCH   1  14
TORSDOF 4
ENDMDL
