MODEL 1
REMARK VINA RESULT:    -7.506      0.000      0.000
REMARK INTER + INTRA:         -11.863
REMARK INTER:                 -10.578
REMARK INTRA:                  -1.285
REMARK UNBOUND:                -1.285
REMARK  Name = 
REMARK  9 active torsions:
REMARK  status: ('A' for Active; 'I' for Inactive)
REMARK    1  A    between atoms: C_1  and  O_2
REMARK    2  A    between atoms: O_2  and  C_3
REMARK    3  A    between atoms: C_8  and  C_9
REMARK    4  A    between atoms: N_11  and  C_12
REMARK    5  A    between atoms: C_12  and  C_13
REMARK    6  A    between atoms: C_12  and  C_14
REMARK    7  A    between atoms: C_17  and  C_18
REMARK    8  A    between atoms: C_18  and  N_19
REMARK    9  A    between atoms: C_20  and  C_22
REMARK                            x       y       z     vdW  Elec       q    Type
REMARK                         _______ _______ _______ _____ _____    ______ ____
ROOT
ATOM      1  C   UNL     1      50.288   7.439  15.276  0.00  0.00    +0.000 A 
ATOM      2  C   UNL     1      50.567   8.223  14.146  0.00  0.00    +0.000 A 
ATOM      3  C   UNL     1      49.628   8.359  13.117  0.00  0.00    +0.000 A 
ATOM      4  C   UNL     1      48.381   7.726  13.196  0.00  0.00    +0.000 A 
ATOM      5  C   UNL     1      48.105   6.930  14.315  0.00  0.00    +0.000 A 
ATOM      6  C   UNL     1      49.042   6.793  15.344  0.00  0.00    +0.000 A 
ENDROOT
BRANCH   1   7
ATOM      7  C   UNL     1      51.320   7.296  16.389  0.00  0.00    +0.000 C 
ATOM      8  C   UNL     1      52.567   8.132  16.079  0.00  0.00    +0.000 C 
BRANCH   7  11
ATOM      9  C   UNL     1      51.065   5.109  17.571  0.00  0.00    +0.000 C 
ATOM     10  O   UNL     1      50.291   5.558  18.411  0.00  0.00    +0.000 OA
ATOM     11  N   UNL     1      51.634   5.889  16.593  0.00  0.00    +0.000 N 
ATOM     12  H   UNL     1      52.145   5.419  15.851  0.00  0.00    +0.000 HD
BRANCH   9  18
ATOM     13  C   UNL     1      50.555   2.631  17.146  0.00  0.00    +0.000 A 
ATOM     14  N   UNL     1      50.859   1.311  17.243  0.00  0.00    +0.000 NA
ATOM     15  C   UNL     1      52.057   0.987  17.771  0.00  0.00    +0.000 A 
ATOM     16  C   UNL     1      52.990   1.921  18.178  0.00  0.00    +0.000 A 
ATOM     17  C   UNL     1      52.653   3.270  18.081  0.00  0.00    +0.000 A 
ATOM     18  C   UNL     1      51.398   3.652  17.584  0.00  0.00    +0.000 A 
BRANCH  13  20
ATOM     19  C   UNL     1      48.266   2.846  17.568  0.00  0.00    +0.000 C 
ATOM     20  O   UNL     1      49.322   2.955  16.615  0.00  0.00    +0.000 OA
ENDBRANCH  13  20
ENDBRANCH   9  18
ENDBRANCH   7  11
ENDBRANCH   1   7
BRANCH   4  21
ATOM     21  C   UNL     1      47.374   7.854  12.080  0.00  0.00    +0.000 C 
BRANCH  21  22
ATOM     22  N   UNL     1      46.710   6.599  11.837  0.00  0.00    +0.000 N 
ATOM     23  C   UNL     1      45.355   6.521  11.654  0.00  0.00    +0.000 C 
ATOM     24  O   UNL     1      44.634   7.517  11.663  0.00  0.00    +0.000 OA
ATOM     25  H   UNL     1      47.235   5.756  12.049  0.00  0.00    +0.000 HD
BRANCH  23  26
ATOM     26  C   UNL     1      44.811   5.184  11.378  0.00  0.00    +0.000 A 
ATOM     27  C   UNL     1      44.059   4.529  12.344  0.00  0.00    +0.000 A 
ATOM     28  S   UNL     1      43.444   3.024  11.828  0.00  0.00    +0.000 S 
ATOM     29  C   UNL     1      44.212   3.166  10.315  0.00  0.00    +0.000 A 
ATOM     30  N   UNL     1      44.104   2.185   9.381  0.00  0.00    +0.000 NA
ATOM     31  C   UNL     1      44.763   2.411   8.295  0.00  0.00    +0.000 A 
ATOM     32  N   UNL     1      45.514   3.531   8.053  0.00  0.00    +0.000 N 
ATOM     33  C   UNL     1      45.627   4.562   8.956  0.00  0.00    +0.000 A 
ATOM     34  O   UNL     1      46.278   5.568   8.693  0.00  0.00    +0.000 OA
ATOM     35  C   UNL     1      44.913   4.355  10.200  0.00  0.00    +0.000 A 
ATOM     36  H   UNL     1      45.999   3.647   7.174  0.00  0.00    +0.000 HD
ENDBRANCH  23  26
ENDBRANCH  21  22
ENDBRANCH   4  21
TORSDOF 7
ENDMDL
MODEL 2
REMARK VINA RESULT:    -7.235      3.548      9.273
REMARK INTER + INTRA:         -11.481
REMARK INTER:                 -10.575
REMARK INTRA:                  -0.906
REMARK UNBOUND:                -1.285
REMARK  Name = 
REMARK  9 active torsions:
REMARK  status: ('A' for Active; 'I' for Inactive)
REMARK    1  A    between atoms: C_1  and  O_2
REMARK    2  A    between atoms: O_2  and  C_3
REMARK    3  A    between atoms: C_8  and  C_9
REMARK    4  A    between atoms: N_11  and  C_12
REMARK    5  A    between atoms: C_12  and  C_13
REMARK    6  A    between atoms: C_12  and  C_14
REMARK    7  A    between atoms: C_17  and  C_18
REMARK    8  A    between atoms: C_18  and  N_19
REMARK    9  A    between atoms: C_20  and  C_22
REMARK                            x       y       z     vdW  Elec       q    Type
REMARK                         _______ _______ _______ _____ _____    ______ ____
ROOT
ATOM      1  C   UNL     1      45.228   5.316  11.461  0.00  0.00    +0.000 A 
ATOM      2  C   UNL     1      46.371   5.324  12.274  0.00  0.00    +0.000 A 
ATOM      3  C   UNL     1      46.825   6.510  12.863  0.00  0.00    +0.000 A 
ATOM      4  C   UNL     1      46.141   7.716  12.664  0.00  0.00    +0.000 A 
ATOM      5  C   UNL     1      45.009   7.715  11.839  0.00  0.00    +0.000 A 
ATOM      6  C   UNL     1      44.555   6.530  11.251  0.00  0.00    +0.000 A 
ENDROOT
BRANCH   1   7
ATOM      7  C   UNL     1      44.746   4.018  10.822  0.00  0.00    +0.000 C 
ATOM      8  C   UNL     1      44.709   2.888  11.858  0.00  0.00    +0.000 C 
BRANCH   7  11
ATOM      9  C   UNL     1      45.336   2.643   8.820  0.00  0.00    +0.000 C 
ATOM     10  O   UNL     1      44.424   1.841   8.998  0.00  0.00    +0.000 OA
ATOM     11  N   UNL     1      45.581   3.691   9.676  0.00  0.00    +0.000 N 
ATOM     12  H   UNL     1      46.256   4.391   9.383  0.00  0.00    +0.000 HD
BRANCH   9  18
ATOM     13  C   UNL     1      46.976   1.376   7.309  0.00  0.00    +0.000 A 
ATOM     14  N   UNL     1      47.824   1.310   6.250  0.00  0.00    +0.000 NA
ATOM     15  C   UNL     1      47.901   2.391   5.448  0.00  0.00    +0.000 A 
ATOM     16  C   UNL     1      47.144   3.532   5.631  0.00  0.00    +0.000 A 
ATOM     17  C   UNL     1      46.289   3.584   6.731  0.00  0.00    +0.000 A 
ATOM     18  C   UNL     1      46.214   2.502   7.619  0.00  0.00    +0.000 A 
BRANCH  13  20
ATOM     19  C   UNL     1      46.475  -0.903   7.448  0.00  0.00    +0.000 C 
ATOM     20  O   UNL     1      46.911   0.268   8.133  0.00  0.00    +0.000 OA
ENDBRANCH  13  20
ENDBRANCH   9  18
ENDBRANCH   7  11
ENDBRANCH   1   7
BRANCH   4  21
ATOM     21  C   UNL     1      46.639   9.000  13.280  0.00  0.00    +0.000 C 
BRANCH  21  22
ATOM     22  N   UNL     1      47.111   8.779  14.624  0.00  0.00    +0.000 N 
ATOM     23  C   UNL     1      48.365   9.159  15.021  0.00  0.00    +0.000 C 
ATOM     24  O   UNL     1      49.147   9.731  14.265  0.00  0.00    +0.000 OA
ATOM     25  H   UNL     1      46.587   8.118  15.189  0.00  0.00    +0.000 HD
BRANCH  23  26
ATOM     26  C   UNL     1      48.706   8.908  16.429  0.00  0.00    +0.000 A 
ATOM     27  C   UNL     1      48.841   9.972  17.309  0.00  0.00    +0.000 A 
ATOM     28  S   UNL     1      49.162   9.495  18.916  0.00  0.00    +0.000 S 
ATOM     29  C   UNL     1      49.193   7.849  18.479  0.00  0.00    +0.000 A 
ATOM     30  N   UNL     1      49.441   6.885  19.404  0.00  0.00    +0.000 NA
ATOM     31  C   UNL     1      49.465   5.686  18.927  0.00  0.00    +0.000 A 
ATOM     32  N   UNL     1      49.257   5.361  17.613  0.00  0.00    +0.000 N 
ATOM     33  C   UNL     1      48.973   6.300  16.649  0.00  0.00    +0.000 A 
ATOM     34  O   UNL     1      48.755   5.972  15.487  0.00  0.00    +0.000 OA
ATOM     35  C   UNL     1      48.943   7.667  17.129  0.00  0.00    +0.000 A 
ATOM     36  H   UNL     1      49.283   4.398  17.309  0.00  0.00    +0.000 HD
ENDBRANCH  23  26
ENDBRANCH  21  22
ENDBRANCH   4  21
TORSDOF 7
ENDMDL
MODEL 3
REMARK VINA RESULT:    -7.187      3.275      9.376
REMARK INTER + INTRA:         -11.413
REMARK INTER:                 -10.727
REMARK INTRA:                  -0.685
REMARK UNBOUND:                -1.285
REMARK  Name = 
REMARK  9 active torsions:
REMARK  status: ('A' for Active; 'I' for Inactive)
REMARK    1  A    between atoms: C_1  and  O_2
REMARK    2  A    between atoms: O_2  and  C_3
REMARK    3  A    between atoms: C_8  and  C_9
REMARK    4  A    between atoms: N_11  and  C_12
REMARK    5  A    between atoms: C_12  and  C_13
REMARK    6  A    between atoms: C_12  and  C_14
REMARK    7  A    between atoms: C_17  and  C_18
REMARK    8  A    between atoms: C_18  and  N_19
REMARK    9  A    between atoms: C_20  and  C_22
REMARK                            x       y       z     vdW  Elec       q    Type
REMARK                         _______ _______ _______ _____ _____    ______ ____
ROOT
ATOM      1  C   UNL     1      44.991   5.919  11.417  0.00  0.00    +0.000 A 
ATOM      2  C   UNL     1      45.732   5.054  12.237  0.00  0.00    +0.000 A 
ATOM      3  C   UNL     1      46.743   5.547  13.071  0.00  0.00    +0.000 A 
ATOM      4  C   UNL     1      47.030   6.917  13.117  0.00  0.00    +0.000 A 
ATOM      5  C   UNL     1      46.304   7.781  12.288  0.00  0.00    +0.000 A 
ATOM      6  C   UNL     1      45.294   7.290  11.454  0.00  0.00    +0.000 A 
ENDROOT
BRANCH   1   7
ATOM      7  C   UNL     1      43.896   5.370  10.509  0.00  0.00    +0.000 C 
ATOM      8  C   UNL     1      42.746   4.790  11.341  0.00  0.00    +0.000 C 
BRANCH   7  11
ATOM      9  C   UNL     1      45.543   4.639   8.778  0.00  0.00    +0.000 C 
ATOM     10  O   UNL     1      46.084   5.738   8.709  0.00  0.00    +0.000 OA
ATOM     11  N   UNL     1      44.459   4.394   9.588  0.00  0.00    +0.000 N 
ATOM     12  H   UNL     1      44.162   3.430   9.700  0.00  0.00    +0.000 HD
BRANCH   9  18
ATOM     13  C   UNL     1      46.038   2.159   8.345  0.00  0.00    +0.000 A 
ATOM     14  N   UNL     1      46.606   1.159   7.624  0.00  0.00    +0.000 NA
ATOM     15  C   UNL     1      47.218   1.495   6.470  0.00  0.00    +0.000 A 
ATOM     16  C   UNL     1      47.264   2.786   5.979  0.00  0.00    +0.000 A 
ATOM     17  C   UNL     1      46.685   3.799   6.740  0.00  0.00    +0.000 A 
ATOM     18  C   UNL     1      46.081   3.502   7.971  0.00  0.00    +0.000 A 
BRANCH  13  20
ATOM     19  C   UNL     1      44.095   1.324   9.341  0.00  0.00    +0.000 C 
ATOM     20  O   UNL     1      45.423   1.808   9.531  0.00  0.00    +0.000 OA
ENDBRANCH  13  20
ENDBRANCH   9  18
ENDBRANCH   7  11
ENDBRANCH   1   7
BRANCH   4  21
ATOM     21  C   UNL     1      48.131   7.448  14.000  0.00  0.00    +0.000 C 
BRANCH  21  22
ATOM     22  N   UNL     1      48.008   6.940  15.343  0.00  0.00    +0.000 N 
ATOM     23  C   UNL     1      49.088   6.474  16.042  0.00  0.00    +0.000 C 
ATOM     24  O   UNL     1      50.225   6.484  15.576  0.00  0.00    +0.000 OA
ATOM     25  H   UNL     1      47.071   6.710  15.660  0.00  0.00    +0.000 HD
BRANCH  23  26
ATOM     26  C   UNL     1      48.828   6.018  17.416  0.00  0.00    +0.000 A 
ATOM     27  C   UNL     1      49.071   4.697  17.764  0.00  0.00    +0.000 A 
ATOM     28  S   UNL     1      48.788   4.361  19.413  0.00  0.00    +0.000 S 
ATOM     29  C   UNL     1      48.271   5.957  19.706  0.00  0.00    +0.000 A 
ATOM     30  N   UNL     1      47.861   6.344  20.943  0.00  0.00    +0.000 NA
ATOM     31  C   UNL     1      47.468   7.570  21.012  0.00  0.00    +0.000 A 
ATOM     32  N   UNL     1      47.454   8.449  19.962  0.00  0.00    +0.000 N 
ATOM     33  C   UNL     1      47.887   8.111  18.701  0.00  0.00    +0.000 A 
ATOM     34  O   UNL     1      47.897   8.934  17.791  0.00  0.00    +0.000 OA
ATOM     35  C   UNL     1      48.332   6.739  18.565  0.00  0.00    +0.000 A 
ATOM     36  H   UNL     1      47.139   9.401  20.089  0.00  0.00    +0.000 HD
ENDBRANCH  23  26
ENDBRANCH  21  22
ENDBRANCH   4  21
TORSDOF 7
ENDMDL
MODEL 4
REMARK VINA RESULT:    -7.120      4.994      6.439
REMARK INTER + INTRA:         -11.318
REMARK INTER:                  -9.867
REMARK INTRA:                  -1.451
REMARK UNBOUND:                -1.285
REMARK  Name = 
REMARK  9 active torsions:
REMARK  status: ('A' for Active; 'I' for Inactive)
REMARK    1  A    between atoms: C_1  and  O_2
REMARK    2  A    between atoms: O_2  and  C_3
REMARK    3  A    between atoms: C_8  and  C_9
REMARK    4  A    between atoms: N_11  and  C_12
REMARK    5  A    between atoms: C_12  and  C_13
REMARK    6  A    between atoms: C_12  and  C_14
REMARK    7  A    between atoms: C_17  and  C_18
REMARK    8  A    between atoms: C_18  and  N_19
REMARK    9  A    between atoms: C_20  and  C_22
REMARK                            x       y       z     vdW  Elec       q    Type
REMARK                         _______ _______ _______ _____ _____    ______ ____
ROOT
ATOM      1  C   UNL     1      50.463   8.851  11.283  0.00  0.00    +0.000 A 
ATOM      2  C   UNL     1      50.013   7.553  11.565  0.00  0.00    +0.000 A 
ATOM      3  C   UNL     1      48.714   7.329  12.038  0.00  0.00    +0.000 A 
ATOM      4  C   UNL     1      47.828   8.397  12.228  0.00  0.00    +0.000 A 
ATOM      5  C   UNL     1      48.279   9.697  11.963  0.00  0.00    +0.000 A 
ATOM      6  C   UNL     1      49.577   9.920  11.491  0.00  0.00    +0.000 A 
ENDROOT
BRANCH   1   7
ATOM      7  C   UNL     1      51.881   9.082  10.772  0.00  0.00    +0.000 C 
ATOM      8  C   UNL     1      52.043  10.517  10.259  0.00  0.00    +0.000 C 
BRANCH   7  11
ATOM      9  C   UNL     1      53.478   7.617   9.526  0.00  0.00    +0.000 C 
ATOM     10  O   UNL     1      54.464   8.051  10.113  0.00  0.00    +0.000 OA
ATOM     11  N   UNL     1      52.208   8.091   9.757  0.00  0.00    +0.000 N 
ATOM     12  H   UNL     1      51.432   7.583   9.342  0.00  0.00    +0.000 HD
BRANCH   9  18
ATOM     13  C   UNL     1      53.012   6.455   7.287  0.00  0.00    +0.000 A 
ATOM     14  N   UNL     1      53.123   5.401   6.438  0.00  0.00    +0.000 NA
ATOM     15  C   UNL     1      53.910   4.375   6.821  0.00  0.00    +0.000 A 
ATOM     16  C   UNL     1      54.625   4.362   8.003  0.00  0.00    +0.000 A 
ATOM     17  C   UNL     1      54.489   5.448   8.865  0.00  0.00    +0.000 A 
ATOM     18  C   UNL     1      53.642   6.515   8.530  0.00  0.00    +0.000 A 
BRANCH  13  20
ATOM     19  C   UNL     1      52.858   8.422   6.034  0.00  0.00    +0.000 C 
ATOM     20  O   UNL     1      52.195   7.497   6.893  0.00  0.00    +0.000 OA
ENDBRANCH  13  20
ENDBRANCH   9  18
ENDBRANCH   7  11
ENDBRANCH   1   7
BRANCH   4  21
ATOM     21  C   UNL     1      46.435   8.162  12.756  0.00  0.00    +0.000 C 
BRANCH  21  22
ATOM     22  N   UNL     1      45.984   6.828  12.451  0.00  0.00    +0.000 N 
ATOM     23  C   UNL     1      44.874   6.598  11.685  0.00  0.00    +0.000 C 
ATOM     24  O   UNL     1      44.214   7.512  11.195  0.00  0.00    +0.000 OA
ATOM     25  H   UNL     1      46.364   6.077  13.019  0.00  0.00    +0.000 HD
BRANCH  23  26
ATOM     26  C   UNL     1      44.546   5.189  11.420  0.00  0.00    +0.000 A 
ATOM     27  C   UNL     1      43.821   4.460  12.352  0.00  0.00    +0.000 A 
ATOM     28  S   UNL     1      43.465   2.869  11.850  0.00  0.00    +0.000 S 
ATOM     29  C   UNL     1      44.321   3.079  10.393  0.00  0.00    +0.000 A 
ATOM     30  N   UNL     1      44.425   2.067   9.491  0.00  0.00    +0.000 NA
ATOM     31  C   UNL     1      45.127   2.356   8.448  0.00  0.00    +0.000 A 
ATOM     32  N   UNL     1      45.730   3.565   8.219  0.00  0.00    +0.000 N 
ATOM     33  C   UNL     1      45.627   4.625   9.089  0.00  0.00    +0.000 A 
ATOM     34  O   UNL     1      46.148   5.707   8.837  0.00  0.00    +0.000 OA
ATOM     35  C   UNL     1      44.855   4.352  10.284  0.00  0.00    +0.000 A 
ATOM     36  H   UNL     1      46.261   3.726   7.375  0.00  0.00    +0.000 HD
ENDBRANCH  23  26
ENDBRANCH  21  22
ENDBRANCH   4  21
TORSDOF 7
ENDMDL
MODEL 5
REMARK VINA RESULT:    -6.918      3.662      9.402
REMARK INTER + INTRA:         -11.033
REMARK INTER:                  -9.764
REMARK INTRA:                  -1.269
REMARK UNBOUND:                -1.285
REMARK  Name = 
REMARK  9 active torsions:
REMARK  status: ('A' for Active; 'I' for Inactive)
REMARK    1  A    between atoms: C_1  and  O_2
REMARK    2  A    between atoms: O_2  and  C_3
REMARK    3  A    between atoms: C_8  and  C_9
REMARK    4  A    between atoms: N_11  and  C_12
REMARK    5  A    between atoms: C_12  and  C_13
REMARK    6  A    between atoms: C_12  and  C_14
REMARK    7  A    between atoms: C_17  and  C_18
REMARK    8  A    between atoms: C_18  and  N_19
REMARK    9  A    between atoms: C_20  and  C_22
REMARK                            x       y       z     vdW  Elec       q    Type
REMARK                         _______ _______ _______ _____ _____    ______ ____
ROOT
ATOM      1  C   UNL     1      45.362   5.065  11.942  0.00  0.00    +0.000 A 
ATOM      2  C   UNL     1      45.412   3.754  12.438  0.00  0.00    +0.000 A 
ATOM      3  C   UNL     1      46.154   3.448  13.586  0.00  0.00    +0.000 A 
ATOM      4  C   UNL     1      46.853   4.447  14.274  0.00  0.00    +0.000 A 
ATOM      5  C   UNL     1      46.819   5.754  13.773  0.00  0.00    +0.000 A 
ATOM      6  C   UNL     1      46.078   6.061  12.627  0.00  0.00    +0.000 A 
ENDROOT
BRANCH   1   7
ATOM      7  C   UNL     1      44.554   5.385  10.690  0.00  0.00    +0.000 C 
ATOM      8  C   UNL     1      43.052   5.362  10.996  0.00  0.00    +0.000 C 
BRANCH   7  11
ATOM      9  C   UNL     1      45.952   4.676   8.744  0.00  0.00    +0.000 C 
ATOM     10  O   UNL     1      46.622   5.705   8.743  0.00  0.00    +0.000 OA
ATOM     11  N   UNL     1      44.915   4.466   9.620  0.00  0.00    +0.000 N 
ATOM     12  H   UNL     1      44.507   3.536   9.655  0.00  0.00    +0.000 HD
BRANCH   9  18
ATOM     13  C   UNL     1      46.169   2.221   8.031  0.00  0.00    +0.000 A 
ATOM     14  N   UNL     1      46.546   1.257   7.152  0.00  0.00    +0.000 NA
ATOM     15  C   UNL     1      47.024   1.660   5.956  0.00  0.00    +0.000 A 
ATOM     16  C   UNL     1      47.114   2.986   5.578  0.00  0.00    +0.000 A 
ATOM     17  C   UNL     1      46.733   3.959   6.499  0.00  0.00    +0.000 A 
ATOM     18  C   UNL     1      46.277   3.588   7.773  0.00  0.00    +0.000 A 
BRANCH  13  20
ATOM     19  C   UNL     1      44.338   1.356   9.199  0.00  0.00    +0.000 C 
ATOM     20  O   UNL     1      45.691   1.802   9.258  0.00  0.00    +0.000 OA
ENDBRANCH  13  20
ENDBRANCH   9  18
ENDBRANCH   7  11
ENDBRANCH   1   7
BRANCH   4  21
ATOM     21  C   UNL     1      47.669   4.117  15.499  0.00  0.00    +0.000 C 
BRANCH  21  22
ATOM     22  N   UNL     1      47.566   5.162  16.486  0.00  0.00    +0.000 N 
ATOM     23  C   UNL     1      48.606   6.013  16.750  0.00  0.00    +0.000 C 
ATOM     24  O   UNL     1      49.675   5.949  16.145  0.00  0.00    +0.000 OA
ATOM     25  H   UNL     1      46.798   5.093  17.146  0.00  0.00    +0.000 HD
BRANCH  23  26
ATOM     26  C   UNL     1      48.355   7.057  17.753  0.00  0.00    +0.000 A 
ATOM     27  C   UNL     1      48.197   6.710  19.088  0.00  0.00    +0.000 A 
ATOM     28  S   UNL     1      47.991   8.051  20.124  0.00  0.00    +0.000 S 
ATOM     29  C   UNL     1      48.043   9.139  18.816  0.00  0.00    +0.000 A 
ATOM     30  N   UNL     1      47.906  10.477  19.013  0.00  0.00    +0.000 NA
ATOM     31  C   UNL     1      47.934  11.178  17.931  0.00  0.00    +0.000 A 
ATOM     32  N   UNL     1      48.095  10.668  16.670  0.00  0.00    +0.000 N 
ATOM     33  C   UNL     1      48.267   9.325  16.426  0.00  0.00    +0.000 A 
ATOM     34  O   UNL     1      48.446   8.905  15.287  0.00  0.00    +0.000 OA
ATOM     35  C   UNL     1      48.235   8.489  17.608  0.00  0.00    +0.000 A 
ATOM     36  H   UNL     1      48.115  11.278  15.864  0.00  0.00    +0.000 HD
ENDBRANCH  23  26
ENDBRANCH  21  22
ENDBRANCH   4  21
TORSDOF 7
ENDMDL
MODEL 6
REMARK VINA RESULT:    -6.758      2.880      8.561
REMARK INTER + INTRA:         -10.808
REMARK INTER:                  -9.123
REMARK INTRA:                  -1.684
REMARK UNBOUND:                -1.285
REMARK  Name = 
REMARK  9 active torsions:
REMARK  status: ('A' for Active; 'I' for Inactive)
REMARK    1  A    between atoms: C_1  and  O_2
REMARK    2  A    between atoms: O_2  and  C_3
REMARK    3  A    between atoms: C_8  and  C_9
REMARK    4  A    between atoms: N_11  and  C_12
REMARK    5  A    between atoms: C_12  and  C_13
REMARK    6  A    between atoms: C_12  and  C_14
REMARK    7  A    between atoms: C_17  and  C_18
REMARK    8  A    between atoms: C_18  and  N_19
REMARK    9  A    between atoms: C_20  and  C_22
REMARK                            x       y       z     vdW  Elec       q    Type
REMARK                         _______ _______ _______ _____ _____    ______ ____
ROOT
ATOM      1  C   UNL     1      47.936   8.087  13.901  0.00  0.00    +0.000 A 
ATOM      2  C   UNL     1      48.384   6.907  14.513  0.00  0.00    +0.000 A 
ATOM      3  C   UNL     1      49.044   6.944  15.747  0.00  0.00    +0.000 A 
ATOM      4  C   UNL     1      49.262   8.160  16.407  0.00  0.00    +0.000 A 
ATOM      5  C   UNL     1      48.832   9.342  15.791  0.00  0.00    +0.000 A 
ATOM      6  C   UNL     1      48.172   9.306  14.558  0.00  0.00    +0.000 A 
ENDROOT
BRANCH   1   7
ATOM      7  C   UNL     1      47.222   8.035  12.555  0.00  0.00    +0.000 C 
ATOM      8  C   UNL     1      46.571   9.386  12.236  0.00  0.00    +0.000 C 
BRANCH   7  11
ATOM      9  C   UNL     1      46.048   6.110  11.475  0.00  0.00    +0.000 C 
ATOM     10  O   UNL     1      46.607   6.269  10.393  0.00  0.00    +0.000 OA
ATOM     11  N   UNL     1      46.259   6.942  12.548  0.00  0.00    +0.000 N 
ATOM     12  H   UNL     1      45.876   6.661  13.446  0.00  0.00    +0.000 HD
BRANCH   9  18
ATOM     13  C   UNL     1      45.034   4.159  12.796  0.00  0.00    +0.000 A 
ATOM     14  N   UNL     1      44.226   3.073  12.898  0.00  0.00    +0.000 NA
ATOM     15  C   UNL     1      43.442   2.781  11.841  0.00  0.00    +0.000 A 
ATOM     16  C   UNL     1      43.398   3.544  10.689  0.00  0.00    +0.000 A 
ATOM     17  C   UNL     1      44.244   4.647  10.600  0.00  0.00    +0.000 A 
ATOM     18  C   UNL     1      45.113   4.959  11.656  0.00  0.00    +0.000 A 
BRANCH  13  20
ATOM     19  C   UNL     1      46.983   3.591  13.956  0.00  0.00    +0.000 C 
ATOM     20  O   UNL     1      45.844   4.446  13.879  0.00  0.00    +0.000 OA
ENDBRANCH  13  20
ENDBRANCH   9  18
ENDBRANCH   7  11
ENDBRANCH   1   7
BRANCH   4  21
ATOM     21  C   UNL     1      49.991   8.205  17.727  0.00  0.00    +0.000 C 
BRANCH  21  22
ATOM     22  N   UNL     1      50.858   7.065  17.878  0.00  0.00    +0.000 N 
ATOM     23  C   UNL     1      50.598   6.074  18.786  0.00  0.00    +0.000 C 
ATOM     24  O   UNL     1      49.600   6.088  19.504  0.00  0.00    +0.000 OA
ATOM     25  H   UNL     1      51.786   7.140  17.473  0.00  0.00    +0.000 HD
BRANCH  23  26
ATOM     26  C   UNL     1      51.544   4.949  18.811  0.00  0.00    +0.000 A 
ATOM     27  C   UNL     1      52.754   5.077  19.480  0.00  0.00    +0.000 A 
ATOM     28  S   UNL     1      53.693   3.652  19.474  0.00  0.00    +0.000 S 
ATOM     29  C   UNL     1      52.543   2.833  18.523  0.00  0.00    +0.000 A 
ATOM     30  N   UNL     1      52.746   1.546  18.135  0.00  0.00    +0.000 NA
ATOM     31  C   UNL     1      51.809   1.061  17.393  0.00  0.00    +0.000 A 
ATOM     32  N   UNL     1      50.683   1.741  17.009  0.00  0.00    +0.000 N 
ATOM     33  C   UNL     1      50.422   3.032  17.402  0.00  0.00    +0.000 A 
ATOM     34  O   UNL     1      49.385   3.600  17.071  0.00  0.00    +0.000 OA
ATOM     35  C   UNL     1      51.449   3.630  18.231  0.00  0.00    +0.000 A 
ATOM     36  H   UNL     1      49.983   1.296  16.431  0.00  0.00    +0.000 HD
ENDBRANCH  23  26
ENDBRANCH  21  22
ENDBRANCH   4  21
TORSDOF 7
ENDMDL
MODEL 7
REMARK VINA RESULT:    -6.511      2.598      3.243
REMARK INTER + INTRA:         -10.461
REMARK INTER:                  -9.103
REMARK INTRA:                  -1.357
REMARK UNBOUND:                -1.285
REMARK  Name = 
REMARK  9 active torsions:
REMARK  status: ('A' for Active; 'I' for Inactive)
REMARK    1  A    between atoms: C_1  and  O_2
REMARK    2  A    between atoms: O_2  and  C_3
REMARK    3  A    between atoms: C_8  and  C_9
REMARK    4  A    between atoms: N_11  and  C_12
REMARK    5  A    between atoms: C_12  and  C_13
REMARK    6  A    between atoms: C_12  and  C_14
REMARK    7  A    between atoms: C_17  and  C_18
REMARK    8  A    between atoms: C_18  and  N_19
REMARK    9  A    between atoms: C_20  and  C_22
REMARK                            x       y       z     vdW  Elec       q    Type
REMARK                         _______ _______ _______ _____ _____    ______ ____
ROOT
ATOM      1  C   UNL     1      47.943   7.996  13.957  0.00  0.00    +0.000 A 
ATOM      2  C   UNL     1      46.887   8.869  13.652  0.00  0.00    +0.000 A 
ATOM      3  C   UNL     1      45.915   8.517  12.707  0.00  0.00    +0.000 A 
ATOM      4  C   UNL     1      45.965   7.279  12.054  0.00  0.00    +0.000 A 
ATOM      5  C   UNL     1      47.027   6.412  12.344  0.00  0.00    +0.000 A 
ATOM      6  C   UNL     1      47.999   6.763  13.287  0.00  0.00    +0.000 A 
ENDROOT
BRANCH   1   7
ATOM      7  C   UNL     1      48.997   8.392  14.984  0.00  0.00    +0.000 C 
ATOM      8  C   UNL     1      50.334   8.693  14.297  0.00  0.00    +0.000 C 
BRANCH   7  11
ATOM      9  C   UNL     1      48.665   7.479  17.287  0.00  0.00    +0.000 C 
ATOM     10  O   UNL     1      48.183   8.521  17.721  0.00  0.00    +0.000 OA
ATOM     11  N   UNL     1      49.118   7.351  15.995  0.00  0.00    +0.000 N 
ATOM     12  H   UNL     1      49.365   6.421  15.671  0.00  0.00    +0.000 HD
BRANCH   9  18
ATOM     13  C   UNL     1      48.677   4.956  17.754  0.00  0.00    +0.000 A 
ATOM     14  N   UNL     1      48.682   3.894  18.600  0.00  0.00    +0.000 NA
ATOM     15  C   UNL     1      48.795   4.152  19.919  0.00  0.00    +0.000 A 
ATOM     16  C   UNL     1      48.938   5.424  20.439  0.00  0.00    +0.000 A 
ATOM     17  C   UNL     1      48.918   6.501  19.554  0.00  0.00    +0.000 A 
ATOM     18  C   UNL     1      48.752   6.283  18.179  0.00  0.00    +0.000 A 
BRANCH  13  20
ATOM     19  C   UNL     1      47.283   4.118  16.075  0.00  0.00    +0.000 C 
ATOM     20  O   UNL     1      48.549   4.686  16.405  0.00  0.00    +0.000 OA
ENDBRANCH  13  20
ENDBRANCH   9  18
ENDBRANCH   7  11
ENDBRANCH   1   7
BRANCH   4  21
ATOM     21  C   UNL     1      44.931   6.905  11.022  0.00  0.00    +0.000 C 
BRANCH  21  22
ATOM     22  N   UNL     1      45.259   5.652  10.392  0.00  0.00    +0.000 N 
ATOM     23  C   UNL     1      44.304   4.714  10.107  0.00  0.00    +0.000 C 
ATOM     24  O   UNL     1      43.112   4.896  10.349  0.00  0.00    +0.000 OA
ATOM     25  H   UNL     1      46.238   5.383  10.392  0.00  0.00    +0.000 HD
BRANCH  23  26
ATOM     26  C   UNL     1      44.769   3.494   9.430  0.00  0.00    +0.000 A 
ATOM     27  C   UNL     1      44.187   2.271   9.731  0.00  0.00    +0.000 A 
ATOM     28  S   UNL     1      44.794   0.977   8.798  0.00  0.00    +0.000 S 
ATOM     29  C   UNL     1      45.902   1.997   8.004  0.00  0.00    +0.000 A 
ATOM     30  N   UNL     1      46.759   1.506   7.070  0.00  0.00    +0.000 NA
ATOM     31  C   UNL     1      47.562   2.385   6.573  0.00  0.00    +0.000 A 
ATOM     32  N   UNL     1      47.583   3.711   6.916  0.00  0.00    +0.000 N 
ATOM     33  C   UNL     1      46.715   4.257   7.833  0.00  0.00    +0.000 A 
ATOM     34  O   UNL     1      46.735   5.456   8.091  0.00  0.00    +0.000 OA
ATOM     35  C   UNL     1      45.795   3.310   8.431  0.00  0.00    +0.000 A 
ATOM     36  H   UNL     1      48.235   4.348   6.480  0.00  0.00    +0.000 HD
ENDBRANCH  23  26
ENDBRANCH  21  22
ENDBRANCH   4  21
TORSDOF 7
ENDMDL
MODEL 8
REMARK VINA RESULT:    -6.220      3.204      8.512
REMARK INTER + INTRA:         -10.050
REMARK INTER:                  -8.149
REMARK INTRA:                  -1.901
REMARK UNBOUND:                -1.285
REMARK  Name = 
REMARK  9 active torsions:
REMARK  status: ('A' for Active; 'I' for Inactive)
REMARK    1  A    between atoms: C_1  and  O_2
REMARK    2  A    between atoms: O_2  and  C_3
REMARK    3  A    between atoms: C_8  and  C_9
REMARK    4  A    between atoms: N_11  and  C_12
REMARK    5  A    between atoms: C_12  and  C_13
REMARK    6  A    between atoms: C_12  and  C_14
REMARK    7  A    between atoms: C_17  and  C_18
REMARK    8  A    between atoms: C_18  and  N_19
REMARK    9  A    between atoms: C_20  and  C_22
REMARK                            x       y       z     vdW  Elec       q    Type
REMARK                         _______ _______ _______ _____ _____    ______ ____
ROOT
ATOM      1  C   UNL     1      47.186   8.610  12.388  0.00  0.00    +0.000 A 
ATOM      2  C   UNL     1      48.374   8.975  11.737  0.00  0.00    +0.000 A 
ATOM      3  C   UNL     1      49.600   8.951  12.414  0.00  0.00    +0.000 A 
ATOM      4  C   UNL     1      49.671   8.551  13.754  0.00  0.00    +0.000 A 
ATOM      5  C   UNL     1      48.485   8.202  14.412  0.00  0.00    +0.000 A 
ATOM      6  C   UNL     1      47.260   8.225  13.737  0.00  0.00    +0.000 A 
ENDROOT
BRANCH   1   7
ATOM      7  C   UNL     1      45.857   8.644  11.642  0.00  0.00    +0.000 C 
ATOM      8  C   UNL     1      45.000   9.822  12.118  0.00  0.00    +0.000 C 
BRANCH   7  11
ATOM      9  C   UNL     1      45.496   6.235  11.081  0.00  0.00    +0.000 C 
ATOM     10  O   UNL     1      46.347   6.227  10.197  0.00  0.00    +0.000 OA
ATOM     11  N   UNL     1      45.174   7.367  11.792  0.00  0.00    +0.000 N 
ATOM     12  H   UNL     1      44.569   7.260  12.601  0.00  0.00    +0.000 HD
BRANCH   9  18
ATOM     13  C   UNL     1      44.680   4.428  12.710  0.00  0.00    +0.000 A 
ATOM     14  N   UNL     1      44.093   3.234  12.979  0.00  0.00    +0.000 NA
ATOM     15  C   UNL     1      43.560   2.557  11.941  0.00  0.00    +0.000 A 
ATOM     16  C   UNL     1      43.555   3.030  10.643  0.00  0.00    +0.000 A 
ATOM     17  C   UNL     1      44.174   4.252  10.387  0.00  0.00    +0.000 A 
ATOM     18  C   UNL     1      44.784   4.967  11.428  0.00  0.00    +0.000 A 
BRANCH  13  20
ATOM     19  C   UNL     1      46.474   4.553  14.204  0.00  0.00    +0.000 C 
ATOM     20  O   UNL     1      45.233   5.111  13.776  0.00  0.00    +0.000 OA
ENDBRANCH  13  20
ENDBRANCH   9  18
ENDBRANCH   7  11
ENDBRANCH   1   7
BRANCH   4  21
ATOM     21  C   UNL     1      50.987   8.543  14.492  0.00  0.00    +0.000 C 
BRANCH  21  22
ATOM     22  N   UNL     1      50.849   7.932  15.789  0.00  0.00    +0.000 N 
ATOM     23  C   UNL     1      51.787   7.067  16.284  0.00  0.00    +0.000 C 
ATOM     24  O   UNL     1      52.809   6.783  15.663  0.00  0.00    +0.000 OA
ATOM     25  H   UNL     1      49.927   7.965  16.214  0.00  0.00    +0.000 HD
BRANCH  23  26
ATOM     26  C   UNL     1      51.541   6.542  17.635  0.00  0.00    +0.000 A 
ATOM     27  C   UNL     1      52.418   6.848  18.667  0.00  0.00    +0.000 A 
ATOM     28  S   UNL     1      51.938   6.223  20.180  0.00  0.00    +0.000 S 
ATOM     29  C   UNL     1      50.573   5.468  19.498  0.00  0.00    +0.000 A 
ATOM     30  N   UNL     1      49.724   4.733  20.264  0.00  0.00    +0.000 NA
ATOM     31  C   UNL     1      48.752   4.194  19.610  0.00  0.00    +0.000 A 
ATOM     32  N   UNL     1      48.544   4.327  18.263  0.00  0.00    +0.000 N 
ATOM     33  C   UNL     1      49.359   5.085  17.455  0.00  0.00    +0.000 A 
ATOM     34  O   UNL     1      49.123   5.214  16.257  0.00  0.00    +0.000 OA
ATOM     35  C   UNL     1      50.475   5.707  18.138  0.00  0.00    +0.000 A 
ATOM     36  H   UNL     1      47.755   3.882  17.815  0.00  0.00    +0.000 HD
ENDBRANCH  23  26
ENDBRANCH  21  22
ENDBRANCH   4  21
TORSDOF 7
ENDMDL
