MODEL 1
REMARK VINA RESULT:    -7.627      0.000      0.000
REMARK INTER + INTRA:         -13.157
REMARK INTER:                 -12.309
REMARK INTRA:                  -0.848
REMARK UNBOUND:                -0.848
REMARK  Name = 
REMARK  11 active torsions:
REMARK  status: ('A' for Active; 'I' for Inactive)
REMARK    1  A    between atoms: N_1  and  C_2
REMARK    2  A    between atoms: C_2  and  C_3
REMARK    3  A    between atoms: C_3  and  N_4
REMARK    4  A    between atoms: N_4  and  C_5
REMARK    5  A    between atoms: C_5  and  C_6
REMARK    6  A    between atoms: C_9  and  C_10
REMARK    7  A    between atoms: C_10  and  C_11
REMARK    8  A    between atoms: C_11  and  C_12
REMARK    9  A    between atoms: C_15  and  C_16
REMARK   10  A    between atoms: C_16  and  N_17
REMARK   11  A    between atoms: C_18  and  C_20
REMARK                            x       y       z     vdW  Elec       q    Type
REMARK                         _______ _______ _______ _____ _____    ______ ____
ROOT
ATOM      1  C   UNL     1      47.459   5.610  14.548  0.00  0.00    +0.000 A 
ATOM      2  C   UNL     1      48.338   6.118  15.498  0.00  0.00    +0.000 A 
ATOM      3  C   UNL     1      48.622   5.357  16.634  0.00  0.00    +0.000 A 
ATOM      4  C   UNL     1      48.042   4.094  16.781  0.00  0.00    +0.000 A 
ATOM      5  C   UNL     1      47.171   3.673  15.789  0.00  0.00    +0.000 A 
ATOM      6  N   UNL     1      46.882   4.390  14.678  0.00  0.00    +0.000 NA
ENDROOT
BRANCH   1   7
ATOM      7  C   UNL     1      47.172   6.389  13.287  0.00  0.00    +0.000 C 
BRANCH   7   8
ATOM      8  C   UNL     1      45.690   6.352  12.911  0.00  0.00    +0.000 C 
BRANCH   8  12
ATOM      9  C   UNL     1      44.913   3.592   9.776  0.00  0.00    +0.000 A 
ATOM     10  C   UNL     1      45.443   4.837   9.445  0.00  0.00    +0.000 A 
ATOM     11  C   UNL     1      45.705   5.747  10.461  0.00  0.00    +0.000 A 
ATOM     12  C   UNL     1      45.421   5.402  11.780  0.00  0.00    +0.000 A 
ATOM     13  C   UNL     1      44.900   4.135  12.020  0.00  0.00    +0.000 A 
ATOM     14  N   UNL     1      44.637   3.229  11.054  0.00  0.00    +0.000 NA
BRANCH   9  15
ATOM     15  C   UNL     1      44.705   2.548   8.698  0.00  0.00    +0.000 C 
BRANCH  15  16
ATOM     16  N   UNL     1      45.924   1.788   8.362  0.00  0.00    +0.000 NA
ATOM     17  H   UNL     1      46.600   1.924   9.110  0.00  0.00    +0.000 HD
BRANCH  16  18
ATOM     18  C   UNL     1      46.505   2.272   7.098  0.00  0.00    +0.000 C 
BRANCH  18  19
ATOM     19  C   UNL     1      47.969   1.821   6.959  0.00  0.00    +0.000 C 
BRANCH  19  20
ATOM     20  N   UNL     1      48.419   1.912   5.570  0.00  0.00    +0.000 NA
ATOM     21  H   UNL     1      49.438   1.894   5.546  0.00  0.00    +0.000 HD
ATOM     22  H   UNL     1      48.133   2.806   5.175  0.00  0.00    +0.000 HD
ENDBRANCH  19  20
ENDBRANCH  18  19
ENDBRANCH  16  18
ENDBRANCH  15  16
ENDBRANCH   9  15
ENDBRANCH   8  12
ENDBRANCH   7   8
ENDBRANCH   1   7
BRANCH   4  23
ATOM     23  C   UNL     1      48.319   3.234  17.979  0.00  0.00    +0.000 C 
BRANCH  23  24
ATOM     24  N   UNL     1      49.731   2.990  18.132  0.00  0.00    +0.000 N 
ATOM     25  C   UNL     1      50.410   2.174  17.259  0.00  0.00    +0.000 C 
ATOM     26  O   UNL     1      49.877   1.696  16.263  0.00  0.00    +0.000 OA
ATOM     27  H   UNL     1      50.138   3.187  19.039  0.00  0.00    +0.000 HD
BRANCH  25  28
ATOM     28  C   UNL     1      51.834   1.954  17.556  0.00  0.00    +0.000 A 
ATOM     29  C   UNL     1      52.321   0.660  17.681  0.00  0.00    +0.000 A 
ATOM     30  S   UNL     1      53.994   0.595  18.010  0.00  0.00    +0.000 S 
ATOM     31  C   UNL     1      54.114   2.293  18.030  0.00  0.00    +0.000 A 
ATOM     32  N   UNL     1      55.298   2.911  18.285  0.00  0.00    +0.000 NA
ATOM     33  C   UNL     1      55.237   4.201  18.289  0.00  0.00    +0.000 A 
ATOM     34  N   UNL     1      54.100   4.930  18.061  0.00  0.00    +0.000 N 
ATOM     35  C   UNL     1      52.886   4.350  17.774  0.00  0.00    +0.000 A 
ATOM     36  O   UNL     1      51.899   5.031  17.519  0.00  0.00    +0.000 OA
ATOM     37  C   UNL     1      52.898   2.900  17.769  0.00  0.00    +0.000 A 
ATOM     38  H   UNL     1      54.120   5.939  18.064  0.00  0.00    +0.000 HD
ENDBRANCH  25  28
ENDBRANCH  23  24
ENDBRANCH   4  23
TORSDOF 11
ENDMDL
MODEL 2
REMARK VINA RESULT:    -7.067      1.346      2.115
REMARK INTER + INTRA:         -12.254
REMARK INTER:                 -11.211
REMARK INTRA:                  -1.043
REMARK UNBOUND:                -0.848
REMARK  Name = 
REMARK  11 active torsions:
REMARK  status: ('A' for Active; 'I' for Inactive)
REMARK    1  A    between atoms: N_1  and  C_2
REMARK    2  A    between atoms: C_2  and  C_3
REMARK    3  A    between atoms: C_3  and  N_4
REMARK    4  A    between atoms: N_4  and  C_5
REMARK    5  A    between atoms: C_5  and  C_6
REMARK    6  A    between atoms: C_9  and  C_10
REMARK    7  A    between atoms: C_10  and  C_11
REMARK    8  A    between atoms: C_11  and  C_12
REMARK    9  A    between atoms: C_15  and  C_16
REMARK   10  A    between atoms: C_16  and  N_17
REMARK   11  A    between atoms: C_18  and  C_20
REMARK                            x       y       z     vdW  Elec       q    Type
REMARK                         _______ _______ _______ _____ _____    ______ ____
ROOT
ATOM      1  C   UNL     1      47.482   5.919  14.415  0.00  0.00    +0.000 A 
ATOM      2  C   UNL     1      48.496   6.563  15.116  0.00  0.00    +0.000 A 
ATOM      3  C   UNL     1      49.008   5.965  16.269  0.00  0.00    +0.000 A 
ATOM      4  C   UNL     1      48.514   4.723  16.680  0.00  0.00    +0.000 A 
ATOM      5  C   UNL     1      47.498   4.160  15.925  0.00  0.00    +0.000 A 
ATOM      6  N   UNL     1      46.987   4.718  14.802  0.00  0.00    +0.000 NA
ENDROOT
BRANCH   1   7
ATOM      7  C   UNL     1      46.945   6.519  13.138  0.00  0.00    +0.000 C 
BRANCH   7   8
ATOM      8  C   UNL     1      45.483   6.141  12.894  0.00  0.00    +0.000 C 
BRANCH   8  12
ATOM      9  C   UNL     1      45.030   3.582   9.533  0.00  0.00    +0.000 A 
ATOM     10  C   UNL     1      45.344   4.921   9.308  0.00  0.00    +0.000 A 
ATOM     11  C   UNL     1      45.498   5.768  10.398  0.00  0.00    +0.000 A 
ATOM     12  C   UNL     1      45.323   5.264  11.686  0.00  0.00    +0.000 A 
ATOM     13  C   UNL     1      45.019   3.914  11.818  0.00  0.00    +0.000 A 
ATOM     14  N   UNL     1      44.865   3.067  10.777  0.00  0.00    +0.000 NA
BRANCH   9  15
ATOM     15  C   UNL     1      44.948   2.619   8.366  0.00  0.00    +0.000 C 
BRANCH  15  16
ATOM     16  N   UNL     1      46.019   2.799   7.369  0.00  0.00    +0.000 NA
ATOM     17  H   UNL     1      45.587   2.925   6.457  0.00  0.00    +0.000 HD
BRANCH  16  18
ATOM     18  C   UNL     1      46.891   1.612   7.324  0.00  0.00    +0.000 C 
BRANCH  18  19
ATOM     19  C   UNL     1      48.295   1.981   6.817  0.00  0.00    +0.000 C 
BRANCH  19  20
ATOM     20  N   UNL     1      48.349   1.965   5.355  0.00  0.00    +0.000 NA
ATOM     21  H   UNL     1      49.007   2.674   5.035  0.00  0.00    +0.000 HD
ATOM     22  H   UNL     1      47.438   2.218   4.976  0.00  0.00    +0.000 HD
ENDBRANCH  19  20
ENDBRANCH  18  19
ENDBRANCH  16  18
ENDBRANCH  15  16
ENDBRANCH   9  15
ENDBRANCH   8  12
ENDBRANCH   7   8
ENDBRANCH   1   7
BRANCH   4  23
ATOM     23  C   UNL     1      49.034   4.034  17.907  0.00  0.00    +0.000 C 
BRANCH  23  24
ATOM     24  N   UNL     1      50.390   3.584  17.719  0.00  0.00    +0.000 N 
ATOM     25  C   UNL     1      51.391   3.965  18.579  0.00  0.00    +0.000 C 
ATOM     26  O   UNL     1      51.168   4.620  19.592  0.00  0.00    +0.000 OA
ATOM     27  H   UNL     1      50.638   3.235  16.801  0.00  0.00    +0.000 HD
BRANCH  25  28
ATOM     28  C   UNL     1      52.744   3.491  18.247  0.00  0.00    +0.000 A 
ATOM     29  C   UNL     1      53.826   4.352  18.365  0.00  0.00    +0.000 A 
ATOM     30  S   UNL     1      55.316   3.628  17.954  0.00  0.00    +0.000 S 
ATOM     31  C   UNL     1      54.558   2.152  17.572  0.00  0.00    +0.000 A 
ATOM     32  N   UNL     1      55.276   1.090  17.120  0.00  0.00    +0.000 NA
ATOM     33  C   UNL     1      54.569   0.044  16.850  0.00  0.00    +0.000 A 
ATOM     34  N   UNL     1      53.209  -0.038  16.991  0.00  0.00    +0.000 N 
ATOM     35  C   UNL     1      52.444   1.000  17.468  0.00  0.00    +0.000 A 
ATOM     36  O   UNL     1      51.236   0.877  17.636  0.00  0.00    +0.000 OA
ATOM     37  C   UNL     1      53.190   2.205  17.775  0.00  0.00    +0.000 A 
ATOM     38  H   UNL     1      52.715  -0.891  16.776  0.00  0.00    +0.000 HD
ENDBRANCH  25  28
ENDBRANCH  23  24
ENDBRANCH   4  23
TORSDOF 11
ENDMDL
MODEL 3
REMARK VINA RESULT:    -7.033      3.867     10.157
REMARK INTER + INTRA:         -12.199
REMARK INTER:                 -11.097
REMARK INTRA:                  -1.102
REMARK UNBOUND:                -0.848
REMARK  Name = 
REMARK  11 active torsions:
REMARK  status: ('A' for Active; 'I' for Inactive)
REMARK    1  A    between atoms: N_1  and  C_2
REMARK    2  A    between atoms: C_2  and  C_3
REMARK    3  A    between atoms: C_3  and  N_4
REMARK    4  A    between atoms: N_4  and  C_5
REMARK    5  A    between atoms: C_5  and  C_6
REMARK    6  A    between atoms: C_9  and  C_10
REMARK    7  A    between atoms: C_10  and  C_11
REMARK    8  A    between atoms: C_11  and  C_12
REMARK    9  A    between atoms: C_15  and  C_16
REMARK   10  A    between atoms: C_16  and  N_17
REMARK   11  A    between atoms: C_18  and  C_20
REMARK                            x       y       z     vdW  Elec       q    Type
REMARK                         _______ _______ _______ _____ _____    ______ ____
ROOT
ATOM      1  C   UNL     1      49.816   6.310  16.179  0.00  0.00    +0.000 A 
ATOM      2  C   UNL     1      50.502   7.323  15.517  0.00  0.00    +0.000 A 
ATOM      3  C   UNL     1      49.997   7.804  14.308  0.00  0.00    +0.000 A 
ATOM      4  C   UNL     1      48.804   7.281  13.801  0.00  0.00    +0.000 A 
ATOM      5  C   UNL     1      48.195   6.268  14.523  0.00  0.00    +0.000 A 
ATOM      6  N   UNL     1      48.662   5.786  15.698  0.00  0.00    +0.000 NA
ENDROOT
BRANCH   1   7
ATOM      7  C   UNL     1      50.312   5.805  17.512  0.00  0.00    +0.000 C 
BRANCH   7   8
ATOM      8  C   UNL     1      49.741   4.428  17.856  0.00  0.00    +0.000 C 
BRANCH   8  12
ATOM      9  C   UNL     1      52.654   1.337  17.755  0.00  0.00    +0.000 A 
ATOM     10  C   UNL     1      53.042   2.598  18.203  0.00  0.00    +0.000 A 
ATOM     11  C   UNL     1      52.099   3.616  18.244  0.00  0.00    +0.000 A 
ATOM     12  C   UNL     1      50.794   3.359  17.827  0.00  0.00    +0.000 A 
ATOM     13  C   UNL     1      50.493   2.070  17.402  0.00  0.00    +0.000 A 
ATOM     14  N   UNL     1      51.388   1.059  17.353  0.00  0.00    +0.000 NA
BRANCH   9  15
ATOM     15  C   UNL     1      53.639   0.186  17.789  0.00  0.00    +0.000 C 
BRANCH  15  16
ATOM     16  N   UNL     1      53.156  -0.991  18.535  0.00  0.00    +0.000 NA
ATOM     17  H   UNL     1      52.784  -0.671  19.427  0.00  0.00    +0.000 HD
BRANCH  16  18
ATOM     18  C   UNL     1      54.260  -1.933  18.788  0.00  0.00    +0.000 C 
BRANCH  18  19
ATOM     19  C   UNL     1      54.320  -2.320  20.275  0.00  0.00    +0.000 C 
BRANCH  19  20
ATOM     20  N   UNL     1      53.002  -2.718  20.770  0.00  0.00    +0.000 NA
ATOM     21  H   UNL     1      53.112  -3.472  21.447  0.00  0.00    +0.000 HD
ATOM     22  H   UNL     1      52.447  -3.093  20.003  0.00  0.00    +0.000 HD
ENDBRANCH  19  20
ENDBRANCH  18  19
ENDBRANCH  16  18
ENDBRANCH  15  16
ENDBRANCH   9  15
ENDBRANCH   8  12
ENDBRANCH   7   8
ENDBRANCH   1   7
BRANCH   4  23
ATOM     23  C   UNL     1      48.216   7.768  12.509  0.00  0.00    +0.000 C 
BRANCH  23  24
ATOM     24  N   UNL     1      47.515   6.713  11.823  0.00  0.00    +0.000 N 
ATOM     25  C   UNL     1      46.192   6.847  11.477  0.00  0.00    +0.000 C 
ATOM     26  O   UNL     1      45.576   7.894  11.645  0.00  0.00    +0.000 OA
ATOM     27  H   UNL     1      47.920   5.785  11.865  0.00  0.00    +0.000 HD
BRANCH  25  28
ATOM     28  C   UNL     1      45.570   5.678  10.835  0.00  0.00    +0.000 A 
ATOM     29  C   UNL     1      45.672   5.509   9.461  0.00  0.00    +0.000 A 
ATOM     30  S   UNL     1      44.907   4.093   8.894  0.00  0.00    +0.000 S 
ATOM     31  C   UNL     1      44.386   3.678  10.461  0.00  0.00    +0.000 A 
ATOM     32  N   UNL     1      43.641   2.563  10.682  0.00  0.00    +0.000 NA
ATOM     33  C   UNL     1      43.299   2.385  11.915  0.00  0.00    +0.000 A 
ATOM     34  N   UNL     1      43.635   3.219  12.947  0.00  0.00    +0.000 N 
ATOM     35  C   UNL     1      44.408   4.345  12.777  0.00  0.00    +0.000 A 
ATOM     36  O   UNL     1      44.738   5.041  13.730  0.00  0.00    +0.000 OA
ATOM     37  C   UNL     1      44.808   4.597  11.406  0.00  0.00    +0.000 A 
ATOM     38  H   UNL     1      43.349   3.017  13.894  0.00  0.00    +0.000 HD
ENDBRANCH  25  28
ENDBRANCH  23  24
ENDBRANCH   4  23
TORSDOF 11
ENDMDL
MODEL 4
REMARK VINA RESULT:    -6.900      3.883      9.965
REMARK INTER + INTRA:         -11.983
REMARK INTER:                 -10.690
REMARK INTRA:                  -1.293
REMARK UNBOUND:                -0.848
REMARK  Name = 
REMARK  11 active torsions:
REMARK  status: ('A' for Active; 'I' for Inactive)
REMARK    1  A    between atoms: N_1  and  C_2
REMARK    2  A    between atoms: C_2  and  C_3
REMARK    3  A    between atoms: C_3  and  N_4
REMARK    4  A    between atoms: N_4  and  C_5
REMARK    5  A    between atoms: C_5  and  C_6
REMARK    6  A    between atoms: C_9  and  C_10
REMARK    7  A    between atoms: C_10  and  C_11
REMARK    8  A    between atoms: C_11  and  C_12
REMARK    9  A    between atoms: C_15  and  C_16
REMARK   10  A    between atoms: C_16  and  N_17
REMARK   11  A    between atoms: C_18  and  C_20
REMARK                            x       y       z     vdW  Elec       q    Type
REMARK                         _______ _______ _______ _____ _____    ______ ____
ROOT
ATOM      1  C   UNL     1      51.297   3.833  17.797  0.00  0.00    +0.000 A 
ATOM      2  C   UNL     1      50.781   2.607  17.394  0.00  0.00    +0.000 A 
ATOM      3  C   UNL     1      49.415   2.499  17.129  0.00  0.00    +0.000 A 
ATOM      4  C   UNL     1      48.599   3.628  17.246  0.00  0.00    +0.000 A 
ATOM      5  C   UNL     1      49.197   4.806  17.663  0.00  0.00    +0.000 A 
ATOM      6  N   UNL     1      50.519   4.937  17.923  0.00  0.00    +0.000 NA
ENDROOT
BRANCH   1   7
ATOM      7  C   UNL     1      52.778   3.990  18.043  0.00  0.00    +0.000 C 
BRANCH   7   8
ATOM      8  C   UNL     1      53.347   2.845  18.883  0.00  0.00    +0.000 C 
BRANCH   8  12
ATOM      9  C   UNL     1      55.006  -0.276  16.526  0.00  0.00    +0.000 A 
ATOM     10  C   UNL     1      55.415   1.032  16.274  0.00  0.00    +0.000 A 
ATOM     11  C   UNL     1      54.882   2.062  17.040  0.00  0.00    +0.000 A 
ATOM     12  C   UNL     1      53.947   1.766  18.030  0.00  0.00    +0.000 A 
ATOM     13  C   UNL     1      53.603   0.432  18.218  0.00  0.00    +0.000 A 
ATOM     14  N   UNL     1      54.105  -0.590  17.490  0.00  0.00    +0.000 NA
BRANCH   9  15
ATOM     15  C   UNL     1      55.640  -1.425  15.769  0.00  0.00    +0.000 C 
BRANCH  15  16
ATOM     16  N   UNL     1      54.691  -2.492  15.400  0.00  0.00    +0.000 NA
ATOM     17  H   UNL     1      53.854  -2.383  15.968  0.00  0.00    +0.000 HD
BRANCH  16  18
ATOM     18  C   UNL     1      55.276  -3.819  15.660  0.00  0.00    +0.000 C 
BRANCH  18  19
ATOM     19  C   UNL     1      55.047  -4.242  17.121  0.00  0.00    +0.000 C 
BRANCH  19  20
ATOM     20  N   UNL     1      53.764  -3.744  17.619  0.00  0.00    +0.000 NA
ATOM     21  H   UNL     1      53.240  -3.336  16.845  0.00  0.00    +0.000 HD
ATOM     22  H   UNL     1      53.924  -2.996  18.290  0.00  0.00    +0.000 HD
ENDBRANCH  19  20
ENDBRANCH  18  19
ENDBRANCH  16  18
ENDBRANCH  15  16
ENDBRANCH   9  15
ENDBRANCH   8  12
ENDBRANCH   7   8
ENDBRANCH   1   7
BRANCH   4  23
ATOM     23  C   UNL     1      47.126   3.568  16.967  0.00  0.00    +0.000 C 
BRANCH  23  24
ATOM     24  N   UNL     1      46.756   4.480  15.915  0.00  0.00    +0.000 N 
ATOM     25  C   UNL     1      46.957   4.161  14.594  0.00  0.00    +0.000 C 
ATOM     26  O   UNL     1      47.367   3.059  14.243  0.00  0.00    +0.000 OA
ATOM     27  H   UNL     1      46.623   5.452  16.171  0.00  0.00    +0.000 HD
BRANCH  25  28
ATOM     28  C   UNL     1      46.595   5.199  13.616  0.00  0.00    +0.000 A 
ATOM     29  C   UNL     1      47.515   6.184  13.283  0.00  0.00    +0.000 A 
ATOM     30  S   UNL     1      46.929   7.292  12.124  0.00  0.00    +0.000 S 
ATOM     31  C   UNL     1      45.418   6.511  12.056  0.00  0.00    +0.000 A 
ATOM     32  N   UNL     1      44.422   6.976  11.257  0.00  0.00    +0.000 NA
ATOM     33  C   UNL     1      43.325   6.298  11.322  0.00  0.00    +0.000 A 
ATOM     34  N   UNL     1      43.132   5.197  12.113  0.00  0.00    +0.000 N 
ATOM     35  C   UNL     1      44.118   4.675  12.918  0.00  0.00    +0.000 A 
ATOM     36  O   UNL     1      43.933   3.654  13.572  0.00  0.00    +0.000 OA
ATOM     37  C   UNL     1      45.368   5.408  12.891  0.00  0.00    +0.000 A 
ATOM     38  H   UNL     1      42.254   4.700  12.108  0.00  0.00    +0.000 HD
ENDBRANCH  25  28
ENDBRANCH  23  24
ENDBRANCH   4  23
TORSDOF 11
ENDMDL
MODEL 5
REMARK VINA RESULT:    -6.790      5.525      7.648
REMARK INTER + INTRA:         -11.806
REMARK INTER:                 -10.138
REMARK INTRA:                  -1.668
REMARK UNBOUND:                -0.848
REMARK  Name = 
REMARK  11 active torsions:
REMARK  status: ('A' for Active; 'I' for Inactive)
REMARK    1  A    between atoms: N_1  and  C_2
REMARK    2  A    between atoms: C_2  and  C_3
REMARK    3  A    between atoms: C_3  and  N_4
REMARK    4  A    between atoms: N_4  and  C_5
REMARK    5  A    between atoms: C_5  and  C_6
REMARK    6  A    between atoms: C_9  and  C_10
REMARK    7  A    between atoms: C_10  and  C_11
REMARK    8  A    between atoms: C_11  and  C_12
REMARK    9  A    between atoms: C_15  and  C_16
REMARK   10  A    between atoms: C_16  and  N_17
REMARK   11  A    between atoms: C_18  and  C_20
REMARK                            x       y       z     vdW  Elec       q    Type
REMARK                         _______ _______ _______ _____ _____    ______ ____
ROOT
ATOM      1  C   UNL     1      48.178   7.161  13.178  0.00  0.00    +0.000 A 
ATOM      2  C   UNL     1      48.187   7.675  11.886  0.00  0.00    +0.000 A 
ATOM      3  C   UNL     1      49.375   8.197  11.372  0.00  0.00    +0.000 A 
ATOM      4  C   UNL     1      50.536   8.168  12.152  0.00  0.00    +0.000 A 
ATOM      5  C   UNL     1      50.431   7.646  13.431  0.00  0.00    +0.000 A 
ATOM      6  N   UNL     1      49.292   7.132  13.951  0.00  0.00    +0.000 NA
ENDROOT
BRANCH   1   7
ATOM      7  C   UNL     1      46.919   6.546  13.741  0.00  0.00    +0.000 C 
BRANCH   7   8
ATOM      8  C   UNL     1      45.716   6.750  12.818  0.00  0.00    +0.000 C 
BRANCH   8  12
ATOM      9  C   UNL     1      44.975   3.405  10.306  0.00  0.00    +0.000 A 
ATOM     10  C   UNL     1      45.009   3.202  11.684  0.00  0.00    +0.000 A 
ATOM     11  C   UNL     1      45.248   4.289  12.517  0.00  0.00    +0.000 A 
ATOM     12  C   UNL     1      45.458   5.547  11.958  0.00  0.00    +0.000 A 
ATOM     13  C   UNL     1      45.399   5.659  10.573  0.00  0.00    +0.000 A 
ATOM     14  N   UNL     1      45.167   4.622   9.739  0.00  0.00    +0.000 NA
BRANCH   9  15
ATOM     15  C   UNL     1      44.626   2.256   9.382  0.00  0.00    +0.000 C 
BRANCH  15  16
ATOM     16  N   UNL     1      45.114   2.432   8.001  0.00  0.00    +0.000 NA
ATOM     17  H   UNL     1      44.479   1.942   7.375  0.00  0.00    +0.000 HD
BRANCH  16  18
ATOM     18  C   UNL     1      46.465   1.864   7.853  0.00  0.00    +0.000 C 
BRANCH  18  19
ATOM     19  C   UNL     1      47.372   2.809   7.048  0.00  0.00    +0.000 C 
BRANCH  19  20
ATOM     20  N   UNL     1      46.933   4.199   7.179  0.00  0.00    +0.000 NA
ATOM     21  H   UNL     1      45.953   4.269   6.906  0.00  0.00    +0.000 HD
ATOM     22  H   UNL     1      47.459   4.787   6.535  0.00  0.00    +0.000 HD
ENDBRANCH  19  20
ENDBRANCH  18  19
ENDBRANCH  16  18
ENDBRANCH  15  16
ENDBRANCH   9  15
ENDBRANCH   8  12
ENDBRANCH   7   8
ENDBRANCH   1   7
BRANCH   4  23
ATOM     23  C   UNL     1      51.840   8.710  11.645  0.00  0.00    +0.000 C 
BRANCH  23  24
ATOM     24  N   UNL     1      52.143   8.198  10.332  0.00  0.00    +0.000 N 
ATOM     25  C   UNL     1      53.208   8.681   9.610  0.00  0.00    +0.000 C 
ATOM     26  O   UNL     1      54.001   9.491  10.079  0.00  0.00    +0.000 OA
ATOM     27  H   UNL     1      51.404   7.704   9.847  0.00  0.00    +0.000 HD
BRANCH  25  28
ATOM     28  C   UNL     1      53.379   8.123   8.260  0.00  0.00    +0.000 A 
ATOM     29  C   UNL     1      53.348   8.965   7.156  0.00  0.00    +0.000 A 
ATOM     30  S   UNL     1      53.577   8.149   5.675  0.00  0.00    +0.000 S 
ATOM     31  C   UNL     1      53.690   6.641   6.458  0.00  0.00    +0.000 A 
ATOM     32  N   UNL     1      53.868   5.494   5.751  0.00  0.00    +0.000 NA
ATOM     33  C   UNL     1      53.915   4.424   6.472  0.00  0.00    +0.000 A 
ATOM     34  N   UNL     1      53.801   4.396   7.837  0.00  0.00    +0.000 N 
ATOM     35  C   UNL     1      53.646   5.532   8.597  0.00  0.00    +0.000 A 
ATOM     36  O   UNL     1      53.604   5.480   9.821  0.00  0.00    +0.000 OA
ATOM     37  C   UNL     1      53.575   6.762   7.832  0.00  0.00    +0.000 A 
ATOM     38  H   UNL     1      53.861   3.527   8.346  0.00  0.00    +0.000 HD
ENDBRANCH  25  28
ENDBRANCH  23  24
ENDBRANCH   4  23
TORSDOF 11
ENDMDL
MODEL 6
REMARK VINA RESULT:    -6.772      4.160      8.506
REMARK INTER + INTRA:         -11.777
REMARK INTER:                  -9.320
REMARK INTRA:                  -2.456
REMARK UNBOUND:                -0.848
REMARK  Name = 
REMARK  11 active torsions:
REMARK  status: ('A' for Active; 'I' for Inactive)
REMARK    1  A    between atoms: N_1  and  C_2
REMARK    2  A    between atoms: C_2  and  C_3
REMARK    3  A    between atoms: C_3  and  N_4
REMARK    4  A    between atoms: N_4  and  C_5
REMARK    5  A    between atoms: C_5  and  C_6
REMARK    6  A    between atoms: C_9  and  C_10
REMARK    7  A    between atoms: C_10  and  C_11
REMARK    8  A    between atoms: C_11  and  C_12
REMARK    9  A    between atoms: C_15  and  C_16
REMARK   10  A    between atoms: C_16  and  N_17
REMARK   11  A    between atoms: C_18  and  C_20
REMARK                            x       y       z     vdW  Elec       q    Type
REMARK                         _______ _______ _______ _____ _____    ______ ____
ROOT
ATOM      1  C   UNL     1      51.362   3.528  17.917  0.00  0.00    +0.000 A 
ATOM      2  C   UNL     1      50.834   2.390  17.319  0.00  0.00    +0.000 A 
ATOM      3  C   UNL     1      49.470   2.350  17.023  0.00  0.00    +0.000 A 
ATOM      4  C   UNL     1      48.670   3.462  17.305  0.00  0.00    +0.000 A 
ATOM      5  C   UNL     1      49.280   4.549  17.909  0.00  0.00    +0.000 A 
ATOM      6  N   UNL     1      50.600   4.612  18.205  0.00  0.00    +0.000 NA
ENDROOT
BRANCH   1   7
ATOM      7  C   UNL     1      52.841   3.617  18.204  0.00  0.00    +0.000 C 
BRANCH   7   8
ATOM      8  C   UNL     1      53.330   5.066  18.271  0.00  0.00    +0.000 C 
BRANCH   8  12
ATOM      9  C   UNL     1      55.008   6.373  14.594  0.00  0.00    +0.000 A 
ATOM     10  C   UNL     1      55.663   5.364  15.299  0.00  0.00    +0.000 A 
ATOM     11  C   UNL     1      55.123   4.926  16.501  0.00  0.00    +0.000 A 
ATOM     12  C   UNL     1      53.951   5.509  16.979  0.00  0.00    +0.000 A 
ATOM     13  C   UNL     1      53.361   6.504  16.207  0.00  0.00    +0.000 A 
ATOM     14  N   UNL     1      53.862   6.949  15.034  0.00  0.00    +0.000 NA
BRANCH   9  15
ATOM     15  C   UNL     1      55.525   6.804  13.236  0.00  0.00    +0.000 C 
BRANCH  15  16
ATOM     16  N   UNL     1      54.523   6.706  12.158  0.00  0.00    +0.000 NA
ATOM     17  H   UNL     1      54.939   6.198  11.382  0.00  0.00    +0.000 HD
BRANCH  16  18
ATOM     18  C   UNL     1      54.129   8.048  11.695  0.00  0.00    +0.000 C 
BRANCH  18  19
ATOM     19  C   UNL     1      52.598   8.176  11.626  0.00  0.00    +0.000 C 
BRANCH  19  20
ATOM     20  N   UNL     1      52.009   8.183  12.965  0.00  0.00    +0.000 NA
ATOM     21  H   UNL     1      51.103   8.650  12.931  0.00  0.00    +0.000 HD
ATOM     22  H   UNL     1      52.595   8.729  13.594  0.00  0.00    +0.000 HD
ENDBRANCH  19  20
ENDBRANCH  18  19
ENDBRANCH  16  18
ENDBRANCH  15  16
ENDBRANCH   9  15
ENDBRANCH   8  12
ENDBRANCH   7   8
ENDBRANCH   1   7
BRANCH   4  23
ATOM     23  C   UNL     1      47.201   3.473  17.000  0.00  0.00    +0.000 C 
BRANCH  23  24
ATOM     24  N   UNL     1      46.887   4.440  15.979  0.00  0.00    +0.000 N 
ATOM     25  C   UNL     1      47.012   4.132  14.645  0.00  0.00    +0.000 C 
ATOM     26  O   UNL     1      47.301   3.003  14.260  0.00  0.00    +0.000 OA
ATOM     27  H   UNL     1      46.859   5.414  16.257  0.00  0.00    +0.000 HD
BRANCH  25  28
ATOM     28  C   UNL     1      46.721   5.221  13.700  0.00  0.00    +0.000 A 
ATOM     29  C   UNL     1      45.617   5.131  12.863  0.00  0.00    +0.000 A 
ATOM     30  S   UNL     1      45.426   6.490  11.848  0.00  0.00    +0.000 S 
ATOM     31  C   UNL     1      46.831   7.224  12.469  0.00  0.00    +0.000 A 
ATOM     32  N   UNL     1      47.260   8.426  12.002  0.00  0.00    +0.000 NA
ATOM     33  C   UNL     1      48.350   8.852  12.548  0.00  0.00    +0.000 A 
ATOM     34  N   UNL     1      49.049   8.187  13.520  0.00  0.00    +0.000 N 
ATOM     35  C   UNL     1      48.639   6.982  14.042  0.00  0.00    +0.000 A 
ATOM     36  O   UNL     1      49.256   6.438  14.952  0.00  0.00    +0.000 OA
ATOM     37  C   UNL     1      47.425   6.452  13.452  0.00  0.00    +0.000 A 
ATOM     38  H   UNL     1      49.888   8.581  13.919  0.00  0.00    +0.000 HD
ENDBRANCH  25  28
ENDBRANCH  23  24
ENDBRANCH   4  23
TORSDOF 11
ENDMDL
MODEL 7
REMARK VINA RESULT:    -6.771      3.879      9.002
REMARK INTER + INTRA:         -11.776
REMARK INTER:                 -10.531
REMARK INTRA:                  -1.245
REMARK UNBOUND:                -0.848
REMARK  Name = 
REMARK  11 active torsions:
REMARK  status: ('A' for Active; 'I' for Inactive)
REMARK    1  A    between atoms: N_1  and  C_2
REMARK    2  A    between atoms: C_2  and  C_3
REMARK    3  A    between atoms: C_3  and  N_4
REMARK    4  A    between atoms: N_4  and  C_5
REMARK    5  A    between atoms: C_5  and  C_6
REMARK    6  A    between atoms: C_9  and  C_10
REMARK    7  A    between atoms: C_10  and  C_11
REMARK    8  A    between atoms: C_11  and  C_12
REMARK    9  A    between atoms: C_15  and  C_16
REMARK   10  A    between atoms: C_16  and  N_17
REMARK   11  A    between atoms: C_18  and  C_20
REMARK                            x       y       z     vdW  Elec       q    Type
REMARK                         _______ _______ _______ _____ _____    ______ ____
ROOT
ATOM      1  C   UNL     1      51.438   3.245  17.993  0.00  0.00    +0.000 A 
ATOM      2  C   UNL     1      50.898   2.166  17.301  0.00  0.00    +0.000 A 
ATOM      3  C   UNL     1      49.534   2.166  17.003  0.00  0.00    +0.000 A 
ATOM      4  C   UNL     1      48.745   3.257  17.379  0.00  0.00    +0.000 A 
ATOM      5  C   UNL     1      49.366   4.282  18.074  0.00  0.00    +0.000 A 
ATOM      6  N   UNL     1      50.687   4.308  18.372  0.00  0.00    +0.000 NA
ENDROOT
BRANCH   1   7
ATOM      7  C   UNL     1      52.918   3.294  18.285  0.00  0.00    +0.000 C 
BRANCH   7   8
ATOM      8  C   UNL     1      53.424   4.727  18.457  0.00  0.00    +0.000 C 
BRANCH   8  12
ATOM      9  C   UNL     1      55.046   6.299  14.859  0.00  0.00    +0.000 A 
ATOM     10  C   UNL     1      55.755   5.300  15.523  0.00  0.00    +0.000 A 
ATOM     11  C   UNL     1      55.234   4.775  16.699  0.00  0.00    +0.000 A 
ATOM     12  C   UNL     1      54.027   5.266  17.192  0.00  0.00    +0.000 A 
ATOM     13  C   UNL     1      53.383   6.258  16.460  0.00  0.00    +0.000 A 
ATOM     14  N   UNL     1      53.864   6.785  15.314  0.00  0.00    +0.000 NA
BRANCH   9  15
ATOM     15  C   UNL     1      55.545   6.821  13.527  0.00  0.00    +0.000 C 
BRANCH  15  16
ATOM     16  N   UNL     1      54.779   6.327  12.367  0.00  0.00    +0.000 NA
ATOM     17  H   UNL     1      53.844   6.084  12.685  0.00  0.00    +0.000 HD
BRANCH  16  18
ATOM     18  C   UNL     1      55.417   5.127  11.798  0.00  0.00    +0.000 C 
BRANCH  18  19
ATOM     19  C   UNL     1      54.958   4.899  10.348  0.00  0.00    +0.000 C 
BRANCH  19  20
ATOM     20  N   UNL     1      53.540   5.222  10.187  0.00  0.00    +0.000 NA
ATOM     21  H   UNL     1      52.983   4.576  10.745  0.00  0.00    +0.000 HD
ATOM     22  H   UNL     1      53.265   5.082   9.217  0.00  0.00    +0.000 HD
ENDBRANCH  19  20
ENDBRANCH  18  19
ENDBRANCH  16  18
ENDBRANCH  15  16
ENDBRANCH   9  15
ENDBRANCH   8  12
ENDBRANCH   7   8
ENDBRANCH   1   7
BRANCH   4  23
ATOM     23  C   UNL     1      47.277   3.309  17.077  0.00  0.00    +0.000 C 
BRANCH  23  24
ATOM     24  N   UNL     1      46.977   4.340  16.117  0.00  0.00    +0.000 N 
ATOM     25  C   UNL     1      47.111   4.116  14.768  0.00  0.00    +0.000 C 
ATOM     26  O   UNL     1      47.397   3.012  14.315  0.00  0.00    +0.000 OA
ATOM     27  H   UNL     1      46.952   5.295  16.456  0.00  0.00    +0.000 HD
BRANCH  25  28
ATOM     28  C   UNL     1      46.834   5.264  13.891  0.00  0.00    +0.000 A 
ATOM     29  C   UNL     1      47.763   6.290  13.784  0.00  0.00    +0.000 A 
ATOM     30  S   UNL     1      47.282   7.529  12.713  0.00  0.00    +0.000 S 
ATOM     31  C   UNL     1      45.803   6.752  12.386  0.00  0.00    +0.000 A 
ATOM     32  N   UNL     1      44.889   7.304  11.546  0.00  0.00    +0.000 NA
ATOM     33  C   UNL     1      43.806   6.616  11.408  0.00  0.00    +0.000 A 
ATOM     34  N   UNL     1      43.553   5.423  12.032  0.00  0.00    +0.000 N 
ATOM     35  C   UNL     1      44.457   4.813  12.870  0.00  0.00    +0.000 A 
ATOM     36  O   UNL     1      44.224   3.718  13.370  0.00  0.00    +0.000 OA
ATOM     37  C   UNL     1      45.688   5.553  13.068  0.00  0.00    +0.000 A 
ATOM     38  H   UNL     1      42.690   4.925  11.871  0.00  0.00    +0.000 HD
ENDBRANCH  25  28
ENDBRANCH  23  24
ENDBRANCH   4  23
TORSDOF 11
ENDMDL
MODEL 8
REMARK VINA RESULT:    -6.687      4.004     10.186
REMARK INTER + INTRA:         -11.640
REMARK INTER:                 -10.044
REMARK INTRA:                  -1.595
REMARK UNBOUND:                -0.848
REMARK  Name = 
REMARK  11 active torsions:
REMARK  status: ('A' for Active; 'I' for Inactive)
REMARK    1  A    between atoms: N_1  and  C_2
REMARK    2  A    between atoms: C_2  and  C_3
REMARK    3  A    between atoms: C_3  and  N_4
REMARK    4  A    between atoms: N_4  and  C_5
REMARK    5  A    between atoms: C_5  and  C_6
REMARK    6  A    between atoms: C_9  and  C_10
REMARK    7  A    between atoms: C_10  and  C_11
REMARK    8  A    between atoms: C_11  and  C_12
REMARK    9  A    between atoms: C_15  and  C_16
REMARK   10  A    between atoms: C_16  and  N_17
REMARK   11  A    between atoms: C_18  and  C_20
REMARK                            x       y       z     vdW  Elec       q    Type
REMARK                         _______ _______ _______ _____ _____    ______ ____
ROOT
ATOM      1  C   UNL     1      50.144   4.809  17.403  0.00  0.00    +0.000 A 
ATOM      2  C   UNL     1      48.801   4.638  17.087  0.00  0.00    +0.000 A 
ATOM      3  C   UNL     1      48.203   5.509  16.174  0.00  0.00    +0.000 A 
ATOM      4  C   UNL     1      48.969   6.515  15.577  0.00  0.00    +0.000 A 
ATOM      5  C   UNL     1      50.297   6.617  15.959  0.00  0.00    +0.000 A 
ATOM      6  N   UNL     1      50.900   5.783  16.839  0.00  0.00    +0.000 NA
ENDROOT
BRANCH   1   7
ATOM      7  C   UNL     1      50.828   3.852  18.349  0.00  0.00    +0.000 C 
BRANCH   7   8
ATOM      8  C   UNL     1      52.346   4.047  18.369  0.00  0.00    +0.000 C 
BRANCH   8  12
ATOM      9  C   UNL     1      54.331   0.540  17.024  0.00  0.00    +0.000 A 
ATOM     10  C   UNL     1      55.075   1.710  17.159  0.00  0.00    +0.000 A 
ATOM     11  C   UNL     1      54.439   2.863  17.601  0.00  0.00    +0.000 A 
ATOM     12  C   UNL     1      53.075   2.827  17.886  0.00  0.00    +0.000 A 
ATOM     13  C   UNL     1      52.413   1.614  17.730  0.00  0.00    +0.000 A 
ATOM     14  N   UNL     1      53.005   0.477  17.304  0.00  0.00    +0.000 NA
BRANCH   9  15
ATOM     15  C   UNL     1      55.020  -0.752  16.633  0.00  0.00    +0.000 C 
BRANCH  15  16
ATOM     16  N   UNL     1      54.422  -1.954  17.244  0.00  0.00    +0.000 NA
ATOM     17  H   UNL     1      53.429  -1.781  17.380  0.00  0.00    +0.000 HD
BRANCH  16  18
ATOM     18  C   UNL     1      55.042  -2.235  18.551  0.00  0.00    +0.000 C 
BRANCH  18  19
ATOM     19  C   UNL     1      53.969  -2.430  19.636  0.00  0.00    +0.000 C 
BRANCH  19  20
ATOM     20  N   UNL     1      52.666  -1.942  19.182  0.00  0.00    +0.000 NA
ATOM     21  H   UNL     1      51.930  -2.485  19.631  0.00  0.00    +0.000 HD
ATOM     22  H   UNL     1      52.573  -2.095  18.180  0.00  0.00    +0.000 HD
ENDBRANCH  19  20
ENDBRANCH  18  19
ENDBRANCH  16  18
ENDBRANCH  15  16
ENDBRANCH   9  15
ENDBRANCH   8  12
ENDBRANCH   7   8
ENDBRANCH   1   7
BRANCH   4  23
ATOM     23  C   UNL     1      48.377   7.472  14.585  0.00  0.00    +0.000 C 
BRANCH  23  24
ATOM     24  N   UNL     1      47.162   6.948  14.014  0.00  0.00    +0.000 N 
ATOM     25  C   UNL     1      46.980   6.901  12.653  0.00  0.00    +0.000 C 
ATOM     26  O   UNL     1      47.868   7.207  11.864  0.00  0.00    +0.000 OA
ATOM     27  H   UNL     1      46.352   6.894  14.620  0.00  0.00    +0.000 HD
BRANCH  25  28
ATOM     28  C   UNL     1      45.675   6.402  12.193  0.00  0.00    +0.000 A 
ATOM     29  C   UNL     1      44.763   7.279  11.622  0.00  0.00    +0.000 A 
ATOM     30  S   UNL     1      43.312   6.525  11.134  0.00  0.00    +0.000 S 
ATOM     31  C   UNL     1      43.842   5.009  11.701  0.00  0.00    +0.000 A 
ATOM     32  N   UNL     1      43.050   3.909  11.610  0.00  0.00    +0.000 NA
ATOM     33  C   UNL     1      43.571   2.833  12.099  0.00  0.00    +0.000 A 
ATOM     34  N   UNL     1      44.814   2.757  12.670  0.00  0.00    +0.000 N 
ATOM     35  C   UNL     1      45.661   3.837  12.761  0.00  0.00    +0.000 A 
ATOM     36  O   UNL     1      46.790   3.725  13.226  0.00  0.00    +0.000 OA
ATOM     37  C   UNL     1      45.116   5.075  12.236  0.00  0.00    +0.000 A 
ATOM     38  H   UNL     1      45.172   1.882  13.021  0.00  0.00    +0.000 HD
ENDBRANCH  25  28
ENDBRANCH  23  24
ENDBRANCH   4  23
TORSDOF 11
ENDMDL
MODEL 9
REMARK VINA RESULT:    -6.619      2.236      3.252
REMARK INTER + INTRA:         -11.531
REMARK INTER:                 -10.045
REMARK INTRA:                  -1.486
REMARK UNBOUND:                -0.848
REMARK  Name = 
REMARK  11 active torsions:
REMARK  status: ('A' for Active; 'I' for Inactive)
REMARK    1  A    between atoms: N_1  and  C_2
REMARK    2  A    between atoms: C_2  and  C_3
REMARK    3  A    between atoms: C_3  and  N_4
REMARK    4  A    between atoms: N_4  and  C_5
REMARK    5  A    between atoms: C_5  and  C_6
REMARK    6  A    between atoms: C_9  and  C_10
REMARK    7  A    between atoms: C_10  and  C_11
REMARK    8  A    between atoms: C_11  and  C_12
REMARK    9  A    between atoms: C_15  and  C_16
REMARK   10  A    between atoms: C_16  and  N_17
REMARK   11  A    between atoms: C_18  and  C_20
REMARK                            x       y       z     vdW  Elec       q    Type
REMARK                         _______ _______ _______ _____ _____    ______ ____
ROOT
ATOM      1  C   UNL     1      48.523   7.955  14.243  0.00  0.00    +0.000 A 
ATOM      2  C   UNL     1      48.239   8.987  15.131  0.00  0.00    +0.000 A 
ATOM      3  C   UNL     1      48.781   8.943  16.416  0.00  0.00    +0.000 A 
ATOM      4  C   UNL     1      49.619   7.884  16.777  0.00  0.00    +0.000 A 
ATOM      5  C   UNL     1      49.839   6.896  15.831  0.00  0.00    +0.000 A 
ATOM      6  N   UNL     1      49.328   6.916  14.577  0.00  0.00    +0.000 NA
ENDROOT
BRANCH   1   7
ATOM      7  C   UNL     1      47.990   8.001  12.831  0.00  0.00    +0.000 C 
BRANCH   7   8
ATOM      8  C   UNL     1      46.462   8.056  12.794  0.00  0.00    +0.000 C 
BRANCH   8  12
ATOM      9  C   UNL     1      44.729   4.391  11.521  0.00  0.00    +0.000 A 
ATOM     10  C   UNL     1      45.309   4.444  12.787  0.00  0.00    +0.000 A 
ATOM     11  C   UNL     1      45.876   5.638  13.217  0.00  0.00    +0.000 A 
ATOM     12  C   UNL     1      45.864   6.745  12.372  0.00  0.00    +0.000 A 
ATOM     13  C   UNL     1      45.257   6.604  11.128  0.00  0.00    +0.000 A 
ATOM     14  N   UNL     1      44.696   5.459  10.685  0.00  0.00    +0.000 NA
BRANCH   9  15
ATOM     15  C   UNL     1      44.022   3.130  11.066  0.00  0.00    +0.000 C 
BRANCH  15  16
ATOM     16  N   UNL     1      44.851   2.257  10.214  0.00  0.00    +0.000 NA
ATOM     17  H   UNL     1      45.827   2.501  10.363  0.00  0.00    +0.000 HD
BRANCH  16  18
ATOM     18  C   UNL     1      44.521   2.456   8.792  0.00  0.00    +0.000 C 
BRANCH  18  19
ATOM     19  C   UNL     1      45.748   2.951   8.009  0.00  0.00    +0.000 C 
BRANCH  19  20
ATOM     20  N   UNL     1      45.827   4.412   8.022  0.00  0.00    +0.000 NA
ATOM     21  H   UNL     1      44.991   4.798   7.585  0.00  0.00    +0.000 HD
ATOM     22  H   UNL     1      46.618   4.717   7.459  0.00  0.00    +0.000 HD
ENDBRANCH  19  20
ENDBRANCH  18  19
ENDBRANCH  16  18
ENDBRANCH  15  16
ENDBRANCH   9  15
ENDBRANCH   8  12
ENDBRANCH   7   8
ENDBRANCH   1   7
BRANCH   4  23
ATOM     23  C   UNL     1      50.233   7.793  18.143  0.00  0.00    +0.000 C 
BRANCH  23  24
ATOM     24  N   UNL     1      51.131   6.671  18.239  0.00  0.00    +0.000 N 
ATOM     25  C   UNL     1      50.803   5.558  18.975  0.00  0.00    +0.000 C 
ATOM     26  O   UNL     1      49.703   5.425  19.501  0.00  0.00    +0.000 OA
ATOM     27  H   UNL     1      52.104   6.836  18.006  0.00  0.00    +0.000 HD
BRANCH  25  28
ATOM     28  C   UNL     1      51.828   4.506  19.047  0.00  0.00    +0.000 A 
ATOM     29  C   UNL     1      52.963   4.699  19.823  0.00  0.00    +0.000 A 
ATOM     30  S   UNL     1      54.033   3.370  19.800  0.00  0.00    +0.000 S 
ATOM     31  C   UNL     1      53.032   2.508  18.726  0.00  0.00    +0.000 A 
ATOM     32  N   UNL     1      53.382   1.276  18.273  0.00  0.00    +0.000 NA
ATOM     33  C   UNL     1      52.539   0.750  17.448  0.00  0.00    +0.000 A 
ATOM     34  N   UNL     1      51.377   1.344  17.035  0.00  0.00    +0.000 N 
ATOM     35  C   UNL     1      50.967   2.577  17.485  0.00  0.00    +0.000 A 
ATOM     36  O   UNL     1      49.893   3.058  17.139  0.00  0.00    +0.000 OA
ATOM     37  C   UNL     1      51.887   3.217  18.406  0.00  0.00    +0.000 A 
ATOM     38  H   UNL     1      50.750   0.873  16.398  0.00  0.00    +0.000 HD
ENDBRANCH  25  28
ENDBRANCH  23  24
ENDBRANCH   4  23
TORSDOF 11
ENDMDL
