MODEL 1
REMARK VINA RESULT:    -8.414      0.000      0.000
REMARK INTER + INTRA:         -11.523
REMARK INTER:                 -10.873
REMARK INTRA:                  -0.650
REMARK UNBOUND:                -0.650
REMARK  Name = 
REMARK  7 active torsions:
REMARK  status: ('A' for Active; 'I' for Inactive)
REMARK    1  A    between atoms: C_1  and  C_2
REMARK    2  A    between atoms: C_2  and  N_3
REMARK    3  A    between atoms: C_2  and  C_17
REMARK    4  A    between atoms: C_4  and  C_6
REMARK    5  A    between atoms: N_12  and  C_13
REMARK    6  A    between atoms: C_20  and  O_21
REMARK    7  A    between atoms: O_21  and  C_22
REMARK                            x       y       z     vdW  Elec       q    Type
REMARK                         _______ _______ _______ _____ _____    ______ ____
ROOT
ATOM      1  C   UNL     1      43.006   5.125  13.389  0.00  0.00    +0.000 C 
ATOM      2  C   UNL     1      44.350   4.491  13.030  0.00  0.00    +0.000 C 
ENDROOT
BRANCH   2   3
ATOM      3  C   UNL     1      44.552   4.429  11.520  0.00  0.00    +0.000 A 
ATOM      4  C   UNL     1      45.384   5.358  10.899  0.00  0.00    +0.000 A 
ATOM      5  C   UNL     1      45.564   5.292   9.520  0.00  0.00    +0.000 A 
ATOM      6  C   UNL     1      44.954   4.270   8.795  0.00  0.00    +0.000 A 
ATOM      7  C   UNL     1      44.086   3.431   9.477  0.00  0.00    +0.000 A 
ATOM      8  N   UNL     1      43.869   3.490  10.813  0.00  0.00    +0.000 NA
BRANCH   6   9
ATOM      9  O   UNL     1      45.118   4.048   7.450  0.00  0.00    +0.000 OA
BRANCH   9  10
ATOM     10  C   UNL     1      46.079   3.152   7.036  0.00  0.00    +0.000 A 
ATOM     11  C   UNL     1      46.439   2.009   7.760  0.00  0.00    +0.000 A 
ATOM     12  C   UNL     1      47.494   1.210   7.322  0.00  0.00    +0.000 A 
ATOM     13  C   UNL     1      48.139   1.507   6.124  0.00  0.00    +0.000 A 
ATOM     14  C   UNL     1      47.718   2.591   5.352  0.00  0.00    +0.000 A 
ATOM     15  C   UNL     1      46.685   3.413   5.808  0.00  0.00    +0.000 A 
ENDBRANCH   9  10
ENDBRANCH   6   9
ENDBRANCH   2   3
BRANCH   2  16
ATOM     16  N   UNL     1      45.424   5.243  13.658  0.00  0.00    +0.000 N 
ATOM     17  C   UNL     1      46.612   4.668  14.030  0.00  0.00    +0.000 C 
ATOM     18  O   UNL     1      46.777   3.450  14.037  0.00  0.00    +0.000 OA
ATOM     19  H   UNL     1      45.420   6.233  13.436  0.00  0.00    +0.000 HD
BRANCH  17  20
ATOM     20  C   UNL     1      47.676   5.588  14.455  0.00  0.00    +0.000 A 
ATOM     21  C   UNL     1      48.227   6.479  13.544  0.00  0.00    +0.000 A 
ATOM     22  S   UNL     1      49.421   7.493  14.221  0.00  0.00    +0.000 S 
ATOM     23  C   UNL     1      49.209   6.807  15.764  0.00  0.00    +0.000 A 
ATOM     24  N   UNL     1      49.892   7.276  16.840  0.00  0.00    +0.000 NA
ATOM     25  C   UNL     1      49.597   6.697  17.959  0.00  0.00    +0.000 A 
ATOM     26  N   UNL     1      48.690   5.668  18.108  0.00  0.00    +0.000 N 
ATOM     27  C   UNL     1      48.451   5.071  19.407  0.00  0.00    +0.000 C 
ATOM     28  C   UNL     1      48.034   5.115  17.017  0.00  0.00    +0.000 A 
ATOM     29  O   UNL     1      47.323   4.117  17.106  0.00  0.00    +0.000 OA
ATOM     30  C   UNL     1      48.281   5.783  15.753  0.00  0.00    +0.000 A 
ENDBRANCH  17  20
ENDBRANCH   2  16
TORSDOF 5
ENDMDL
MODEL 2
REMARK VINA RESULT:    -8.337      1.619      2.103
REMARK INTER + INTRA:         -11.424
REMARK INTER:                 -11.207
REMARK INTRA:                  -0.217
REMARK UNBOUND:                -0.650
REMARK  Name = 
REMARK  7 active torsions:
REMARK  status: ('A' for Active; 'I' for Inactive)
REMARK    1  A    between atoms: C_1  and  C_2
REMARK    2  A    between atoms: C_2  and  N_3
REMARK    3  A    between atoms: C_2  and  C_17
REMARK    4  A    between atoms: C_4  and  C_6
REMARK    5  A    between atoms: N_12  and  C_13
REMARK    6  A    between atoms: C_20  and  O_21
REMARK    7  A    between atoms: O_21  and  C_22
REMARK                            x       y       z     vdW  Elec       q    Type
REMARK                         _______ _______ _______ _____ _____    ______ ____
ROOT
ATOM      1  C   UNL     1      44.909   7.893  12.120  0.00  0.00    +0.000 C 
ATOM      2  C   UNL     1      44.807   6.551  12.849  0.00  0.00    +0.000 C 
ENDROOT
BRANCH   2   3
ATOM      3  C   UNL     1      44.708   5.390  11.866  0.00  0.00    +0.000 A 
ATOM      4  C   UNL     1      43.898   5.510  10.737  0.00  0.00    +0.000 A 
ATOM      5  C   UNL     1      43.818   4.445   9.845  0.00  0.00    +0.000 A 
ATOM      6  C   UNL     1      44.585   3.303  10.065  0.00  0.00    +0.000 A 
ATOM      7  C   UNL     1      45.308   3.235  11.246  0.00  0.00    +0.000 A 
ATOM      8  N   UNL     1      45.383   4.244  12.147  0.00  0.00    +0.000 NA
BRANCH   6   9
ATOM      9  O   UNL     1      44.656   2.223   9.220  0.00  0.00    +0.000 OA
BRANCH   9  10
ATOM     10  C   UNL     1      45.595   2.229   8.211  0.00  0.00    +0.000 A 
ATOM     11  C   UNL     1      45.820   3.320   7.365  0.00  0.00    +0.000 A 
ATOM     12  C   UNL     1      46.717   3.207   6.304  0.00  0.00    +0.000 A 
ATOM     13  C   UNL     1      47.445   2.032   6.133  0.00  0.00    +0.000 A 
ATOM     14  C   UNL     1      47.292   0.977   7.034  0.00  0.00    +0.000 A 
ATOM     15  C   UNL     1      46.367   1.076   8.075  0.00  0.00    +0.000 A 
ENDBRANCH   9  10
ENDBRANCH   6   9
ENDBRANCH   2   3
BRANCH   2  16
ATOM     16  N   UNL     1      45.958   6.385  13.721  0.00  0.00    +0.000 N 
ATOM     17  C   UNL     1      47.238   6.666  13.320  0.00  0.00    +0.000 C 
ATOM     18  O   UNL     1      47.523   6.891  12.146  0.00  0.00    +0.000 OA
ATOM     19  H   UNL     1      45.740   6.451  14.710  0.00  0.00    +0.000 HD
BRANCH  17  20
ATOM     20  C   UNL     1      48.267   6.651  14.368  0.00  0.00    +0.000 A 
ATOM     21  C   UNL     1      49.251   7.632  14.387  0.00  0.00    +0.000 A 
ATOM     22  S   UNL     1      50.338   7.480  15.693  0.00  0.00    +0.000 S 
ATOM     23  C   UNL     1      49.504   6.128  16.304  0.00  0.00    +0.000 A 
ATOM     24  N   UNL     1      49.880   5.539  17.468  0.00  0.00    +0.000 NA
ATOM     25  C   UNL     1      49.127   4.554  17.840  0.00  0.00    +0.000 A 
ATOM     26  N   UNL     1      48.034   4.080  17.145  0.00  0.00    +0.000 N 
ATOM     27  C   UNL     1      47.272   2.951  17.639  0.00  0.00    +0.000 C 
ATOM     28  C   UNL     1      47.671   4.609  15.914  0.00  0.00    +0.000 A 
ATOM     29  O   UNL     1      46.785   4.122  15.217  0.00  0.00    +0.000 OA
ATOM     30  C   UNL     1      48.444   5.764  15.495  0.00  0.00    +0.000 A 
ENDBRANCH  17  20
ENDBRANCH   2  16
TORSDOF 5
ENDMDL
MODEL 3
REMARK VINA RESULT:    -8.142      1.780      2.258
REMARK INTER + INTRA:         -11.172
REMARK INTER:                 -10.998
REMARK INTRA:                  -0.174
REMARK UNBOUND:                -0.650
REMARK  Name = 
REMARK  7 active torsions:
REMARK  status: ('A' for Active; 'I' for Inactive)
REMARK    1  A    between atoms: C_1  and  C_2
REMARK    2  A    between atoms: C_2  and  N_3
REMARK    3  A    between atoms: C_2  and  C_17
REMARK    4  A    between atoms: C_4  and  C_6
REMARK    5  A    between atoms: N_12  and  C_13
REMARK    6  A    between atoms: C_20  and  O_21
REMARK    7  A    between atoms: O_21  and  C_22
REMARK                            x       y       z     vdW  Elec       q    Type
REMARK                         _______ _______ _______ _____ _____    ______ ____
ROOT
ATOM      1  C   UNL     1      46.249   7.646  12.587  0.00  0.00    +0.000 C 
ATOM      2  C   UNL     1      45.342   6.454  12.898  0.00  0.00    +0.000 C 
ENDROOT
BRANCH   2   3
ATOM      3  C   UNL     1      45.124   5.584  11.665  0.00  0.00    +0.000 A 
ATOM      4  C   UNL     1      45.824   5.863  10.493  0.00  0.00    +0.000 A 
ATOM      5  C   UNL     1      45.621   5.061   9.374  0.00  0.00    +0.000 A 
ATOM      6  C   UNL     1      44.764   3.965   9.460  0.00  0.00    +0.000 A 
ATOM      7  C   UNL     1      44.054   3.799  10.638  0.00  0.00    +0.000 A 
ATOM      8  N   UNL     1      44.209   4.581  11.734  0.00  0.00    +0.000 NA
BRANCH   6   9
ATOM      9  O   UNL     1      44.543   3.054   8.456  0.00  0.00    +0.000 OA
BRANCH   9  10
ATOM     10  C   UNL     1      45.619   2.589   7.731  0.00  0.00    +0.000 A 
ATOM     11  C   UNL     1      46.338   1.434   8.060  0.00  0.00    +0.000 A 
ATOM     12  C   UNL     1      47.477   1.091   7.334  0.00  0.00    +0.000 A 
ATOM     13  C   UNL     1      47.856   1.856   6.233  0.00  0.00    +0.000 A 
ATOM     14  C   UNL     1      47.085   2.954   5.846  0.00  0.00    +0.000 A 
ATOM     15  C   UNL     1      45.964   3.319   6.595  0.00  0.00    +0.000 A 
ENDBRANCH   9  10
ENDBRANCH   6   9
ENDBRANCH   2   3
BRANCH   2  16
ATOM     16  N   UNL     1      45.920   5.673  13.978  0.00  0.00    +0.000 N 
ATOM     17  C   UNL     1      47.269   5.465  14.103  0.00  0.00    +0.000 C 
ATOM     18  O   UNL     1      48.063   5.758  13.211  0.00  0.00    +0.000 OA
ATOM     19  H   UNL     1      45.351   5.644  14.819  0.00  0.00    +0.000 HD
BRANCH  17  20
ATOM     20  C   UNL     1      47.720   4.838  15.352  0.00  0.00    +0.000 A 
ATOM     21  C   UNL     1      47.472   3.491  15.580  0.00  0.00    +0.000 A 
ATOM     22  S   UNL     1      48.098   2.925  17.063  0.00  0.00    +0.000 S 
ATOM     23  C   UNL     1      48.761   4.449  17.429  0.00  0.00    +0.000 A 
ATOM     24  N   UNL     1      49.504   4.639  18.550  0.00  0.00    +0.000 NA
ATOM     25  C   UNL     1      49.988   5.833  18.678  0.00  0.00    +0.000 A 
ATOM     26  N   UNL     1      49.785   6.874  17.795  0.00  0.00    +0.000 N 
ATOM     27  C   UNL     1      50.355   8.182  18.046  0.00  0.00    +0.000 C 
ATOM     28  C   UNL     1      48.968   6.732  16.681  0.00  0.00    +0.000 A 
ATOM     29  O   UNL     1      48.669   7.676  15.954  0.00  0.00    +0.000 OA
ATOM     30  C   UNL     1      48.464   5.389  16.462  0.00  0.00    +0.000 A 
ENDBRANCH  17  20
ENDBRANCH   2  16
TORSDOF 5
ENDMDL
MODEL 4
REMARK VINA RESULT:    -7.913      2.609      3.578
REMARK INTER + INTRA:         -10.876
REMARK INTER:                  -9.878
REMARK INTRA:                  -0.998
REMARK UNBOUND:                -0.650
REMARK  Name = 
REMARK  7 active torsions:
REMARK  status: ('A' for Active; 'I' for Inactive)
REMARK    1  A    between atoms: C_1  and  C_2
REMARK    2  A    between atoms: C_2  and  N_3
REMARK    3  A    between atoms: C_2  and  C_17
REMARK    4  A    between atoms: C_4  and  C_6
REMARK    5  A    between atoms: N_12  and  C_13
REMARK    6  A    between atoms: C_20  and  O_21
REMARK    7  A    between atoms: O_21  and  C_22
REMARK                            x       y       z     vdW  Elec       q    Type
REMARK                         _______ _______ _______ _____ _____    ______ ____
ROOT
ATOM      1  C   UNL     1      47.129   4.061  16.377  0.00  0.00    +0.000 C 
ATOM      2  C   UNL     1      47.683   4.808  15.162  0.00  0.00    +0.000 C 
ENDROOT
BRANCH   2   3
ATOM      3  C   UNL     1      46.779   4.641  13.945  0.00  0.00    +0.000 A 
ATOM      4  C   UNL     1      46.368   5.767  13.234  0.00  0.00    +0.000 A 
ATOM      5  C   UNL     1      45.546   5.603  12.122  0.00  0.00    +0.000 A 
ATOM      6  C   UNL     1      45.192   4.319  11.711  0.00  0.00    +0.000 A 
ATOM      7  C   UNL     1      45.584   3.259  12.514  0.00  0.00    +0.000 A 
ATOM      8  N   UNL     1      46.360   3.390  13.617  0.00  0.00    +0.000 NA
BRANCH   6   9
ATOM      9  O   UNL     1      44.458   4.022  10.589  0.00  0.00    +0.000 OA
BRANCH   9  10
ATOM     10  C   UNL     1      45.106   3.506   9.488  0.00  0.00    +0.000 A 
ATOM     11  C   UNL     1      45.216   2.136   9.222  0.00  0.00    +0.000 A 
ATOM     12  C   UNL     1      45.976   1.694   8.141  0.00  0.00    +0.000 A 
ATOM     13  C   UNL     1      46.564   2.619   7.281  0.00  0.00    +0.000 A 
ATOM     14  C   UNL     1      46.376   3.987   7.490  0.00  0.00    +0.000 A 
ATOM     15  C   UNL     1      45.644   4.430   8.594  0.00  0.00    +0.000 A 
ENDBRANCH   9  10
ENDBRANCH   6   9
ENDBRANCH   2   3
BRANCH   2  16
ATOM     16  N   UNL     1      47.841   6.216  15.490  0.00  0.00    +0.000 N 
ATOM     17  C   UNL     1      49.063   6.787  15.733  0.00  0.00    +0.000 C 
ATOM     18  O   UNL     1      50.083   6.117  15.880  0.00  0.00    +0.000 OA
ATOM     19  H   UNL     1      47.096   6.808  15.138  0.00  0.00    +0.000 HD
BRANCH  17  20
ATOM     20  C   UNL     1      49.087   8.252  15.842  0.00  0.00    +0.000 A 
ATOM     21  C   UNL     1      49.606   9.016  14.804  0.00  0.00    +0.000 A 
ATOM     22  S   UNL     1      49.520  10.696  15.088  0.00  0.00    +0.000 S 
ATOM     23  C   UNL     1      48.746  10.461  16.585  0.00  0.00    +0.000 A 
ATOM     24  N   UNL     1      48.325  11.516  17.330  0.00  0.00    +0.000 NA
ATOM     25  C   UNL     1      47.708  11.191  18.420  0.00  0.00    +0.000 A 
ATOM     26  N   UNL     1      47.483   9.902  18.855  0.00  0.00    +0.000 N 
ATOM     27  C   UNL     1      46.800   9.649  20.108  0.00  0.00    +0.000 C 
ATOM     28  C   UNL     1      47.968   8.805  18.156  0.00  0.00    +0.000 A 
ATOM     29  O   UNL     1      47.894   7.657  18.588  0.00  0.00    +0.000 OA
ATOM     30  C   UNL     1      48.603   9.121  16.890  0.00  0.00    +0.000 A 
ENDBRANCH  17  20
ENDBRANCH   2  16
TORSDOF 5
ENDMDL
MODEL 5
REMARK VINA RESULT:    -7.857      2.726      4.255
REMARK INTER + INTRA:         -10.803
REMARK INTER:                  -9.635
REMARK INTRA:                  -1.168
REMARK UNBOUND:                -0.650
REMARK  Name = 
REMARK  7 active torsions:
REMARK  status: ('A' for Active; 'I' for Inactive)
REMARK    1  A    between atoms: C_1  and  C_2
REMARK    2  A    between atoms: C_2  and  N_3
REMARK    3  A    between atoms: C_2  and  C_17
REMARK    4  A    between atoms: C_4  and  C_6
REMARK    5  A    between atoms: N_12  and  C_13
REMARK    6  A    between atoms: C_20  and  O_21
REMARK    7  A    between atoms: O_21  and  C_22
REMARK                            x       y       z     vdW  Elec       q    Type
REMARK                         _______ _______ _______ _____ _____    ______ ____
ROOT
ATOM      1  C   UNL     1      47.052   3.964  16.356  0.00  0.00    +0.000 C 
ATOM      2  C   UNL     1      47.623   4.705  15.145  0.00  0.00    +0.000 C 
ENDROOT
BRANCH   2   3
ATOM      3  C   UNL     1      46.725   4.548  13.923  0.00  0.00    +0.000 A 
ATOM      4  C   UNL     1      46.252   5.683  13.266  0.00  0.00    +0.000 A 
ATOM      5  C   UNL     1      45.436   5.529  12.149  0.00  0.00    +0.000 A 
ATOM      6  C   UNL     1      45.150   4.250  11.677  0.00  0.00    +0.000 A 
ATOM      7  C   UNL     1      45.600   3.174  12.427  0.00  0.00    +0.000 A 
ATOM      8  N   UNL     1      46.372   3.294  13.535  0.00  0.00    +0.000 NA
BRANCH   6   9
ATOM      9  O   UNL     1      44.428   3.968  10.543  0.00  0.00    +0.000 OA
BRANCH   9  10
ATOM     10  C   UNL     1      45.091   3.480   9.437  0.00  0.00    +0.000 A 
ATOM     11  C   UNL     1      45.225   2.117   9.150  0.00  0.00    +0.000 A 
ATOM     12  C   UNL     1      45.998   1.706   8.066  0.00  0.00    +0.000 A 
ATOM     13  C   UNL     1      46.577   2.654   7.225  0.00  0.00    +0.000 A 
ATOM     14  C   UNL     1      46.365   4.014   7.455  0.00  0.00    +0.000 A 
ATOM     15  C   UNL     1      45.619   4.428   8.562  0.00  0.00    +0.000 A 
ENDBRANCH   9  10
ENDBRANCH   6   9
ENDBRANCH   2   3
BRANCH   2  16
ATOM     16  N   UNL     1      47.795   6.110  15.474  0.00  0.00    +0.000 N 
ATOM     17  C   UNL     1      48.985   6.627  15.917  0.00  0.00    +0.000 C 
ATOM     18  O   UNL     1      49.928   5.911  16.249  0.00  0.00    +0.000 OA
ATOM     19  H   UNL     1      47.154   6.730  14.989  0.00  0.00    +0.000 HD
BRANCH  17  20
ATOM     20  C   UNL     1      49.067   8.091  16.007  0.00  0.00    +0.000 A 
ATOM     21  C   UNL     1      49.186   8.703  17.247  0.00  0.00    +0.000 A 
ATOM     22  S   UNL     1      49.306  10.403  17.159  0.00  0.00    +0.000 S 
ATOM     23  C   UNL     1      49.248  10.375  15.458  0.00  0.00    +0.000 A 
ATOM     24  N   UNL     1      49.374  11.516  14.733  0.00  0.00    +0.000 NA
ATOM     25  C   UNL     1      49.362  11.342  13.450  0.00  0.00    +0.000 A 
ATOM     26  N   UNL     1      49.215  10.128  12.812  0.00  0.00    +0.000 N 
ATOM     27  C   UNL     1      49.192  10.047  11.365  0.00  0.00    +0.000 C 
ATOM     28  C   UNL     1      49.007   8.954  13.524  0.00  0.00    +0.000 A 
ATOM     29  O   UNL     1      48.745   7.886  12.979  0.00  0.00    +0.000 OA
ATOM     30  C   UNL     1      49.086   9.094  14.966  0.00  0.00    +0.000 A 
ENDBRANCH  17  20
ENDBRANCH   2  16
TORSDOF 5
ENDMDL
MODEL 6
REMARK VINA RESULT:    -7.703      2.209      3.508
REMARK INTER + INTRA:         -10.605
REMARK INTER:                  -9.446
REMARK INTRA:                  -1.159
REMARK UNBOUND:                -0.650
REMARK  Name = 
REMARK  7 active torsions:
REMARK  status: ('A' for Active; 'I' for Inactive)
REMARK    1  A    between atoms: C_1  and  C_2
REMARK    2  A    between atoms: C_2  and  N_3
REMARK    3  A    between atoms: C_2  and  C_17
REMARK    4  A    between atoms: C_4  and  C_6
REMARK    5  A    between atoms: N_12  and  C_13
REMARK    6  A    between atoms: C_20  and  O_21
REMARK    7  A    between atoms: O_21  and  C_22
REMARK                            x       y       z     vdW  Elec       q    Type
REMARK                         _______ _______ _______ _____ _____    ______ ____
ROOT
ATOM      1  C   UNL     1      48.086   9.239  12.353  0.00  0.00    +0.000 C 
ATOM      2  C   UNL     1      47.461   8.268  13.356  0.00  0.00    +0.000 C 
ENDROOT
BRANCH   2   3
ATOM      3  C   UNL     1      46.534   7.274  12.666  0.00  0.00    +0.000 A 
ATOM      4  C   UNL     1      45.420   7.741  11.970  0.00  0.00    +0.000 A 
ATOM      5  C   UNL     1      44.582   6.825  11.341  0.00  0.00    +0.000 A 
ATOM      6  C   UNL     1      44.897   5.469  11.372  0.00  0.00    +0.000 A 
ATOM      7  C   UNL     1      45.981   5.081  12.144  0.00  0.00    +0.000 A 
ATOM      8  N   UNL     1      46.798   5.946  12.791  0.00  0.00    +0.000 NA
BRANCH   6   9
ATOM      9  O   UNL     1      44.198   4.479  10.724  0.00  0.00    +0.000 OA
BRANCH   9  10
ATOM     10  C   UNL     1      44.822   3.777   9.716  0.00  0.00    +0.000 A 
ATOM     11  C   UNL     1      44.847   2.379   9.642  0.00  0.00    +0.000 A 
ATOM     12  C   UNL     1      45.587   1.747   8.645  0.00  0.00    +0.000 A 
ATOM     13  C   UNL     1      46.240   2.506   7.677  0.00  0.00    +0.000 A 
ATOM     14  C   UNL     1      46.136   3.898   7.693  0.00  0.00    +0.000 A 
ATOM     15  C   UNL     1      45.424   4.534   8.712  0.00  0.00    +0.000 A 
ENDBRANCH   9  10
ENDBRANCH   6   9
ENDBRANCH   2   3
BRANCH   2  16
ATOM     16  N   UNL     1      48.514   7.569  14.074  0.00  0.00    +0.000 N 
ATOM     17  C   UNL     1      48.885   7.899  15.352  0.00  0.00    +0.000 C 
ATOM     18  O   UNL     1      48.491   8.924  15.905  0.00  0.00    +0.000 OA
ATOM     19  H   UNL     1      48.663   6.614  13.764  0.00  0.00    +0.000 HD
BRANCH  17  20
ATOM     20  C   UNL     1      49.811   6.976  16.021  0.00  0.00    +0.000 A 
ATOM     21  C   UNL     1      51.132   7.349  16.228  0.00  0.00    +0.000 A 
ATOM     22  S   UNL     1      52.051   6.170  17.052  0.00  0.00    +0.000 S 
ATOM     23  C   UNL     1      50.703   5.141  17.200  0.00  0.00    +0.000 A 
ATOM     24  N   UNL     1      50.788   3.968  17.877  0.00  0.00    +0.000 NA
ATOM     25  C   UNL     1      49.676   3.310  17.956  0.00  0.00    +0.000 A 
ATOM     26  N   UNL     1      48.477   3.705  17.400  0.00  0.00    +0.000 N 
ATOM     27  C   UNL     1      47.292   2.879  17.525  0.00  0.00    +0.000 C 
ATOM     28  C   UNL     1      48.376   4.860  16.636  0.00  0.00    +0.000 A 
ATOM     29  O   UNL     1      47.355   5.164  16.025  0.00  0.00    +0.000 OA
ATOM     30  C   UNL     1      49.582   5.664  16.584  0.00  0.00    +0.000 A 
ENDBRANCH  17  20
ENDBRANCH   2  16
TORSDOF 5
ENDMDL
MODEL 7
REMARK VINA RESULT:    -7.514      2.416      3.929
REMARK INTER + INTRA:         -10.361
REMARK INTER:                  -9.503
REMARK INTRA:                  -0.857
REMARK UNBOUND:                -0.650
REMARK  Name = 
REMARK  7 active torsions:
REMARK  status: ('A' for Active; 'I' for Inactive)
REMARK    1  A    between atoms: C_1  and  C_2
REMARK    2  A    between atoms: C_2  and  N_3
REMARK    3  A    between atoms: C_2  and  C_17
REMARK    4  A    between atoms: C_4  and  C_6
REMARK    5  A    between atoms: N_12  and  C_13
REMARK    6  A    between atoms: C_20  and  O_21
REMARK    7  A    between atoms: O_21  and  C_22
REMARK                            x       y       z     vdW  Elec       q    Type
REMARK                         _______ _______ _______ _____ _____    ______ ____
ROOT
ATOM      1  C   UNL     1      49.329   7.879  13.020  0.00  0.00    +0.000 C 
ATOM      2  C   UNL     1      47.963   7.969  13.702  0.00  0.00    +0.000 C 
ENDROOT
BRANCH   2   3
ATOM      3  C   UNL     1      46.928   7.103  12.992  0.00  0.00    +0.000 A 
ATOM      4  C   UNL     1      45.968   7.704  12.179  0.00  0.00    +0.000 A 
ATOM      5  C   UNL     1      45.030   6.904  11.534  0.00  0.00    +0.000 A 
ATOM      6  C   UNL     1      45.098   5.518  11.668  0.00  0.00    +0.000 A 
ATOM      7  C   UNL     1      46.037   5.006  12.549  0.00  0.00    +0.000 A 
ATOM      8  N   UNL     1      46.944   5.762  13.213  0.00  0.00    +0.000 NA
BRANCH   6   9
ATOM      9  O   UNL     1      44.285   4.620  11.020  0.00  0.00    +0.000 OA
BRANCH   9  10
ATOM     10  C   UNL     1      44.801   3.899   9.965  0.00  0.00    +0.000 A 
ATOM     11  C   UNL     1      44.686   2.509   9.844  0.00  0.00    +0.000 A 
ATOM     12  C   UNL     1      45.325   1.845   8.799  0.00  0.00    +0.000 A 
ATOM     13  C   UNL     1      46.015   2.572   7.832  0.00  0.00    +0.000 A 
ATOM     14  C   UNL     1      46.049   3.967   7.898  0.00  0.00    +0.000 A 
ATOM     15  C   UNL     1      45.439   4.630   8.965  0.00  0.00    +0.000 A 
ENDBRANCH   9  10
ENDBRANCH   6   9
ENDBRANCH   2   3
BRANCH   2  16
ATOM     16  N   UNL     1      48.089   7.575  15.095  0.00  0.00    +0.000 N 
ATOM     17  C   UNL     1      48.490   8.443  16.077  0.00  0.00    +0.000 C 
ATOM     18  O   UNL     1      48.955   9.552  15.822  0.00  0.00    +0.000 OA
ATOM     19  H   UNL     1      47.497   6.793  15.359  0.00  0.00    +0.000 HD
BRANCH  17  20
ATOM     20  C   UNL     1      48.368   7.963  17.460  0.00  0.00    +0.000 A 
ATOM     21  C   UNL     1      47.877   8.810  18.446  0.00  0.00    +0.000 A 
ATOM     22  S   UNL     1      47.770   8.075  19.982  0.00  0.00    +0.000 S 
ATOM     23  C   UNL     1      48.332   6.588  19.373  0.00  0.00    +0.000 A 
ATOM     24  N   UNL     1      48.415   5.491  20.168  0.00  0.00    +0.000 NA
ATOM     25  C   UNL     1      48.809   4.417  19.563  0.00  0.00    +0.000 A 
ATOM     26  N   UNL     1      49.153   4.335  18.230  0.00  0.00    +0.000 N 
ATOM     27  C   UNL     1      49.608   3.084  17.655  0.00  0.00    +0.000 C 
ATOM     28  C   UNL     1      49.154   5.455  17.410  0.00  0.00    +0.000 A 
ATOM     29  O   UNL     1      49.579   5.433  16.257  0.00  0.00    +0.000 OA
ATOM     30  C   UNL     1      48.648   6.665  18.030  0.00  0.00    +0.000 A 
ENDBRANCH  17  20
ENDBRANCH   2  16
TORSDOF 5
ENDMDL
MODEL 8
REMARK VINA RESULT:    -7.460      2.669      3.871
REMARK INTER + INTRA:         -10.291
REMARK INTER:                  -9.426
REMARK INTRA:                  -0.865
REMARK UNBOUND:                -0.650
REMARK  Name = 
REMARK  7 active torsions:
REMARK  status: ('A' for Active; 'I' for Inactive)
REMARK    1  A    between atoms: C_1  and  C_2
REMARK    2  A    between atoms: C_2  and  N_3
REMARK    3  A    between atoms: C_2  and  C_17
REMARK    4  A    between atoms: C_4  and  C_6
REMARK    5  A    between atoms: N_12  and  C_13
REMARK    6  A    between atoms: C_20  and  O_21
REMARK    7  A    between atoms: O_21  and  C_22
REMARK                            x       y       z     vdW  Elec       q    Type
REMARK                         _______ _______ _______ _____ _____    ______ ____
ROOT
ATOM      1  C   UNL     1      48.463   8.414  13.012  0.00  0.00    +0.000 C 
ATOM      2  C   UNL     1      47.477   7.547  13.796  0.00  0.00    +0.000 C 
ENDROOT
BRANCH   2   3
ATOM      3  C   UNL     1      46.546   6.780  12.863  0.00  0.00    +0.000 A 
ATOM      4  C   UNL     1      45.764   7.477  11.944  0.00  0.00    +0.000 A 
ATOM      5  C   UNL     1      44.921   6.767  11.095  0.00  0.00    +0.000 A 
ATOM      6  C   UNL     1      44.910   5.374  11.142  0.00  0.00    +0.000 A 
ATOM      7  C   UNL     1      45.664   4.762  12.132  0.00  0.00    +0.000 A 
ATOM      8  N   UNL     1      46.472   5.428  12.991  0.00  0.00    +0.000 NA
BRANCH   6   9
ATOM      9  O   UNL     1      44.187   4.560  10.305  0.00  0.00    +0.000 OA
BRANCH   9  10
ATOM     10  C   UNL     1      44.863   3.758   9.411  0.00  0.00    +0.000 A 
ATOM     11  C   UNL     1      44.842   2.359   9.452  0.00  0.00    +0.000 A 
ATOM     12  C   UNL     1      45.636   1.625   8.572  0.00  0.00    +0.000 A 
ATOM     13  C   UNL     1      46.390   2.281   7.603  0.00  0.00    +0.000 A 
ATOM     14  C   UNL     1      46.337   3.673   7.499  0.00  0.00    +0.000 A 
ATOM     15  C   UNL     1      45.570   4.412   8.403  0.00  0.00    +0.000 A 
ENDBRANCH   9  10
ENDBRANCH   6   9
ENDBRANCH   2   3
BRANCH   2  16
ATOM     16  N   UNL     1      48.211   6.630  14.652  0.00  0.00    +0.000 N 
ATOM     17  C   UNL     1      48.647   6.975  15.905  0.00  0.00    +0.000 C 
ATOM     18  O   UNL     1      48.620   8.134  16.313  0.00  0.00    +0.000 OA
ATOM     19  H   UNL     1      48.029   5.650  14.461  0.00  0.00    +0.000 HD
BRANCH  17  20
ATOM     20  C   UNL     1      49.186   5.885  16.730  0.00  0.00    +0.000 A 
ATOM     21  C   UNL     1      48.326   4.952  17.293  0.00  0.00    +0.000 A 
ATOM     22  S   UNL     1      49.128   3.739  18.186  0.00  0.00    +0.000 S 
ATOM     23  C   UNL     1      50.654   4.394  17.813  0.00  0.00    +0.000 A 
ATOM     24  N   UNL     1      51.797   3.785  18.221  0.00  0.00    +0.000 NA
ATOM     25  C   UNL     1      52.885   4.363  17.823  0.00  0.00    +0.000 A 
ATOM     26  N   UNL     1      52.945   5.515  17.067  0.00  0.00    +0.000 N 
ATOM     27  C   UNL     1      54.220   6.095  16.696  0.00  0.00    +0.000 C 
ATOM     28  C   UNL     1      51.796   6.204  16.701  0.00  0.00    +0.000 A 
ATOM     29  O   UNL     1      51.828   7.297  16.141  0.00  0.00    +0.000 OA
ATOM     30  C   UNL     1      50.552   5.550  17.063  0.00  0.00    +0.000 A 
ENDBRANCH  17  20
ENDBRANCH   2  16
TORSDOF 5
ENDMDL
MODEL 9
REMARK VINA RESULT:    -7.264      2.587      3.885
REMARK INTER + INTRA:         -10.037
REMARK INTER:                  -9.733
REMARK INTRA:                  -0.304
REMARK UNBOUND:                -0.650
REMARK  Name = 
REMARK  7 active torsions:
REMARK  status: ('A' for Active; 'I' for Inactive)
REMARK    1  A    between atoms: C_1  and  C_2
REMARK    2  A    between atoms: C_2  and  N_3
REMARK    3  A    between atoms: C_2  and  C_17
REMARK    4  A    between atoms: C_4  and  C_6
REMARK    5  A    between atoms: N_12  and  C_13
REMARK    6  A    between atoms: C_20  and  O_21
REMARK    7  A    between atoms: O_21  and  C_22
REMARK                            x       y       z     vdW  Elec       q    Type
REMARK                         _______ _______ _______ _____ _____    ______ ____
ROOT
ATOM      1  C   UNL     1      43.062   5.197  13.541  0.00  0.00    +0.000 C 
ATOM      2  C   UNL     1      44.496   4.852  13.135  0.00  0.00    +0.000 C 
ENDROOT
BRANCH   2   3
ATOM      3  C   UNL     1      44.570   4.399  11.681  0.00  0.00    +0.000 A 
ATOM      4  C   UNL     1      44.047   3.159  11.319  0.00  0.00    +0.000 A 
ATOM      5  C   UNL     1      44.117   2.756   9.989  0.00  0.00    +0.000 A 
ATOM      6  C   UNL     1      44.659   3.617   9.036  0.00  0.00    +0.000 A 
ATOM      7  C   UNL     1      45.220   4.801   9.490  0.00  0.00    +0.000 A 
ATOM      8  N   UNL     1      45.193   5.206  10.782  0.00  0.00    +0.000 NA
BRANCH   6   9
ATOM      9  O   UNL     1      44.710   3.372   7.686  0.00  0.00    +0.000 OA
BRANCH   9  10
ATOM     10  C   UNL     1      45.842   2.792   7.158  0.00  0.00    +0.000 A 
ATOM     11  C   UNL     1      46.430   1.628   7.668  0.00  0.00    +0.000 A 
ATOM     12  C   UNL     1      47.633   1.165   7.139  0.00  0.00    +0.000 A 
ATOM     13  C   UNL     1      48.212   1.818   6.053  0.00  0.00    +0.000 A 
ATOM     14  C   UNL     1      47.577   2.922   5.482  0.00  0.00    +0.000 A 
ATOM     15  C   UNL     1      46.390   3.408   6.034  0.00  0.00    +0.000 A 
ENDBRANCH   9  10
ENDBRANCH   6   9
ENDBRANCH   2   3
BRANCH   2  16
ATOM     16  N   UNL     1      45.353   6.006  13.354  0.00  0.00    +0.000 N 
ATOM     17  C   UNL     1      46.720   5.921  13.367  0.00  0.00    +0.000 C 
ATOM     18  O   UNL     1      47.311   4.843  13.389  0.00  0.00    +0.000 OA
ATOM     19  H   UNL     1      44.930   6.890  13.092  0.00  0.00    +0.000 HD
BRANCH  17  20
ATOM     20  C   UNL     1      47.452   7.194  13.389  0.00  0.00    +0.000 A 
ATOM     21  C   UNL     1      48.742   7.244  13.902  0.00  0.00    +0.000 A 
ATOM     22  S   UNL     1      49.451   8.793  13.813  0.00  0.00    +0.000 S 
ATOM     23  C   UNL     1      48.077   9.440  13.045  0.00  0.00    +0.000 A 
ATOM     24  N   UNL     1      48.051  10.731  12.626  0.00  0.00    +0.000 NA
ATOM     25  C   UNL     1      46.964  11.075  12.013  0.00  0.00    +0.000 A 
ATOM     26  N   UNL     1      45.878  10.252  11.793  0.00  0.00    +0.000 N 
ATOM     27  C   UNL     1      44.696  10.747  11.116  0.00  0.00    +0.000 C 
ATOM     28  C   UNL     1      45.843   8.952  12.278  0.00  0.00    +0.000 A 
ATOM     29  O   UNL     1      44.841   8.245  12.209  0.00  0.00    +0.000 OA
ATOM     30  C   UNL     1      47.071   8.503  12.907  0.00  0.00    +0.000 A 
ENDBRANCH  17  20
ENDBRANCH   2  16
TORSDOF 5
ENDMDL
