MODEL 1
REMARK VINA RESULT:    -8.297      0.000      0.000
REMARK INTER + INTRA:         -13.447
REMARK INTER:                 -12.177
REMARK INTRA:                  -1.270
REMARK UNBOUND:                -1.270
REMARK  Name = 
REMARK  9 active torsions:
REMARK  status: ('A' for Active; 'I' for Inactive)
REMARK    1  A    between atoms: C_2  and  C_22
REMARK    2  A    between atoms: N_3  and  C_4
REMARK    3  A    between atoms: C_4  and  C_5
REMARK    4  A    between atoms: C_8  and  C_9
REMARK    5  A    between atoms: C_9  and  O_10
REMARK    6  A    between atoms: C_9  and  C_11
REMARK    7  A    between atoms: C_9  and  C_13
REMARK    8  A    between atoms: C_11  and  O_12
REMARK    9  A    between atoms: C_13  and  C_14
REMARK                            x       y       z     vdW  Elec       q    Type
REMARK                         _______ _______ _______ _____ _____    ______ ____
ROOT
ATOM      1  C   UNL     1      47.369   6.020  13.172  0.00  0.00    +0.000 A 
ATOM      2  C   UNL     1      46.716   6.722  12.158  0.00  0.00    +0.000 A 
ATOM      3  C   UNL     1      45.582   6.187  11.534  0.00  0.00    +0.000 A 
ATOM      4  C   UNL     1      45.063   4.933  11.900  0.00  0.00    +0.000 A 
ATOM      5  C   UNL     1      45.720   4.252  12.945  0.00  0.00    +0.000 A 
ATOM      6  C   UNL     1      46.850   4.788  13.572  0.00  0.00    +0.000 A 
ENDROOT
BRANCH   1   7
ATOM      7  C   UNL     1      48.570   6.608  13.862  0.00  0.00    +0.000 C 
BRANCH   7  10
ATOM      8  O   UNL     1      50.480   6.245  15.893  0.00  0.00    +0.000 OA
ATOM      9  C   UNL     1      49.345   6.602  16.200  0.00  0.00    +0.000 C 
ATOM     10  N   UNL     1      48.338   6.732  15.279  0.00  0.00    +0.000 N 
ATOM     11  H   UNL     1      47.488   7.215  15.548  0.00  0.00    +0.000 HD
BRANCH   9  12
ATOM     12  C   UNL     1      48.980   6.855  17.599  0.00  0.00    +0.000 A 
ATOM     13  C   UNL     1      48.674   8.145  18.008  0.00  0.00    +0.000 A 
ATOM     14  S   UNL     1      48.291   8.266  19.665  0.00  0.00    +0.000 S 
ATOM     15  C   UNL     1      48.475   6.590  19.885  0.00  0.00    +0.000 A 
ATOM     16  N   UNL     1      48.255   6.016  21.100  0.00  0.00    +0.000 NA
ATOM     17  C   UNL     1      48.378   4.731  21.112  0.00  0.00    +0.000 A 
ATOM     18  N   UNL     1      48.718   3.968  20.024  0.00  0.00    +0.000 N 
ATOM     19  C   UNL     1      49.035   4.512  18.803  0.00  0.00    +0.000 A 
ATOM     20  O   UNL     1      49.485   3.818  17.897  0.00  0.00    +0.000 OA
ATOM     21  C   UNL     1      48.852   5.949  18.718  0.00  0.00    +0.000 A 
ATOM     22  H   UNL     1      48.832   2.969  20.109  0.00  0.00    +0.000 HD
ENDBRANCH   9  12
ENDBRANCH   7  10
ENDBRANCH   1   7
BRANCH   4  23
ATOM     23  C   UNL     1      43.778   4.386  11.247  0.00  0.00    +0.000 C 
BRANCH  23  24
ATOM     24  O   UNL     1      43.528   3.002  11.581  0.00  0.00    +0.000 OA
ATOM     25  H   UNL     1      42.713   2.969  12.098  0.00  0.00    +0.000 HD
ENDBRANCH  23  24
BRANCH  23  26
ATOM     26  C   UNL     1      42.554   5.169  11.808  0.00  0.00    +0.000 C 
BRANCH  26  27
ATOM     27  O   UNL     1      42.644   5.358  13.228  0.00  0.00    +0.000 OA
ATOM     28  H   UNL     1      41.849   4.956  13.614  0.00  0.00    +0.000 HD
ENDBRANCH  26  27
ENDBRANCH  23  26
BRANCH  23  29
ATOM     29  C   UNL     1      43.739   4.484   9.693  0.00  0.00    +0.000 C 
BRANCH  29  30
ATOM     30  C   UNL     1      44.757   3.640   8.959  0.00  0.00    +0.000 A 
ATOM     31  C   UNL     1      45.732   4.226   8.152  0.00  0.00    +0.000 A 
ATOM     32  C   UNL     1      46.648   3.415   7.490  0.00  0.00    +0.000 A 
ATOM     33  C   UNL     1      46.585   2.040   7.662  0.00  0.00    +0.000 A 
ATOM     34  C   UNL     1      45.606   1.533   8.498  0.00  0.00    +0.000 A 
ATOM     35  N   UNL     1      44.702   2.298   9.154  0.00  0.00    +0.000 NA
ENDBRANCH  29  30
ENDBRANCH  23  29
ENDBRANCH   4  23
TORSDOF 9
ENDMDL
MODEL 2
REMARK VINA RESULT:    -8.161      1.378      1.736
REMARK INTER + INTRA:         -13.248
REMARK INTER:                 -12.303
REMARK INTRA:                  -0.946
REMARK UNBOUND:                -1.270
REMARK  Name = 
REMARK  9 active torsions:
REMARK  status: ('A' for Active; 'I' for Inactive)
REMARK    1  A    between atoms: C_2  and  C_22
REMARK    2  A    between atoms: N_3  and  C_4
REMARK    3  A    between atoms: C_4  and  C_5
REMARK    4  A    between atoms: C_8  and  C_9
REMARK    5  A    between atoms: C_9  and  O_10
REMARK    6  A    between atoms: C_9  and  C_11
REMARK    7  A    between atoms: C_9  and  C_13
REMARK    8  A    between atoms: C_11  and  O_12
REMARK    9  A    between atoms: C_13  and  C_14
REMARK                            x       y       z     vdW  Elec       q    Type
REMARK                         _______ _______ _______ _____ _____    ______ ____
ROOT
ATOM      1  C   UNL     1      46.778   6.975  12.884  0.00  0.00    +0.000 A 
ATOM      2  C   UNL     1      46.728   5.672  13.383  0.00  0.00    +0.000 A 
ATOM      3  C   UNL     1      46.001   4.679  12.716  0.00  0.00    +0.000 A 
ATOM      4  C   UNL     1      45.298   4.952  11.528  0.00  0.00    +0.000 A 
ATOM      5  C   UNL     1      45.385   6.266  11.025  0.00  0.00    +0.000 A 
ATOM      6  C   UNL     1      46.115   7.258  11.690  0.00  0.00    +0.000 A 
ENDROOT
BRANCH   1   7
ATOM      7  C   UNL     1      47.583   8.035  13.586  0.00  0.00    +0.000 C 
BRANCH   7  10
ATOM      8  O   UNL     1      50.166   7.393  14.491  0.00  0.00    +0.000 OA
ATOM      9  C   UNL     1      49.234   7.382  15.292  0.00  0.00    +0.000 C 
ATOM     10  N   UNL     1      47.936   7.613  14.918  0.00  0.00    +0.000 N 
ATOM     11  H   UNL     1      47.243   7.789  15.636  0.00  0.00    +0.000 HD
BRANCH   9  12
ATOM     12  C   UNL     1      49.453   7.056  16.706  0.00  0.00    +0.000 A 
ATOM     13  C   UNL     1      50.076   7.977  17.537  0.00  0.00    +0.000 A 
ATOM     14  S   UNL     1      50.268   7.434  19.141  0.00  0.00    +0.000 S 
ATOM     15  C   UNL     1      49.482   5.966  18.795  0.00  0.00    +0.000 A 
ATOM     16  N   UNL     1      49.282   5.034  19.767  0.00  0.00    +0.000 NA
ATOM     17  C   UNL     1      48.627   3.991  19.379  0.00  0.00    +0.000 A 
ATOM     18  N   UNL     1      48.169   3.787  18.103  0.00  0.00    +0.000 N 
ATOM     19  C   UNL     1      48.425   4.658  17.072  0.00  0.00    +0.000 A 
ATOM     20  O   UNL     1      48.138   4.371  15.913  0.00  0.00    +0.000 OA
ATOM     21  C   UNL     1      49.105   5.877  17.467  0.00  0.00    +0.000 A 
ATOM     22  H   UNL     1      47.692   2.933  17.856  0.00  0.00    +0.000 HD
ENDBRANCH   9  12
ENDBRANCH   7  10
ENDBRANCH   1   7
BRANCH   4  23
ATOM     23  C   UNL     1      44.555   3.834  10.772  0.00  0.00    +0.000 C 
BRANCH  23  24
ATOM     24  O   UNL     1      45.116   2.525  11.019  0.00  0.00    +0.000 OA
ATOM     25  H   UNL     1      44.410   1.965  11.366  0.00  0.00    +0.000 HD
ENDBRANCH  23  24
BRANCH  23  26
ATOM     26  C   UNL     1      43.091   3.755  11.299  0.00  0.00    +0.000 C 
BRANCH  26  27
ATOM     27  O   UNL     1      42.719   2.414  11.652  0.00  0.00    +0.000 OA
ATOM     28  H   UNL     1      42.101   2.484  12.398  0.00  0.00    +0.000 HD
ENDBRANCH  26  27
ENDBRANCH  23  26
BRANCH  23  29
ATOM     29  C   UNL     1      44.499   4.011   9.226  0.00  0.00    +0.000 C 
BRANCH  29  30
ATOM     30  C   UNL     1      45.499   3.195   8.438  0.00  0.00    +0.000 A 
ATOM     31  C   UNL     1      46.425   3.809   7.595  0.00  0.00    +0.000 A 
ATOM     32  C   UNL     1      47.326   3.023   6.884  0.00  0.00    +0.000 A 
ATOM     33  C   UNL     1      47.297   1.646   7.042  0.00  0.00    +0.000 A 
ATOM     34  C   UNL     1      46.367   1.110   7.915  0.00  0.00    +0.000 A 
ATOM     35  N   UNL     1      45.478   1.850   8.619  0.00  0.00    +0.000 NA
ENDBRANCH  29  30
ENDBRANCH  23  29
ENDBRANCH   4  23
TORSDOF 9
ENDMDL
MODEL 3
REMARK VINA RESULT:    -8.161      1.534      2.221
REMARK INTER + INTRA:         -13.248
REMARK INTER:                 -12.073
REMARK INTRA:                  -1.175
REMARK UNBOUND:                -1.270
REMARK  Name = 
REMARK  9 active torsions:
REMARK  status: ('A' for Active; 'I' for Inactive)
REMARK    1  A    between atoms: C_2  and  C_22
REMARK    2  A    between atoms: N_3  and  C_4
REMARK    3  A    between atoms: C_4  and  C_5
REMARK    4  A    between atoms: C_8  and  C_9
REMARK    5  A    between atoms: C_9  and  O_10
REMARK    6  A    between atoms: C_9  and  C_11
REMARK    7  A    between atoms: C_9  and  C_13
REMARK    8  A    between atoms: C_11  and  O_12
REMARK    9  A    between atoms: C_13  and  C_14
REMARK                            x       y       z     vdW  Elec       q    Type
REMARK                         _______ _______ _______ _____ _____    ______ ____
ROOT
ATOM      1  C   UNL     1      47.411   5.975  13.212  0.00  0.00    +0.000 A 
ATOM      2  C   UNL     1      46.937   6.558  12.036  0.00  0.00    +0.000 A 
ATOM      3  C   UNL     1      45.913   5.950  11.299  0.00  0.00    +0.000 A 
ATOM      4  C   UNL     1      45.329   4.739  11.710  0.00  0.00    +0.000 A 
ATOM      5  C   UNL     1      45.802   4.181  12.915  0.00  0.00    +0.000 A 
ATOM      6  C   UNL     1      46.822   4.790  13.654  0.00  0.00    +0.000 A 
ENDROOT
BRANCH   1   7
ATOM      7  C   UNL     1      48.491   6.643  14.019  0.00  0.00    +0.000 C 
BRANCH   7  10
ATOM      8  O   UNL     1      50.181   5.863  16.125  0.00  0.00    +0.000 OA
ATOM      9  C   UNL     1      49.067   6.309  16.390  0.00  0.00    +0.000 C 
ATOM     10  N   UNL     1      48.158   6.645  15.421  0.00  0.00    +0.000 N 
ATOM     11  H   UNL     1      47.342   7.188  15.681  0.00  0.00    +0.000 HD
BRANCH   9  12
ATOM     12  C   UNL     1      48.616   6.454  17.779  0.00  0.00    +0.000 A 
ATOM     13  C   UNL     1      48.673   5.365  18.638  0.00  0.00    +0.000 A 
ATOM     14  S   UNL     1      48.094   5.698  20.206  0.00  0.00    +0.000 S 
ATOM     15  C   UNL     1      47.792   7.324  19.807  0.00  0.00    +0.000 A 
ATOM     16  N   UNL     1      47.305   8.192  20.736  0.00  0.00    +0.000 NA
ATOM     17  C   UNL     1      47.173   9.405  20.313  0.00  0.00    +0.000 A 
ATOM     18  N   UNL     1      47.467   9.825  19.041  0.00  0.00    +0.000 N 
ATOM     19  C   UNL     1      47.875   8.967  18.049  0.00  0.00    +0.000 A 
ATOM     20  O   UNL     1      47.978   9.346  16.886  0.00  0.00    +0.000 OA
ATOM     21  C   UNL     1      48.099   7.602  18.488  0.00  0.00    +0.000 A 
ATOM     22  H   UNL     1      47.308  10.783  18.764  0.00  0.00    +0.000 HD
ENDBRANCH   9  12
ENDBRANCH   7  10
ENDBRANCH   1   7
BRANCH   4  23
ATOM     23  C   UNL     1      44.160   4.115  10.921  0.00  0.00    +0.000 C 
BRANCH  23  24
ATOM     24  O   UNL     1      44.027   2.694  11.152  0.00  0.00    +0.000 OA
ATOM     25  H   UNL     1      44.158   2.538  12.097  0.00  0.00    +0.000 HD
ENDBRANCH  23  24
BRANCH  23  26
ATOM     26  C   UNL     1      42.823   4.737  11.424  0.00  0.00    +0.000 C 
BRANCH  26  27
ATOM     27  O   UNL     1      42.568   6.016  10.825  0.00  0.00    +0.000 OA
ATOM     28  H   UNL     1      42.292   5.844   9.909  0.00  0.00    +0.000 HD
ENDBRANCH  26  27
ENDBRANCH  23  26
BRANCH  23  29
ATOM     29  C   UNL     1      44.231   4.312   9.378  0.00  0.00    +0.000 C 
BRANCH  29  30
ATOM     30  C   UNL     1      45.233   3.440   8.653  0.00  0.00    +0.000 A 
ATOM     31  C   UNL     1      46.187   3.995   7.801  0.00  0.00    +0.000 A 
ATOM     32  C   UNL     1      47.088   3.160   7.149  0.00  0.00    +0.000 A 
ATOM     33  C   UNL     1      47.031   1.793   7.376  0.00  0.00    +0.000 A 
ATOM     34  C   UNL     1      46.073   1.318   8.254  0.00  0.00    +0.000 A 
ATOM     35  N   UNL     1      45.184   2.107   8.902  0.00  0.00    +0.000 NA
ENDBRANCH  29  30
ENDBRANCH  23  29
ENDBRANCH   4  23
TORSDOF 9
ENDMDL
MODEL 4
REMARK VINA RESULT:    -7.723      1.617      2.031
REMARK INTER + INTRA:         -12.605
REMARK INTER:                 -11.113
REMARK INTRA:                  -1.492
REMARK UNBOUND:                -1.270
REMARK  Name = 
REMARK  9 active torsions:
REMARK  status: ('A' for Active; 'I' for Inactive)
REMARK    1  A    between atoms: C_2  and  C_22
REMARK    2  A    between atoms: N_3  and  C_4
REMARK    3  A    between atoms: C_4  and  C_5
REMARK    4  A    between atoms: C_8  and  C_9
REMARK    5  A    between atoms: C_9  and  O_10
REMARK    6  A    between atoms: C_9  and  C_11
REMARK    7  A    between atoms: C_9  and  C_13
REMARK    8  A    between atoms: C_11  and  O_12
REMARK    9  A    between atoms: C_13  and  C_14
REMARK                            x       y       z     vdW  Elec       q    Type
REMARK                         _______ _______ _______ _____ _____    ______ ____
ROOT
ATOM      1  C   UNL     1      47.473   6.434  12.904  0.00  0.00    +0.000 A 
ATOM      2  C   UNL     1      46.733   7.028  11.880  0.00  0.00    +0.000 A 
ATOM      3  C   UNL     1      45.594   6.396  11.363  0.00  0.00    +0.000 A 
ATOM      4  C   UNL     1      45.158   5.150  11.850  0.00  0.00    +0.000 A 
ATOM      5  C   UNL     1      45.903   4.581  12.902  0.00  0.00    +0.000 A 
ATOM      6  C   UNL     1      47.038   5.214  13.422  0.00  0.00    +0.000 A 
ENDROOT
BRANCH   1   7
ATOM      7  C   UNL     1      48.680   7.126  13.479  0.00  0.00    +0.000 C 
BRANCH   7  10
ATOM      8  O   UNL     1      48.500   8.343  16.005  0.00  0.00    +0.000 OA
ATOM      9  C   UNL     1      48.878   7.176  15.932  0.00  0.00    +0.000 C 
ATOM     10  N   UNL     1      49.060   6.534  14.736  0.00  0.00    +0.000 N 
ATOM     11  H   UNL     1      49.177   5.527  14.733  0.00  0.00    +0.000 HD
BRANCH   9  12
ATOM     12  C   UNL     1      49.218   6.411  17.137  0.00  0.00    +0.000 A 
ATOM     13  C   UNL     1      48.223   6.084  18.049  0.00  0.00    +0.000 A 
ATOM     14  S   UNL     1      48.791   5.212  19.399  0.00  0.00    +0.000 S 
ATOM     15  C   UNL     1      50.380   5.198  18.790  0.00  0.00    +0.000 A 
ATOM     16  N   UNL     1      51.381   4.570  19.465  0.00  0.00    +0.000 NA
ATOM     17  C   UNL     1      52.524   4.592  18.864  0.00  0.00    +0.000 A 
ATOM     18  N   UNL     1      52.760   5.200  17.657  0.00  0.00    +0.000 N 
ATOM     19  C   UNL     1      51.802   5.921  16.987  0.00  0.00    +0.000 A 
ATOM     20  O   UNL     1      52.087   6.582  15.992  0.00  0.00    +0.000 OA
ATOM     21  C   UNL     1      50.483   5.875  17.588  0.00  0.00    +0.000 A 
ATOM     22  H   UNL     1      53.686   5.211  17.257  0.00  0.00    +0.000 HD
ENDBRANCH   9  12
ENDBRANCH   7  10
ENDBRANCH   1   7
BRANCH   4  23
ATOM     23  C   UNL     1      43.868   4.499  11.313  0.00  0.00    +0.000 C 
BRANCH  23  24
ATOM     24  O   UNL     1      43.714   3.128  11.747  0.00  0.00    +0.000 OA
ATOM     25  H   UNL     1      44.223   2.572  11.143  0.00  0.00    +0.000 HD
ENDBRANCH  23  24
BRANCH  23  26
ATOM     26  C   UNL     1      42.639   5.253  11.901  0.00  0.00    +0.000 C 
BRANCH  26  27
ATOM     27  O   UNL     1      42.770   5.473  13.314  0.00  0.00    +0.000 OA
ATOM     28  H   UNL     1      42.069   4.953  13.742  0.00  0.00    +0.000 HD
ENDBRANCH  26  27
ENDBRANCH  23  26
BRANCH  23  29
ATOM     29  C   UNL     1      43.731   4.495   9.761  0.00  0.00    +0.000 C 
BRANCH  29  30
ATOM     30  C   UNL     1      44.740   3.647   9.019  0.00  0.00    +0.000 A 
ATOM     31  C   UNL     1      45.664   4.224   8.148  0.00  0.00    +0.000 A 
ATOM     32  C   UNL     1      46.574   3.411   7.480  0.00  0.00    +0.000 A 
ATOM     33  C   UNL     1      46.555   2.043   7.710  0.00  0.00    +0.000 A 
ATOM     34  C   UNL     1      45.627   1.546   8.607  0.00  0.00    +0.000 A 
ATOM     35  N   UNL     1      44.730   2.313   9.270  0.00  0.00    +0.000 NA
ENDBRANCH  29  30
ENDBRANCH  23  29
ENDBRANCH   4  23
TORSDOF 9
ENDMDL
MODEL 5
REMARK VINA RESULT:    -7.444      2.416      2.919
REMARK INTER + INTRA:         -12.196
REMARK INTER:                 -10.887
REMARK INTRA:                  -1.308
REMARK UNBOUND:                -1.270
REMARK  Name = 
REMARK  9 active torsions:
REMARK  status: ('A' for Active; 'I' for Inactive)
REMARK    1  A    between atoms: C_2  and  C_22
REMARK    2  A    between atoms: N_3  and  C_4
REMARK    3  A    between atoms: C_4  and  C_5
REMARK    4  A    between atoms: C_8  and  C_9
REMARK    5  A    between atoms: C_9  and  O_10
REMARK    6  A    between atoms: C_9  and  C_11
REMARK    7  A    between atoms: C_9  and  C_13
REMARK    8  A    between atoms: C_11  and  O_12
REMARK    9  A    between atoms: C_13  and  C_14
REMARK                            x       y       z     vdW  Elec       q    Type
REMARK                         _______ _______ _______ _____ _____    ______ ____
ROOT
ATOM      1  C   UNL     1      46.460   7.399  12.667  0.00  0.00    +0.000 A 
ATOM      2  C   UNL     1      45.573   7.429  11.590  0.00  0.00    +0.000 A 
ATOM      3  C   UNL     1      45.006   6.247  11.097  0.00  0.00    +0.000 A 
ATOM      4  C   UNL     1      45.307   4.995  11.663  0.00  0.00    +0.000 A 
ATOM      5  C   UNL     1      46.183   4.989  12.767  0.00  0.00    +0.000 A 
ATOM      6  C   UNL     1      46.746   6.170  13.262  0.00  0.00    +0.000 A 
ENDROOT
BRANCH   1   7
ATOM      7  C   UNL     1      47.046   8.673  13.214  0.00  0.00    +0.000 C 
BRANCH   7  10
ATOM      8  O   UNL     1      47.978   8.949  15.851  0.00  0.00    +0.000 OA
ATOM      9  C   UNL     1      48.754   8.557  14.984  0.00  0.00    +0.000 C 
ATOM     10  N   UNL     1      48.399   8.463  13.663  0.00  0.00    +0.000 N 
ATOM     11  H   UNL     1      49.002   7.951  13.029  0.00  0.00    +0.000 HD
BRANCH   9  12
ATOM     12  C   UNL     1      50.146   8.218  15.306  0.00  0.00    +0.000 A 
ATOM     13  C   UNL     1      51.171   9.064  14.906  0.00  0.00    +0.000 A 
ATOM     14  S   UNL     1      52.724   8.513  15.342  0.00  0.00    +0.000 S 
ATOM     15  C   UNL     1      52.078   7.147  16.124  0.00  0.00    +0.000 A 
ATOM     16  N   UNL     1      52.890   6.254  16.753  0.00  0.00    +0.000 NA
ATOM     17  C   UNL     1      52.265   5.294  17.349  0.00  0.00    +0.000 A 
ATOM     18  N   UNL     1      50.903   5.137  17.360  0.00  0.00    +0.000 N 
ATOM     19  C   UNL     1      50.053   5.963  16.665  0.00  0.00    +0.000 A 
ATOM     20  O   UNL     1      48.857   5.704  16.566  0.00  0.00    +0.000 OA
ATOM     21  C   UNL     1      50.699   7.095  16.028  0.00  0.00    +0.000 A 
ATOM     22  H   UNL     1      50.478   4.344  17.817  0.00  0.00    +0.000 HD
ENDBRANCH   9  12
ENDBRANCH   7  10
ENDBRANCH   1   7
BRANCH   4  23
ATOM     23  C   UNL     1      44.627   3.710  11.150  0.00  0.00    +0.000 C 
BRANCH  23  24
ATOM     24  O   UNL     1      45.429   2.528  11.371  0.00  0.00    +0.000 OA
ATOM     25  H   UNL     1      45.331   2.278  12.299  0.00  0.00    +0.000 HD
ENDBRANCH  23  24
BRANCH  23  26
ATOM     26  C   UNL     1      43.319   3.472  11.962  0.00  0.00    +0.000 C 
BRANCH  26  27
ATOM     27  O   UNL     1      43.333   2.209  12.644  0.00  0.00    +0.000 OA
ATOM     28  H   UNL     1      43.976   2.291  13.368  0.00  0.00    +0.000 HD
ENDBRANCH  26  27
ENDBRANCH  23  26
BRANCH  23  29
ATOM     29  C   UNL     1      44.257   3.723   9.637  0.00  0.00    +0.000 C 
BRANCH  29  30
ATOM     30  C   UNL     1      45.298   3.143   8.705  0.00  0.00    +0.000 A 
ATOM     31  C   UNL     1      46.076   3.967   7.892  0.00  0.00    +0.000 A 
ATOM     32  C   UNL     1      47.020   3.395   7.045  0.00  0.00    +0.000 A 
ATOM     33  C   UNL     1      47.182   2.018   7.041  0.00  0.00    +0.000 A 
ATOM     34  C   UNL     1      46.392   1.268   7.894  0.00  0.00    +0.000 A 
ATOM     35  N   UNL     1      45.466   1.796   8.728  0.00  0.00    +0.000 NA
ENDBRANCH  29  30
ENDBRANCH  23  29
ENDBRANCH   4  23
TORSDOF 9
ENDMDL
MODEL 6
REMARK VINA RESULT:    -7.414      4.099      4.992
REMARK INTER + INTRA:         -12.152
REMARK INTER:                 -10.705
REMARK INTRA:                  -1.447
REMARK UNBOUND:                -1.270
REMARK  Name = 
REMARK  9 active torsions:
REMARK  status: ('A' for Active; 'I' for Inactive)
REMARK    1  A    between atoms: C_2  and  C_22
REMARK    2  A    between atoms: N_3  and  C_4
REMARK    3  A    between atoms: C_4  and  C_5
REMARK    4  A    between atoms: C_8  and  C_9
REMARK    5  A    between atoms: C_9  and  O_10
REMARK    6  A    between atoms: C_9  and  C_11
REMARK    7  A    between atoms: C_9  and  C_13
REMARK    8  A    between atoms: C_11  and  O_12
REMARK    9  A    between atoms: C_13  and  C_14
REMARK                            x       y       z     vdW  Elec       q    Type
REMARK                         _______ _______ _______ _____ _____    ______ ____
ROOT
ATOM      1  C   UNL     1      45.950   7.665  12.603  0.00  0.00    +0.000 A 
ATOM      2  C   UNL     1      44.869   7.589  11.723  0.00  0.00    +0.000 A 
ATOM      3  C   UNL     1      44.432   6.352  11.233  0.00  0.00    +0.000 A 
ATOM      4  C   UNL     1      45.060   5.149  11.604  0.00  0.00    +0.000 A 
ATOM      5  C   UNL     1      46.131   5.245  12.515  0.00  0.00    +0.000 A 
ATOM      6  C   UNL     1      46.565   6.480  13.008  0.00  0.00    +0.000 A 
ENDROOT
BRANCH   1   7
ATOM      7  C   UNL     1      46.401   8.992  13.152  0.00  0.00    +0.000 C 
BRANCH   7  10
ATOM      8  O   UNL     1      48.308   8.949  15.215  0.00  0.00    +0.000 OA
ATOM      9  C   UNL     1      48.691   9.054  14.052  0.00  0.00    +0.000 C 
ATOM     10  N   UNL     1      47.824   9.154  12.996  0.00  0.00    +0.000 N 
ATOM     11  H   UNL     1      48.182   9.038  12.055  0.00  0.00    +0.000 HD
BRANCH   9  12
ATOM     12  C   UNL     1      50.120   9.141  13.728  0.00  0.00    +0.000 A 
ATOM     13  C   UNL     1      50.976   9.839  14.569  0.00  0.00    +0.000 A 
ATOM     14  S   UNL     1      52.595   9.859  14.036  0.00  0.00    +0.000 S 
ATOM     15  C   UNL     1      52.219   8.894  12.686  0.00  0.00    +0.000 A 
ATOM     16  N   UNL     1      53.188   8.508  11.811  0.00  0.00    +0.000 NA
ATOM     17  C   UNL     1      52.773   7.736  10.864  0.00  0.00    +0.000 A 
ATOM     18  N   UNL     1      51.473   7.328  10.701  0.00  0.00    +0.000 N 
ATOM     19  C   UNL     1      50.450   7.765  11.506  0.00  0.00    +0.000 A 
ATOM     20  O   UNL     1      49.280   7.508  11.239  0.00  0.00    +0.000 OA
ATOM     21  C   UNL     1      50.872   8.586  12.625  0.00  0.00    +0.000 A 
ATOM     22  H   UNL     1      51.208   6.751   9.917  0.00  0.00    +0.000 HD
ENDBRANCH   9  12
ENDBRANCH   7  10
ENDBRANCH   1   7
BRANCH   4  23
ATOM     23  C   UNL     1      44.528   3.791  11.105  0.00  0.00    +0.000 C 
BRANCH  23  24
ATOM     24  O   UNL     1      45.443   2.703  11.366  0.00  0.00    +0.000 OA
ATOM     25  H   UNL     1      45.969   2.944  12.140  0.00  0.00    +0.000 HD
ENDBRANCH  23  24
BRANCH  23  26
ATOM     26  C   UNL     1      43.234   3.435  11.896  0.00  0.00    +0.000 C 
BRANCH  26  27
ATOM     27  O   UNL     1      43.488   3.286  13.301  0.00  0.00    +0.000 OA
ATOM     28  H   UNL     1      43.541   2.331  13.474  0.00  0.00    +0.000 HD
ENDBRANCH  26  27
ENDBRANCH  23  26
BRANCH  23  29
ATOM     29  C   UNL     1      44.191   3.737   9.585  0.00  0.00    +0.000 C 
BRANCH  29  30
ATOM     30  C   UNL     1      45.261   3.137   8.700  0.00  0.00    +0.000 A 
ATOM     31  C   UNL     1      46.062   3.944   7.891  0.00  0.00    +0.000 A 
ATOM     32  C   UNL     1      47.033   3.354   7.088  0.00  0.00    +0.000 A 
ATOM     33  C   UNL     1      47.198   1.978   7.123  0.00  0.00    +0.000 A 
ATOM     34  C   UNL     1      46.384   1.246   7.969  0.00  0.00    +0.000 A 
ATOM     35  N   UNL     1      45.431   1.792   8.761  0.00  0.00    +0.000 NA
ENDBRANCH  29  30
ENDBRANCH  23  29
ENDBRANCH   4  23
TORSDOF 9
ENDMDL
MODEL 7
REMARK VINA RESULT:    -6.726      3.179      9.171
REMARK INTER + INTRA:         -11.142
REMARK INTER:                  -9.475
REMARK INTRA:                  -1.667
REMARK UNBOUND:                -1.270
REMARK  Name = 
REMARK  9 active torsions:
REMARK  status: ('A' for Active; 'I' for Inactive)
REMARK    1  A    between atoms: C_2  and  C_22
REMARK    2  A    between atoms: N_3  and  C_4
REMARK    3  A    between atoms: C_4  and  C_5
REMARK    4  A    between atoms: C_8  and  C_9
REMARK    5  A    between atoms: C_9  and  O_10
REMARK    6  A    between atoms: C_9  and  C_11
REMARK    7  A    between atoms: C_9  and  C_13
REMARK    8  A    between atoms: C_11  and  O_12
REMARK    9  A    between atoms: C_13  and  C_14
REMARK                            x       y       z     vdW  Elec       q    Type
REMARK                         _______ _______ _______ _____ _____    ______ ____
ROOT
ATOM      1  C   UNL     1      48.959   6.882  15.231  0.00  0.00    +0.000 A 
ATOM      2  C   UNL     1      48.188   5.842  15.753  0.00  0.00    +0.000 A 
ATOM      3  C   UNL     1      48.709   4.989  16.735  0.00  0.00    +0.000 A 
ATOM      4  C   UNL     1      50.017   5.145  17.227  0.00  0.00    +0.000 A 
ATOM      5  C   UNL     1      50.769   6.218  16.707  0.00  0.00    +0.000 A 
ATOM      6  C   UNL     1      50.248   7.072  15.730  0.00  0.00    +0.000 A 
ENDROOT
BRANCH   1   7
ATOM      7  C   UNL     1      48.389   7.815  14.197  0.00  0.00    +0.000 C 
BRANCH   7  10
ATOM      8  O   UNL     1      47.804   7.033  11.562  0.00  0.00    +0.000 OA
ATOM      9  C   UNL     1      46.939   6.911  12.425  0.00  0.00    +0.000 C 
ATOM     10  N   UNL     1      47.119   7.334  13.716  0.00  0.00    +0.000 N 
ATOM     11  H   UNL     1      46.462   7.033  14.427  0.00  0.00    +0.000 HD
BRANCH   9  12
ATOM     12  C   UNL     1      45.619   6.352  12.105  0.00  0.00    +0.000 A 
ATOM     13  C   UNL     1      44.642   7.168  11.552  0.00  0.00    +0.000 A 
ATOM     14  S   UNL     1      43.165   6.367  11.261  0.00  0.00    +0.000 S 
ATOM     15  C   UNL     1      43.795   4.889  11.819  0.00  0.00    +0.000 A 
ATOM     16  N   UNL     1      43.037   3.759  11.810  0.00  0.00    +0.000 NA
ATOM     17  C   UNL     1      43.655   2.699  12.210  0.00  0.00    +0.000 A 
ATOM     18  N   UNL     1      44.959   2.669  12.637  0.00  0.00    +0.000 N 
ATOM     19  C   UNL     1      45.731   3.800  12.748  0.00  0.00    +0.000 A 
ATOM     20  O   UNL     1      46.837   3.762  13.279  0.00  0.00    +0.000 OA
ATOM     21  C   UNL     1      45.104   5.010  12.251  0.00  0.00    +0.000 A 
ATOM     22  H   UNL     1      45.373   1.812  12.971  0.00  0.00    +0.000 HD
ENDBRANCH   9  12
ENDBRANCH   7  10
ENDBRANCH   1   7
BRANCH   4  23
ATOM     23  C   UNL     1      50.554   4.237  18.352  0.00  0.00    +0.000 C 
BRANCH  23  24
ATOM     24  O   UNL     1      49.691   3.107  18.615  0.00  0.00    +0.000 OA
ATOM     25  H   UNL     1      49.085   3.022  17.867  0.00  0.00    +0.000 HD
ENDBRANCH  23  24
BRANCH  23  26
ATOM     26  C   UNL     1      51.909   3.619  17.898  0.00  0.00    +0.000 C 
BRANCH  26  27
ATOM     27  O   UNL     1      52.134   2.329  18.487  0.00  0.00    +0.000 OA
ATOM     28  H   UNL     1      52.733   1.851  17.890  0.00  0.00    +0.000 HD
ENDBRANCH  26  27
ENDBRANCH  23  26
BRANCH  23  29
ATOM     29  C   UNL     1      50.785   4.951  19.717  0.00  0.00    +0.000 C 
BRANCH  29  30
ATOM     30  C   UNL     1      49.631   5.790  20.218  0.00  0.00    +0.000 A 
ATOM     31  C   UNL     1      49.705   7.183  20.230  0.00  0.00    +0.000 A 
ATOM     32  C   UNL     1      48.625   7.920  20.703  0.00  0.00    +0.000 A 
ATOM     33  C   UNL     1      47.487   7.255  21.136  0.00  0.00    +0.000 A 
ATOM     34  C   UNL     1      47.477   5.873  21.070  0.00  0.00    +0.000 A 
ATOM     35  N   UNL     1      48.514   5.130  20.615  0.00  0.00    +0.000 NA
ENDBRANCH  29  30
ENDBRANCH  23  29
ENDBRANCH   4  23
TORSDOF 9
ENDMDL
MODEL 8
REMARK VINA RESULT:    -6.706      3.103      8.406
REMARK INTER + INTRA:         -11.112
REMARK INTER:                  -9.447
REMARK INTRA:                  -1.665
REMARK UNBOUND:                -1.270
REMARK  Name = 
REMARK  9 active torsions:
REMARK  status: ('A' for Active; 'I' for Inactive)
REMARK    1  A    between atoms: C_2  and  C_22
REMARK    2  A    between atoms: N_3  and  C_4
REMARK    3  A    between atoms: C_4  and  C_5
REMARK    4  A    between atoms: C_8  and  C_9
REMARK    5  A    between atoms: C_9  and  O_10
REMARK    6  A    between atoms: C_9  and  C_11
REMARK    7  A    between atoms: C_9  and  C_13
REMARK    8  A    between atoms: C_11  and  O_12
REMARK    9  A    between atoms: C_13  and  C_14
REMARK                            x       y       z     vdW  Elec       q    Type
REMARK                         _______ _______ _______ _____ _____    ______ ____
ROOT
ATOM      1  C   UNL     1      48.536   8.065  13.526  0.00  0.00    +0.000 A 
ATOM      2  C   UNL     1      49.401   7.099  14.042  0.00  0.00    +0.000 A 
ATOM      3  C   UNL     1      49.596   6.979  15.424  0.00  0.00    +0.000 A 
ATOM      4  C   UNL     1      48.935   7.820  16.337  0.00  0.00    +0.000 A 
ATOM      5  C   UNL     1      48.044   8.770  15.798  0.00  0.00    +0.000 A 
ATOM      6  C   UNL     1      47.846   8.888  14.417  0.00  0.00    +0.000 A 
ENDROOT
BRANCH   1   7
ATOM      7  C   UNL     1      48.305   8.175  12.043  0.00  0.00    +0.000 C 
BRANCH   7  10
ATOM      8  O   UNL     1      45.513   7.957  11.801  0.00  0.00    +0.000 OA
ATOM      9  C   UNL     1      46.219   7.033  11.405  0.00  0.00    +0.000 C 
ATOM     10  N   UNL     1      47.582   7.030  11.551  0.00  0.00    +0.000 N 
ATOM     11  H   UNL     1      48.128   6.349  11.036  0.00  0.00    +0.000 HD
BRANCH   9  12
ATOM     12  C   UNL     1      45.630   5.834  10.797  0.00  0.00    +0.000 A 
ATOM     13  C   UNL     1      45.862   5.558   9.456  0.00  0.00    +0.000 A 
ATOM     14  S   UNL     1      45.090   4.140   8.905  0.00  0.00    +0.000 S 
ATOM     15  C   UNL     1      44.458   3.819  10.452  0.00  0.00    +0.000 A 
ATOM     16  N   UNL     1      43.708   2.707  10.683  0.00  0.00    +0.000 NA
ATOM     17  C   UNL     1      43.338   2.560  11.911  0.00  0.00    +0.000 A 
ATOM     18  N   UNL     1      43.635   3.433  12.926  0.00  0.00    +0.000 N 
ATOM     19  C   UNL     1      44.312   4.610  12.721  0.00  0.00    +0.000 A 
ATOM     20  O   UNL     1      44.424   5.441  13.618  0.00  0.00    +0.000 OA
ATOM     21  C   UNL     1      44.805   4.795  11.369  0.00  0.00    +0.000 A 
ATOM     22  H   UNL     1      43.285   3.277  13.860  0.00  0.00    +0.000 HD
ENDBRANCH   9  12
ENDBRANCH   7  10
ENDBRANCH   1   7
BRANCH   4  23
ATOM     23  C   UNL     1      49.112   7.634  17.857  0.00  0.00    +0.000 C 
BRANCH  23  24
ATOM     24  O   UNL     1      50.468   7.292  18.222  0.00  0.00    +0.000 OA
ATOM     25  H   UNL     1      50.789   7.975  18.826  0.00  0.00    +0.000 HD
ENDBRANCH  23  24
BRANCH  23  26
ATOM     26  C   UNL     1      48.828   8.990  18.568  0.00  0.00    +0.000 C 
BRANCH  26  27
ATOM     27  O   UNL     1      47.530   9.012  19.182  0.00  0.00    +0.000 OA
ATOM     28  H   UNL     1      46.903   8.682  18.518  0.00  0.00    +0.000 HD
ENDBRANCH  26  27
ENDBRANCH  23  26
BRANCH  23  29
ATOM     29  C   UNL     1      48.191   6.553  18.498  0.00  0.00    +0.000 C 
BRANCH  29  30
ATOM     30  C   UNL     1      48.341   5.154  17.943  0.00  0.00    +0.000 A 
ATOM     31  C   UNL     1      47.321   4.560  17.201  0.00  0.00    +0.000 A 
ATOM     32  C   UNL     1      47.495   3.270  16.711  0.00  0.00    +0.000 A 
ATOM     33  C   UNL     1      48.689   2.608  16.955  0.00  0.00    +0.000 A 
ATOM     34  C   UNL     1      49.665   3.271  17.677  0.00  0.00    +0.000 A 
ATOM     35  N   UNL     1      49.522   4.526  18.166  0.00  0.00    +0.000 NA
ENDBRANCH  29  30
ENDBRANCH  23  29
ENDBRANCH   4  23
TORSDOF 9
ENDMDL
MODEL 9
REMARK VINA RESULT:    -6.465      2.913      9.024
REMARK INTER + INTRA:         -10.759
REMARK INTER:                  -8.929
REMARK INTRA:                  -1.830
REMARK UNBOUND:                -1.270
REMARK  Name = 
REMARK  9 active torsions:
REMARK  status: ('A' for Active; 'I' for Inactive)
REMARK    1  A    between atoms: C_2  and  C_22
REMARK    2  A    between atoms: N_3  and  C_4
REMARK    3  A    between atoms: C_4  and  C_5
REMARK    4  A    between atoms: C_8  and  C_9
REMARK    5  A    between atoms: C_9  and  O_10
REMARK    6  A    between atoms: C_9  and  C_11
REMARK    7  A    between atoms: C_9  and  C_13
REMARK    8  A    between atoms: C_11  and  O_12
REMARK    9  A    between atoms: C_13  and  C_14
REMARK                            x       y       z     vdW  Elec       q    Type
REMARK                         _______ _______ _______ _____ _____    ______ ____
ROOT
ATOM      1  C   UNL     1      48.325   7.905  13.283  0.00  0.00    +0.000 A 
ATOM      2  C   UNL     1      49.565   7.303  13.501  0.00  0.00    +0.000 A 
ATOM      3  C   UNL     1      50.171   7.350  14.763  0.00  0.00    +0.000 A 
ATOM      4  C   UNL     1      49.560   8.000  15.850  0.00  0.00    +0.000 A 
ATOM      5  C   UNL     1      48.295   8.577  15.617  0.00  0.00    +0.000 A 
ATOM      6  C   UNL     1      47.687   8.527  14.357  0.00  0.00    +0.000 A 
ENDROOT
BRANCH   1   7
ATOM      7  C   UNL     1      47.661   7.830  11.935  0.00  0.00    +0.000 C 
BRANCH   7  10
ATOM      8  O   UNL     1      44.871   7.522  12.067  0.00  0.00    +0.000 OA
ATOM      9  C   UNL     1      45.566   6.544  11.803  0.00  0.00    +0.000 C 
ATOM     10  N   UNL     1      46.935   6.594  11.789  0.00  0.00    +0.000 N 
ATOM     11  H   UNL     1      47.449   5.825  11.375  0.00  0.00    +0.000 HD
BRANCH   9  12
ATOM     12  C   UNL     1      44.963   5.231  11.541  0.00  0.00    +0.000 A 
ATOM     13  C   UNL     1      44.236   4.597  12.539  0.00  0.00    +0.000 A 
ATOM     14  S   UNL     1      43.622   3.075  12.078  0.00  0.00    +0.000 S 
ATOM     15  C   UNL     1      44.265   3.231  10.511  0.00  0.00    +0.000 A 
ATOM     16  N   UNL     1      44.070   2.261   9.575  0.00  0.00    +0.000 NA
ATOM     17  C   UNL     1      44.567   2.533   8.415  0.00  0.00    +0.000 A 
ATOM     18  N   UNL     1      45.256   3.678   8.109  0.00  0.00    +0.000 N 
ATOM     19  C   UNL     1      45.554   4.640   9.043  0.00  0.00    +0.000 A 
ATOM     20  O   UNL     1      46.305   5.573   8.776  0.00  0.00    +0.000 OA
ATOM     21  C   UNL     1      44.965   4.413  10.350  0.00  0.00    +0.000 A 
ATOM     22  H   UNL     1      45.650   3.813   7.190  0.00  0.00    +0.000 HD
ENDBRANCH   9  12
ENDBRANCH   7  10
ENDBRANCH   1   7
BRANCH   4  23
ATOM     23  C   UNL     1      50.210   7.989  17.247  0.00  0.00    +0.000 C 
BRANCH  23  24
ATOM     24  O   UNL     1      51.563   7.480  17.228  0.00  0.00    +0.000 OA
ATOM     25  H   UNL     1      51.534   6.585  16.867  0.00  0.00    +0.000 HD
ENDBRANCH  23  24
BRANCH  23  26
ATOM     26  C   UNL     1      50.333   9.455  17.759  0.00  0.00    +0.000 C 
BRANCH  26  27
ATOM     27  O   UNL     1      49.507   9.693  18.908  0.00  0.00    +0.000 OA
ATOM     28  H   UNL     1      49.905   9.200  19.644  0.00  0.00    +0.000 HD
ENDBRANCH  26  27
ENDBRANCH  23  26
BRANCH  23  29
ATOM     29  C   UNL     1      49.439   7.168  18.323  0.00  0.00    +0.000 C 
BRANCH  29  30
ATOM     30  C   UNL     1      49.153   5.727  17.964  0.00  0.00    +0.000 A 
ATOM     31  C   UNL     1      47.850   5.290  17.724  0.00  0.00    +0.000 A 
ATOM     32  C   UNL     1      47.626   3.956  17.400  0.00  0.00    +0.000 A 
ATOM     33  C   UNL     1      48.706   3.091  17.304  0.00  0.00    +0.000 A 
ATOM     34  C   UNL     1      49.971   3.603  17.531  0.00  0.00    +0.000 A 
ATOM     35  N   UNL     1      50.219   4.896  17.848  0.00  0.00    +0.000 NA
ENDBRANCH  29  30
ENDBRANCH  23  29
ENDBRANCH   4  23
TORSDOF 9
ENDMDL
