MODEL 1
REMARK VINA RESULT:    -6.558      0.000      0.000
REMARK INTER + INTRA:          -8.157
REMARK INTER:                  -7.708
REMARK INTRA:                  -0.449
REMARK UNBOUND:                -0.449
REMARK  Name = 
REMARK  5 active torsions:
REMARK  status: ('A' for Active; 'I' for Inactive)
REMARK    1  A    between atoms: C_1  and  C_2
REMARK    2  A    between atoms: C_2  and  N_3
REMARK    3  A    between atoms: C_2  and  C_13
REMARK    4  A    between atoms: C_8  and  C_9
REMARK    5  A    between atoms: N_17  and  C_18
REMARK                            x       y       z     vdW  Elec       q    Type
REMARK                         _______ _______ _______ _____ _____    ______ ____
ROOT
ATOM      1  N   UNL     1      45.101   5.291  11.746  0.00  0.00    +0.000 N 
ATOM      2  C   UNL     1      45.837   6.448  11.933  0.00  0.00    +0.000 A 
ATOM      3  N   UNL     1      47.126   6.245  12.246  0.00  0.00    +0.000 NA
ATOM      4  C   UNL     1      47.889   7.326  12.499  0.00  0.00    +0.000 A 
ATOM      5  C   UNL     1      47.414   8.606  12.451  0.00  0.00    +0.000 A 
ATOM      6  C   UNL     1      46.085   8.707  12.115  0.00  0.00    +0.000 A 
ATOM      7  N   UNL     1      45.275   7.653  11.841  0.00  0.00    +0.000 NA
ATOM      8  H   UNL     1      45.795   4.556  11.662  0.00  0.00    +0.000 HD
ENDROOT
BRANCH   6   9
ATOM      9  C   UNL     1      45.452  10.060  12.051  0.00  0.00    +0.000 C 
ATOM     10  N   UNL     1      44.157  10.122  12.490  0.00  0.00    +0.000 N 
ATOM     11  O   UNL     1      46.047  11.048  11.642  0.00  0.00    +0.000 OA
ATOM     12  H   UNL     1      43.719   9.289  12.866  0.00  0.00    +0.000 HD
ATOM     13  H   UNL     1      43.682  11.010  12.519  0.00  0.00    +0.000 HD
ENDBRANCH   6   9
BRANCH   1  15
ATOM     14  C   UNL     1      42.681   5.084  11.459  0.00  0.00    +0.000 C 
ATOM     15  C   UNL     1      44.028   5.300  10.755  0.00  0.00    +0.000 C 
BRANCH  15  16
ATOM     16  C   UNL     1      44.252   4.196   9.678  0.00  0.00    +0.000 C 
ATOM     17  C   UNL     1      44.324   2.772  10.258  0.00  0.00    +0.000 C 
ATOM     18  C   UNL     1      44.550   1.755   9.145  0.00  0.00    +0.000 C 
ATOM     19  C   UNL     1      45.774   2.116   8.310  0.00  0.00    +0.000 C 
ATOM     20  N   UNL     1      45.646   3.466   7.744  0.00  0.00    +0.000 NA
ATOM     21  C   UNL     1      46.806   3.773   6.906  0.00  0.00    +0.000 C 
ATOM     22  C   UNL     1      45.491   4.479   8.802  0.00  0.00    +0.000 C 
ENDBRANCH  15  16
ENDBRANCH   1  15
TORSDOF 3
ENDMDL
MODEL 2
REMARK VINA RESULT:    -6.435      2.484      3.822
REMARK INTER + INTRA:          -8.012
REMARK INTER:                  -8.453
REMARK INTRA:                   0.441
REMARK UNBOUND:                -0.449
REMARK  Name = 
REMARK  5 active torsions:
REMARK  status: ('A' for Active; 'I' for Inactive)
REMARK    1  A    between atoms: C_1  and  C_2
REMARK    2  A    between atoms: C_2  and  N_3
REMARK    3  A    between atoms: C_2  and  C_13
REMARK    4  A    between atoms: C_8  and  C_9
REMARK    5  A    between atoms: N_17  and  C_18
REMARK                            x       y       z     vdW  Elec       q    Type
REMARK                         _______ _______ _______ _____ _____    ______ ____
ROOT
ATOM      1  N   UNL     1      44.439   5.011   9.589  0.00  0.00    +0.000 N 
ATOM      2  C   UNL     1      44.810   5.444  10.849  0.00  0.00    +0.000 A 
ATOM      3  N   UNL     1      44.267   6.614  11.221  0.00  0.00    +0.000 NA
ATOM      4  C   UNL     1      44.629   7.125  12.413  0.00  0.00    +0.000 A 
ATOM      5  C   UNL     1      45.517   6.513  13.253  0.00  0.00    +0.000 A 
ATOM      6  C   UNL     1      46.010   5.318  12.785  0.00  0.00    +0.000 A 
ATOM      7  N   UNL     1      45.672   4.754  11.597  0.00  0.00    +0.000 NA
ATOM      8  H   UNL     1      43.642   5.588   9.343  0.00  0.00    +0.000 HD
ENDROOT
BRANCH   6   9
ATOM      9  C   UNL     1      47.004   4.568  13.612  0.00  0.00    +0.000 C 
ATOM     10  N   UNL     1      46.843   3.209  13.631  0.00  0.00    +0.000 N 
ATOM     11  O   UNL     1      47.905   5.124  14.225  0.00  0.00    +0.000 OA
ATOM     12  H   UNL     1      46.112   2.786  13.069  0.00  0.00    +0.000 HD
ATOM     13  H   UNL     1      47.504   2.636  14.130  0.00  0.00    +0.000 HD
ENDBRANCH   6   9
BRANCH   1  15
ATOM     14  C   UNL     1      43.984   2.869  10.680  0.00  0.00    +0.000 C 
ATOM     15  C   UNL     1      44.308   3.575   9.356  0.00  0.00    +0.000 C 
BRANCH  15  16
ATOM     16  C   UNL     1      45.614   2.987   8.741  0.00  0.00    +0.000 C 
ATOM     17  C   UNL     1      46.115   3.753   7.504  0.00  0.00    +0.000 C 
ATOM     18  C   UNL     1      47.388   3.113   6.961  0.00  0.00    +0.000 C 
ATOM     19  C   UNL     1      47.186   1.625   6.694  0.00  0.00    +0.000 C 
ATOM     20  N   UNL     1      46.747   0.927   7.911  0.00  0.00    +0.000 NA
ATOM     21  C   UNL     1      46.607  -0.506   7.647  0.00  0.00    +0.000 C 
ATOM     22  C   UNL     1      45.481   1.483   8.421  0.00  0.00    +0.000 C 
ENDBRANCH  15  16
ENDBRANCH   1  15
TORSDOF 3
ENDMDL
MODEL 3
REMARK VINA RESULT:    -6.405      4.863      6.497
REMARK INTER + INTRA:          -7.978
REMARK INTER:                  -7.555
REMARK INTRA:                  -0.422
REMARK UNBOUND:                -0.449
REMARK  Name = 
REMARK  5 active torsions:
REMARK  status: ('A' for Active; 'I' for Inactive)
REMARK    1  A    between atoms: C_1  and  C_2
REMARK    2  A    between atoms: C_2  and  N_3
REMARK    3  A    between atoms: C_2  and  C_13
REMARK    4  A    between atoms: C_8  and  C_9
REMARK    5  A    between atoms: N_17  and  C_18
REMARK                            x       y       z     vdW  Elec       q    Type
REMARK                         _______ _______ _______ _____ _____    ______ ____
ROOT
ATOM      1  N   UNL     1      46.803   5.136  15.132  0.00  0.00    +0.000 N 
ATOM      2  C   UNL     1      47.495   4.437  16.104  0.00  0.00    +0.000 A 
ATOM      3  N   UNL     1      46.754   3.554  16.791  0.00  0.00    +0.000 NA
ATOM      4  C   UNL     1      47.349   2.879  17.793  0.00  0.00    +0.000 A 
ATOM      5  C   UNL     1      48.661   3.051  18.138  0.00  0.00    +0.000 A 
ATOM      6  C   UNL     1      49.334   3.971  17.370  0.00  0.00    +0.000 A 
ATOM      7  N   UNL     1      48.786   4.671  16.345  0.00  0.00    +0.000 NA
ATOM      8  H   UNL     1      45.933   4.627  15.019  0.00  0.00    +0.000 HD
ENDROOT
BRANCH   6   9
ATOM      9  C   UNL     1      50.771   4.256  17.669  0.00  0.00    +0.000 C 
ATOM     10  N   UNL     1      51.274   3.628  18.776  0.00  0.00    +0.000 N 
ATOM     11  O   UNL     1      51.456   4.992  16.972  0.00  0.00    +0.000 OA
ATOM     12  H   UNL     1      50.684   2.988  19.296  0.00  0.00    +0.000 HD
ATOM     13  H   UNL     1      52.247   3.736  19.012  0.00  0.00    +0.000 HD
ENDBRANCH   6   9
BRANCH   1  15
ATOM     14  C   UNL     1      47.722   7.034  13.891  0.00  0.00    +0.000 C 
ATOM     15  C   UNL     1      47.508   5.513  13.909  0.00  0.00    +0.000 C 
BRANCH  15  16
ATOM     16  C   UNL     1      46.711   5.070  12.645  0.00  0.00    +0.000 C 
ATOM     17  C   UNL     1      46.361   6.231  11.697  0.00  0.00    +0.000 C 
ATOM     18  C   UNL     1      45.580   5.717  10.492  0.00  0.00    +0.000 C 
ATOM     19  C   UNL     1      44.355   4.920  10.930  0.00  0.00    +0.000 C 
ATOM     20  N   UNL     1      44.739   3.800  11.801  0.00  0.00    +0.000 NA
ATOM     21  C   UNL     1      43.557   3.019  12.168  0.00  0.00    +0.000 C 
ATOM     22  C   UNL     1      45.440   4.274  13.007  0.00  0.00    +0.000 C 
ENDBRANCH  15  16
ENDBRANCH   1  15
TORSDOF 3
ENDMDL
MODEL 4
REMARK VINA RESULT:    -6.390      1.913      2.262
REMARK INTER + INTRA:          -7.959
REMARK INTER:                  -7.461
REMARK INTRA:                  -0.498
REMARK UNBOUND:                -0.449
REMARK  Name = 
REMARK  5 active torsions:
REMARK  status: ('A' for Active; 'I' for Inactive)
REMARK    1  A    between atoms: C_1  and  C_2
REMARK    2  A    between atoms: C_2  and  N_3
REMARK    3  A    between atoms: C_2  and  C_13
REMARK    4  A    between atoms: C_8  and  C_9
REMARK    5  A    between atoms: N_17  and  C_18
REMARK                            x       y       z     vdW  Elec       q    Type
REMARK                         _______ _______ _______ _____ _____    ______ ____
ROOT
ATOM      1  N   UNL     1      44.264   4.788  12.628  0.00  0.00    +0.000 N 
ATOM      2  C   UNL     1      45.471   5.128  13.211  0.00  0.00    +0.000 A 
ATOM      3  N   UNL     1      46.048   4.143  13.917  0.00  0.00    +0.000 NA
ATOM      4  C   UNL     1      47.198   4.421  14.561  0.00  0.00    +0.000 A 
ATOM      5  C   UNL     1      47.798   5.649  14.527  0.00  0.00    +0.000 A 
ATOM      6  C   UNL     1      47.133   6.585  13.772  0.00  0.00    +0.000 A 
ATOM      7  N   UNL     1      45.979   6.356  13.097  0.00  0.00    +0.000 NA
ATOM      8  H   UNL     1      44.225   3.776  12.688  0.00  0.00    +0.000 HD
ENDROOT
BRANCH   6   9
ATOM      9  C   UNL     1      47.688   7.970  13.679  0.00  0.00    +0.000 C 
ATOM     10  N   UNL     1      47.072   8.902  14.468  0.00  0.00    +0.000 N 
ATOM     11  O   UNL     1      48.633   8.255  12.954  0.00  0.00    +0.000 OA
ATOM     12  H   UNL     1      46.324   8.613  15.090  0.00  0.00    +0.000 HD
ATOM     13  H   UNL     1      47.422   9.847  14.491  0.00  0.00    +0.000 HD
ENDBRANCH   6   9
BRANCH   1  15
ATOM     14  C   UNL     1      42.474   5.900  11.386  0.00  0.00    +0.000 C 
ATOM     15  C   UNL     1      43.919   5.384  11.340  0.00  0.00    +0.000 C 
BRANCH  15  16
ATOM     16  C   UNL     1      44.082   4.351  10.184  0.00  0.00    +0.000 C 
ATOM     17  C   UNL     1      44.085   2.887  10.659  0.00  0.00    +0.000 C 
ATOM     18  C   UNL     1      44.254   1.944   9.473  0.00  0.00    +0.000 C 
ATOM     19  C   UNL     1      45.490   2.303   8.655  0.00  0.00    +0.000 C 
ATOM     20  N   UNL     1      45.427   3.696   8.190  0.00  0.00    +0.000 NA
ATOM     21  C   UNL     1      46.596   4.005   7.366  0.00  0.00    +0.000 C 
ATOM     22  C   UNL     1      45.329   4.636   9.320  0.00  0.00    +0.000 C 
ENDBRANCH  15  16
ENDBRANCH   1  15
TORSDOF 3
ENDMDL
MODEL 5
REMARK VINA RESULT:    -6.033      3.043      6.499
REMARK INTER + INTRA:          -7.541
REMARK INTER:                  -7.082
REMARK INTRA:                  -0.459
REMARK UNBOUND:                -0.449
REMARK  Name = 
REMARK  5 active torsions:
REMARK  status: ('A' for Active; 'I' for Inactive)
REMARK    1  A    between atoms: C_1  and  C_2
REMARK    2  A    between atoms: C_2  and  N_3
REMARK    3  A    between atoms: C_2  and  C_13
REMARK    4  A    between atoms: C_8  and  C_9
REMARK    5  A    between atoms: N_17  and  C_18
REMARK                            x       y       z     vdW  Elec       q    Type
REMARK                         _______ _______ _______ _____ _____    ______ ____
ROOT
ATOM      1  N   UNL     1      45.412   4.712  14.220  0.00  0.00    +0.000 N 
ATOM      2  C   UNL     1      44.633   4.764  13.078  0.00  0.00    +0.000 A 
ATOM      3  N   UNL     1      43.461   5.400  13.230  0.00  0.00    +0.000 NA
ATOM      4  C   UNL     1      42.625   5.439  12.175  0.00  0.00    +0.000 A 
ATOM      5  C   UNL     1      42.914   4.864  10.969  0.00  0.00    +0.000 A 
ATOM      6  C   UNL     1      44.139   4.244  10.914  0.00  0.00    +0.000 A 
ATOM      7  N   UNL     1      45.022   4.184  11.943  0.00  0.00    +0.000 NA
ATOM      8  H   UNL     1      44.994   5.391  14.848  0.00  0.00    +0.000 HD
ENDROOT
BRANCH   6   9
ATOM      9  C   UNL     1      44.554   3.565   9.648  0.00  0.00    +0.000 C 
ATOM     10  N   UNL     1      44.197   4.207   8.494  0.00  0.00    +0.000 N 
ATOM     11  O   UNL     1      45.177   2.511   9.639  0.00  0.00    +0.000 OA
ATOM     12  H   UNL     1      43.724   5.103   8.549  0.00  0.00    +0.000 HD
ATOM     13  H   UNL     1      44.483   3.831   7.605  0.00  0.00    +0.000 HD
ENDBRANCH   6   9
BRANCH   1  15
ATOM     14  C   UNL     1      47.522   4.184  15.340  0.00  0.00    +0.000 C 
ATOM     15  C   UNL     1      46.864   4.757  14.076  0.00  0.00    +0.000 C 
BRANCH  15  16
ATOM     16  C   UNL     1      47.357   6.215  13.832  0.00  0.00    +0.000 C 
ATOM     17  C   UNL     1      47.830   6.474  12.390  0.00  0.00    +0.000 C 
ATOM     18  C   UNL     1      48.301   7.916  12.235  0.00  0.00    +0.000 C 
ATOM     19  C   UNL     1      49.360   8.265  13.277  0.00  0.00    +0.000 C 
ATOM     20  N   UNL     1      48.853   8.040  14.638  0.00  0.00    +0.000 NA
ATOM     21  C   UNL     1      49.864   8.427  15.623  0.00  0.00    +0.000 C 
ATOM     22  C   UNL     1      48.451   6.636  14.837  0.00  0.00    +0.000 C 
ENDBRANCH  15  16
ENDBRANCH   1  15
TORSDOF 3
ENDMDL
MODEL 6
REMARK VINA RESULT:    -5.818      5.202      7.646
REMARK INTER + INTRA:          -7.287
REMARK INTER:                  -6.869
REMARK INTRA:                  -0.418
REMARK UNBOUND:                -0.449
REMARK  Name = 
REMARK  5 active torsions:
REMARK  status: ('A' for Active; 'I' for Inactive)
REMARK    1  A    between atoms: C_1  and  C_2
REMARK    2  A    between atoms: C_2  and  N_3
REMARK    3  A    between atoms: C_2  and  C_13
REMARK    4  A    between atoms: C_8  and  C_9
REMARK    5  A    between atoms: N_17  and  C_18
REMARK                            x       y       z     vdW  Elec       q    Type
REMARK                         _______ _______ _______ _____ _____    ______ ____
ROOT
ATOM      1  N   UNL     1      47.429   5.392  15.732  0.00  0.00    +0.000 N 
ATOM      2  C   UNL     1      46.970   5.299  14.430  0.00  0.00    +0.000 A 
ATOM      3  N   UNL     1      47.450   6.238  13.600  0.00  0.00    +0.000 NA
ATOM      4  C   UNL     1      47.000   6.243  12.330  0.00  0.00    +0.000 A 
ATOM      5  C   UNL     1      46.086   5.345  11.855  0.00  0.00    +0.000 A 
ATOM      6  C   UNL     1      45.663   4.421  12.781  0.00  0.00    +0.000 A 
ATOM      7  N   UNL     1      46.090   4.365  14.068  0.00  0.00    +0.000 NA
ATOM      8  H   UNL     1      48.219   6.027  15.681  0.00  0.00    +0.000 HD
ENDROOT
BRANCH   6   9
ATOM      9  C   UNL     1      44.649   3.400  12.377  0.00  0.00    +0.000 C 
ATOM     10  N   UNL     1      44.897   2.765  11.191  0.00  0.00    +0.000 N 
ATOM     11  O   UNL     1      43.667   3.140  13.060  0.00  0.00    +0.000 OA
ATOM     12  H   UNL     1      45.748   2.976  10.682  0.00  0.00    +0.000 HD
ATOM     13  H   UNL     1      44.281   2.032  10.879  0.00  0.00    +0.000 HD
ENDBRANCH   6   9
BRANCH   1  15
ATOM     14  C   UNL     1      47.065   4.344  17.912  0.00  0.00    +0.000 C 
ATOM     15  C   UNL     1      47.623   4.161  16.493  0.00  0.00    +0.000 C 
BRANCH  15  16
ATOM     16  C   UNL     1      49.131   3.775  16.558  0.00  0.00    +0.000 C 
ATOM     17  C   UNL     1      49.389   2.395  17.189  0.00  0.00    +0.000 C 
ATOM     18  C   UNL     1      50.884   2.096  17.220  0.00  0.00    +0.000 C 
ATOM     19  C   UNL     1      51.656   3.216  17.912  0.00  0.00    +0.000 C 
ATOM     20  N   UNL     1      51.411   4.507  17.253  0.00  0.00    +0.000 NA
ATOM     21  C   UNL     1      52.198   5.559  17.899  0.00  0.00    +0.000 C 
ATOM     22  C   UNL     1      49.979   4.854  17.266  0.00  0.00    +0.000 C 
ENDBRANCH  15  16
ENDBRANCH   1  15
TORSDOF 3
ENDMDL
MODEL 7
REMARK VINA RESULT:    -5.775      2.739      6.471
REMARK INTER + INTRA:          -7.237
REMARK INTER:                  -6.894
REMARK INTRA:                  -0.343
REMARK UNBOUND:                -0.449
REMARK  Name = 
REMARK  5 active torsions:
REMARK  status: ('A' for Active; 'I' for Inactive)
REMARK    1  A    between atoms: C_1  and  C_2
REMARK    2  A    between atoms: C_2  and  N_3
REMARK    3  A    between atoms: C_2  and  C_13
REMARK    4  A    between atoms: C_8  and  C_9
REMARK    5  A    between atoms: N_17  and  C_18
REMARK                            x       y       z     vdW  Elec       q    Type
REMARK                         _______ _______ _______ _____ _____    ______ ____
ROOT
ATOM      1  N   UNL     1      46.457   5.612  13.202  0.00  0.00    +0.000 N 
ATOM      2  C   UNL     1      45.436   4.896  12.603  0.00  0.00    +0.000 A 
ATOM      3  N   UNL     1      44.398   4.624  13.409  0.00  0.00    +0.000 NA
ATOM      4  C   UNL     1      43.392   3.880  12.910  0.00  0.00    +0.000 A 
ATOM      5  C   UNL     1      43.381   3.396  11.632  0.00  0.00    +0.000 A 
ATOM      6  C   UNL     1      44.484   3.737  10.886  0.00  0.00    +0.000 A 
ATOM      7  N   UNL     1      45.520   4.490  11.336  0.00  0.00    +0.000 NA
ATOM      8  H   UNL     1      46.055   5.964  14.064  0.00  0.00    +0.000 HD
ENDROOT
BRANCH   6   9
ATOM      9  C   UNL     1      44.589   3.247   9.477  0.00  0.00    +0.000 C 
ATOM     10  N   UNL     1      44.095   4.095   8.523  0.00  0.00    +0.000 N 
ATOM     11  O   UNL     1      45.088   2.166   9.191  0.00  0.00    +0.000 OA
ATOM     12  H   UNL     1      43.735   5.001   8.801  0.00  0.00    +0.000 HD
ATOM     13  H   UNL     1      44.174   3.850   7.550  0.00  0.00    +0.000 HD
ENDBRANCH   6   9
BRANCH   1  15
ATOM     14  C   UNL     1      48.695   6.502  12.774  0.00  0.00    +0.000 C 
ATOM     15  C   UNL     1      47.210   6.565  12.390  0.00  0.00    +0.000 C 
BRANCH  15  16
ATOM     16  C   UNL     1      46.669   8.014  12.583  0.00  0.00    +0.000 C 
ATOM     17  C   UNL     1      45.304   8.257  11.916  0.00  0.00    +0.000 C 
ATOM     18  C   UNL     1      44.849   9.695  12.145  0.00  0.00    +0.000 C 
ATOM     19  C   UNL     1      45.915  10.688  11.692  0.00  0.00    +0.000 C 
ATOM     20  N   UNL     1      47.189  10.444  12.382  0.00  0.00    +0.000 NA
ATOM     21  C   UNL     1      48.182  11.437  11.972  0.00  0.00    +0.000 C 
ATOM     22  C   UNL     1      47.686   9.081  12.125  0.00  0.00    +0.000 C 
ENDBRANCH  15  16
ENDBRANCH   1  15
TORSDOF 3
ENDMDL
MODEL 8
REMARK VINA RESULT:    -5.558      3.210      6.567
REMARK INTER + INTRA:          -6.982
REMARK INTER:                  -6.581
REMARK INTRA:                  -0.401
REMARK UNBOUND:                -0.449
REMARK  Name = 
REMARK  5 active torsions:
REMARK  status: ('A' for Active; 'I' for Inactive)
REMARK    1  A    between atoms: C_1  and  C_2
REMARK    2  A    between atoms: C_2  and  N_3
REMARK    3  A    between atoms: C_2  and  C_13
REMARK    4  A    between atoms: C_8  and  C_9
REMARK    5  A    between atoms: N_17  and  C_18
REMARK                            x       y       z     vdW  Elec       q    Type
REMARK                         _______ _______ _______ _____ _____    ______ ____
ROOT
ATOM      1  N   UNL     1      46.037   6.220  13.557  0.00  0.00    +0.000 N 
ATOM      2  C   UNL     1      45.116   5.805  12.613  0.00  0.00    +0.000 A 
ATOM      3  N   UNL     1      44.377   6.791  12.081  0.00  0.00    +0.000 NA
ATOM      4  C   UNL     1      43.420   6.453  11.197  0.00  0.00    +0.000 A 
ATOM      5  C   UNL     1      43.169   5.164  10.820  0.00  0.00    +0.000 A 
ATOM      6  C   UNL     1      43.983   4.230  11.414  0.00  0.00    +0.000 A 
ATOM      7  N   UNL     1      44.968   4.516  12.303  0.00  0.00    +0.000 NA
ATOM      8  H   UNL     1      46.088   7.227  13.442  0.00  0.00    +0.000 HD
ENDROOT
BRANCH   6   9
ATOM      9  C   UNL     1      43.787   2.783  11.092  0.00  0.00    +0.000 C 
ATOM     10  N   UNL     1      44.608   2.284  10.117  0.00  0.00    +0.000 N 
ATOM     11  O   UNL     1      42.957   2.087  11.661  0.00  0.00    +0.000 OA
ATOM     12  H   UNL     1      45.316   2.884   9.707  0.00  0.00    +0.000 HD
ATOM     13  H   UNL     1      44.564   1.306   9.880  0.00  0.00    +0.000 HD
ENDBRANCH   6   9
BRANCH   1  15
ATOM     14  C   UNL     1      47.392   4.797  15.014  0.00  0.00    +0.000 C 
ATOM     15  C   UNL     1      47.307   5.505  13.654  0.00  0.00    +0.000 C 
BRANCH  15  16
ATOM     16  C   UNL     1      48.512   6.478  13.481  0.00  0.00    +0.000 C 
ATOM     17  C   UNL     1      49.134   6.934  14.813  0.00  0.00    +0.000 C 
ATOM     18  C   UNL     1      50.298   7.885  14.559  0.00  0.00    +0.000 C 
ATOM     19  C   UNL     1      49.872   9.053  13.673  0.00  0.00    +0.000 C 
ATOM     20  N   UNL     1      49.322   8.572  12.398  0.00  0.00    +0.000 NA
ATOM     21  C   UNL     1      48.967   9.706  11.543  0.00  0.00    +0.000 C 
ATOM     22  C   UNL     1      48.153   7.702  12.611  0.00  0.00    +0.000 C 
ENDBRANCH  15  16
ENDBRANCH   1  15
TORSDOF 3
ENDMDL
MODEL 9
REMARK VINA RESULT:    -5.556      2.446      6.015
REMARK INTER + INTRA:          -6.979
REMARK INTER:                  -7.388
REMARK INTRA:                   0.409
REMARK UNBOUND:                -0.449
REMARK  Name = 
REMARK  5 active torsions:
REMARK  status: ('A' for Active; 'I' for Inactive)
REMARK    1  A    between atoms: C_1  and  C_2
REMARK    2  A    between atoms: C_2  and  N_3
REMARK    3  A    between atoms: C_2  and  C_13
REMARK    4  A    between atoms: C_8  and  C_9
REMARK    5  A    between atoms: N_17  and  C_18
REMARK                            x       y       z     vdW  Elec       q    Type
REMARK                         _______ _______ _______ _____ _____    ______ ____
ROOT
ATOM      1  N   UNL     1      45.595   6.021  13.269  0.00  0.00    +0.000 N 
ATOM      2  C   UNL     1      45.070   5.098  12.382  0.00  0.00    +0.000 A 
ATOM      3  N   UNL     1      44.344   4.125  12.953  0.00  0.00    +0.000 NA
ATOM      4  C   UNL     1      43.850   3.159  12.155  0.00  0.00    +0.000 A 
ATOM      5  C   UNL     1      44.053   3.126  10.804  0.00  0.00    +0.000 A 
ATOM      6  C   UNL     1      44.802   4.170  10.316  0.00  0.00    +0.000 A 
ATOM      7  N   UNL     1      45.315   5.172  11.073  0.00  0.00    +0.000 NA
ATOM      8  H   UNL     1      45.093   5.859  14.135  0.00  0.00    +0.000 HD
ENDROOT
BRANCH   6   9
ATOM      9  C   UNL     1      45.105   4.226   8.853  0.00  0.00    +0.000 C 
ATOM     10  N   UNL     1      44.325   3.427   8.063  0.00  0.00    +0.000 N 
ATOM     11  O   UNL     1      45.983   4.941   8.389  0.00  0.00    +0.000 OA
ATOM     12  H   UNL     1      43.576   2.888   8.484  0.00  0.00    +0.000 HD
ATOM     13  H   UNL     1      44.442   3.449   7.062  0.00  0.00    +0.000 HD
ENDBRANCH   6   9
BRANCH   1  15
ATOM     14  C   UNL     1      44.635   7.728  11.803  0.00  0.00    +0.000 C 
ATOM     15  C   UNL     1      45.727   7.409  12.835  0.00  0.00    +0.000 C 
BRANCH  15  16
ATOM     16  C   UNL     1      47.135   7.672  12.222  0.00  0.00    +0.000 C 
ATOM     17  C   UNL     1      48.269   6.906  12.926  0.00  0.00    +0.000 C 
ATOM     18  C   UNL     1      49.610   7.221  12.273  0.00  0.00    +0.000 C 
ATOM     19  C   UNL     1      49.857   8.726  12.220  0.00  0.00    +0.000 C 
ATOM     20  N   UNL     1      48.771   9.412  11.506  0.00  0.00    +0.000 NA
ATOM     21  C   UNL     1      49.051  10.846  11.423  0.00  0.00    +0.000 C 
ATOM     22  C   UNL     1      47.469   9.178  12.155  0.00  0.00    +0.000 C 
ENDBRANCH  15  16
ENDBRANCH   1  15
TORSDOF 3
ENDMDL
