MODEL 1
REMARK VINA RESULT:    -8.220      0.000      0.000
REMARK INTER + INTRA:         -11.292
REMARK INTER:                 -10.622
REMARK INTRA:                  -0.670
REMARK UNBOUND:                -0.670
REMARK  Name = 
REMARK  5 active torsions:
REMARK  status: ('A' for Active; 'I' for Inactive)
REMARK    1  A    between atoms: C_2  and  C_3
REMARK    2  A    between atoms: C_6  and  O_7
REMARK    3  A    between atoms: O_7  and  C_8
REMARK    4  A    between atoms: C_8  and  C_9
REMARK    5  A    between atoms: C_13  and  C_14
REMARK                            x       y       z     vdW  Elec       q    Type
REMARK                         _______ _______ _______ _____ _____    ______ ____
ROOT
ATOM      1  C   UNL     1      44.719   4.915  11.604  0.00  0.00    +0.000 A 
ATOM      2  C   UNL     1      44.770   4.088  12.720  0.00  0.00    +0.000 A 
ATOM      3  N   UNL     1      45.683   4.204  13.705  0.00  0.00    +0.000 NA
ATOM      4  C   UNL     1      46.593   5.201  13.574  0.00  0.00    +0.000 A 
ATOM      5  C   UNL     1      46.660   6.093  12.502  0.00  0.00    +0.000 A 
ATOM      6  C   UNL     1      45.690   5.915  11.506  0.00  0.00    +0.000 A 
ENDROOT
BRANCH   5   7
ATOM      7  C   UNL     1      47.676   7.160  12.409  0.00  0.00    +0.000 A 
ATOM      8  C   UNL     1      49.048   6.884  12.561  0.00  0.00    +0.000 A 
ATOM      9  C   UNL     1      50.011   7.895  12.470  0.00  0.00    +0.000 A 
ATOM     10  C   UNL     1      49.621   9.206  12.213  0.00  0.00    +0.000 A 
ATOM     11  C   UNL     1      48.274   9.492  12.053  0.00  0.00    +0.000 A 
ATOM     12  F   UNL     1      47.892  10.750  11.798  0.00  0.00    +0.000 F 
ATOM     13  C   UNL     1      47.311   8.494  12.154  0.00  0.00    +0.000 A 
ENDBRANCH   5   7
BRANCH   1  14
ATOM     14  C   UNL     1      43.645   4.712  10.569  0.00  0.00    +0.000 C 
BRANCH  14  15
ATOM     15  O   UNL     1      43.559   3.339  10.164  0.00  0.00    +0.000 OA
BRANCH  15  19
ATOM     16  C   UNL     1      46.491   2.365   7.451  0.00  0.00    +0.000 A 
ATOM     17  C   UNL     1      45.970   3.659   7.464  0.00  0.00    +0.000 A 
ATOM     18  C   UNL     1      44.977   3.986   8.389  0.00  0.00    +0.000 A 
ATOM     19  C   UNL     1      44.546   3.002   9.265  0.00  0.00    +0.000 A 
ATOM     20  N   UNL     1      45.039   1.744   9.275  0.00  0.00    +0.000 NA
ATOM     21  C   UNL     1      45.998   1.453   8.372  0.00  0.00    +0.000 A 
BRANCH  16  23
ATOM     22  N   UNL     1      48.310   1.647   5.756  0.00  0.00    +0.000 NA
ATOM     23  C   UNL     1      47.497   1.969   6.524  0.00  0.00    +0.000 C 
ENDBRANCH  16  23
ENDBRANCH  15  19
ENDBRANCH  14  15
ENDBRANCH   1  14
TORSDOF 5
ENDMDL
MODEL 2
REMARK VINA RESULT:    -8.197      1.442      1.809
REMARK INTER + INTRA:         -11.264
REMARK INTER:                 -10.507
REMARK INTRA:                  -0.757
REMARK UNBOUND:                -0.670
REMARK  Name = 
REMARK  5 active torsions:
REMARK  status: ('A' for Active; 'I' for Inactive)
REMARK    1  A    between atoms: C_2  and  C_3
REMARK    2  A    between atoms: C_6  and  O_7
REMARK    3  A    between atoms: O_7  and  C_8
REMARK    4  A    between atoms: C_8  and  C_9
REMARK    5  A    between atoms: C_13  and  C_14
REMARK                            x       y       z     vdW  Elec       q    Type
REMARK                         _______ _______ _______ _____ _____    ______ ____
ROOT
ATOM      1  C   UNL     1      45.037   5.229  11.713  0.00  0.00    +0.000 A 
ATOM      2  C   UNL     1      44.872   4.388  12.807  0.00  0.00    +0.000 A 
ATOM      3  N   UNL     1      45.734   4.317  13.841  0.00  0.00    +0.000 NA
ATOM      4  C   UNL     1      46.818   5.130  13.785  0.00  0.00    +0.000 A 
ATOM      5  C   UNL     1      47.108   6.013  12.743  0.00  0.00    +0.000 A 
ATOM      6  C   UNL     1      46.179   6.034  11.693  0.00  0.00    +0.000 A 
ENDROOT
BRANCH   5   7
ATOM      7  C   UNL     1      48.306   6.874  12.731  0.00  0.00    +0.000 A 
ATOM      8  C   UNL     1      48.698   7.573  11.574  0.00  0.00    +0.000 A 
ATOM      9  C   UNL     1      49.833   8.392  11.563  0.00  0.00    +0.000 A 
ATOM     10  C   UNL     1      50.596   8.537  12.718  0.00  0.00    +0.000 A 
ATOM     11  C   UNL     1      50.218   7.862  13.868  0.00  0.00    +0.000 A 
ATOM     12  F   UNL     1      50.943   8.003  14.986  0.00  0.00    +0.000 F 
ATOM     13  C   UNL     1      49.098   7.037  13.882  0.00  0.00    +0.000 A 
ENDBRANCH   5   7
BRANCH   1  14
ATOM     14  C   UNL     1      44.004   5.246  10.619  0.00  0.00    +0.000 C 
BRANCH  14  15
ATOM     15  O   UNL     1      43.698   3.920  10.165  0.00  0.00    +0.000 OA
BRANCH  15  19
ATOM     16  C   UNL     1      46.505   2.487   7.525  0.00  0.00    +0.000 A 
ATOM     17  C   UNL     1      45.907   1.613   8.432  0.00  0.00    +0.000 A 
ATOM     18  C   UNL     1      44.951   2.102   9.324  0.00  0.00    +0.000 A 
ATOM     19  C   UNL     1      44.634   3.451   9.271  0.00  0.00    +0.000 A 
ATOM     20  N   UNL     1      45.196   4.315   8.398  0.00  0.00    +0.000 NA
ATOM     21  C   UNL     1      46.116   3.818   7.546  0.00  0.00    +0.000 A 
BRANCH  16  23
ATOM     22  N   UNL     1      48.299   1.701   5.833  0.00  0.00    +0.000 NA
ATOM     23  C   UNL     1      47.494   2.048   6.598  0.00  0.00    +0.000 C 
ENDBRANCH  16  23
ENDBRANCH  15  19
ENDBRANCH  14  15
ENDBRANCH   1  14
TORSDOF 5
ENDMDL
MODEL 3
REMARK VINA RESULT:    -8.185      1.256      1.700
REMARK INTER + INTRA:         -11.248
REMARK INTER:                 -10.526
REMARK INTRA:                  -0.722
REMARK UNBOUND:                -0.670
REMARK  Name = 
REMARK  5 active torsions:
REMARK  status: ('A' for Active; 'I' for Inactive)
REMARK    1  A    between atoms: C_2  and  C_3
REMARK    2  A    between atoms: C_6  and  O_7
REMARK    3  A    between atoms: O_7  and  C_8
REMARK    4  A    between atoms: C_8  and  C_9
REMARK    5  A    between atoms: C_13  and  C_14
REMARK                            x       y       z     vdW  Elec       q    Type
REMARK                         _______ _______ _______ _____ _____    ______ ____
ROOT
ATOM      1  C   UNL     1      45.188   4.224  12.137  0.00  0.00    +0.000 A 
ATOM      2  C   UNL     1      46.029   3.561  13.023  0.00  0.00    +0.000 A 
ATOM      3  N   UNL     1      47.055   4.148  13.672  0.00  0.00    +0.000 NA
ATOM      4  C   UNL     1      47.251   5.467  13.429  0.00  0.00    +0.000 A 
ATOM      5  C   UNL     1      46.489   6.247  12.558  0.00  0.00    +0.000 A 
ATOM      6  C   UNL     1      45.444   5.578  11.906  0.00  0.00    +0.000 A 
ENDROOT
BRANCH   5   7
ATOM      7  C   UNL     1      46.750   7.682  12.328  0.00  0.00    +0.000 A 
ATOM      8  C   UNL     1      48.052   8.164  12.096  0.00  0.00    +0.000 A 
ATOM      9  C   UNL     1      48.299   9.524  11.876  0.00  0.00    +0.000 A 
ATOM     10  C   UNL     1      47.243  10.431  11.872  0.00  0.00    +0.000 A 
ATOM     11  C   UNL     1      45.954   9.969  12.090  0.00  0.00    +0.000 A 
ATOM     12  F   UNL     1      44.932  10.835  12.080  0.00  0.00    +0.000 F 
ATOM     13  C   UNL     1      45.703   8.621  12.322  0.00  0.00    +0.000 A 
ENDBRANCH   5   7
BRANCH   1  14
ATOM     14  C   UNL     1      44.058   3.480  11.478  0.00  0.00    +0.000 C 
BRANCH  14  15
ATOM     15  O   UNL     1      43.816   3.962  10.149  0.00  0.00    +0.000 OA
BRANCH  15  19
ATOM     16  C   UNL     1      46.567   2.466   7.485  0.00  0.00    +0.000 A 
ATOM     17  C   UNL     1      45.913   1.596   8.357  0.00  0.00    +0.000 A 
ATOM     18  C   UNL     1      44.977   2.107   9.257  0.00  0.00    +0.000 A 
ATOM     19  C   UNL     1      44.735   3.472   9.247  0.00  0.00    +0.000 A 
ATOM     20  N   UNL     1      45.352   4.333   8.409  0.00  0.00    +0.000 NA
ATOM     21  C   UNL     1      46.251   3.814   7.548  0.00  0.00    +0.000 A 
BRANCH  16  23
ATOM     22  N   UNL     1      48.344   1.634   5.797  0.00  0.00    +0.000 NA
ATOM     23  C   UNL     1      47.540   2.004   6.552  0.00  0.00    +0.000 C 
ENDBRANCH  16  23
ENDBRANCH  15  19
ENDBRANCH  14  15
ENDBRANCH   1  14
TORSDOF 5
ENDMDL
MODEL 4
REMARK VINA RESULT:    -8.004      3.490      7.084
REMARK INTER + INTRA:         -11.013
REMARK INTER:                 -10.284
REMARK INTRA:                  -0.729
REMARK UNBOUND:                -0.670
REMARK  Name = 
REMARK  5 active torsions:
REMARK  status: ('A' for Active; 'I' for Inactive)
REMARK    1  A    between atoms: C_2  and  C_3
REMARK    2  A    between atoms: C_6  and  O_7
REMARK    3  A    between atoms: O_7  and  C_8
REMARK    4  A    between atoms: C_8  and  C_9
REMARK    5  A    between atoms: C_13  and  C_14
REMARK                            x       y       z     vdW  Elec       q    Type
REMARK                         _______ _______ _______ _____ _____    ______ ____
ROOT
ATOM      1  C   UNL     1      44.077   5.173  11.066  0.00  0.00    +0.000 A 
ATOM      2  C   UNL     1      43.258   4.265  11.727  0.00  0.00    +0.000 A 
ATOM      3  N   UNL     1      43.170   2.958  11.410  0.00  0.00    +0.000 NA
ATOM      4  C   UNL     1      43.944   2.529  10.383  0.00  0.00    +0.000 A 
ATOM      5  C   UNL     1      44.802   3.335   9.631  0.00  0.00    +0.000 A 
ATOM      6  C   UNL     1      44.841   4.686  10.002  0.00  0.00    +0.000 A 
ENDROOT
BRANCH   5   7
ATOM      7  C   UNL     1      45.620   2.816   8.518  0.00  0.00    +0.000 A 
ATOM      8  C   UNL     1      46.072   3.656   7.483  0.00  0.00    +0.000 A 
ATOM      9  C   UNL     1      46.850   3.164   6.429  0.00  0.00    +0.000 A 
ATOM     10  C   UNL     1      47.203   1.818   6.394  0.00  0.00    +0.000 A 
ATOM     11  C   UNL     1      46.772   0.980   7.411  0.00  0.00    +0.000 A 
ATOM     12  F   UNL     1      47.114  -0.316   7.389  0.00  0.00    +0.000 F 
ATOM     13  C   UNL     1      45.989   1.460   8.455  0.00  0.00    +0.000 A 
ENDBRANCH   5   7
BRANCH   1  14
ATOM     14  C   UNL     1      44.116   6.610  11.512  0.00  0.00    +0.000 C 
BRANCH  14  15
ATOM     15  O   UNL     1      44.913   6.772  12.694  0.00  0.00    +0.000 OA
BRANCH  15  19
ATOM     16  C   UNL     1      48.357   8.898  11.970  0.00  0.00    +0.000 A 
ATOM     17  C   UNL     1      48.331   7.527  11.715  0.00  0.00    +0.000 A 
ATOM     18  C   UNL     1      47.158   6.809  11.959  0.00  0.00    +0.000 A 
ATOM     19  C   UNL     1      46.059   7.497  12.449  0.00  0.00    +0.000 A 
ATOM     20  N   UNL     1      46.059   8.824  12.698  0.00  0.00    +0.000 NA
ATOM     21  C   UNL     1      47.203   9.495  12.454  0.00  0.00    +0.000 A 
BRANCH  16  23
ATOM     22  N   UNL     1      50.482  10.325  11.586  0.00  0.00    +0.000 NA
ATOM     23  C   UNL     1      49.527   9.681  11.751  0.00  0.00    +0.000 C 
ENDBRANCH  16  23
ENDBRANCH  15  19
ENDBRANCH  14  15
ENDBRANCH   1  14
TORSDOF 5
ENDMDL
MODEL 5
REMARK VINA RESULT:    -7.574      3.397      7.120
REMARK INTER + INTRA:         -10.458
REMARK INTER:                  -9.980
REMARK INTRA:                  -0.478
REMARK UNBOUND:                -0.670
REMARK  Name = 
REMARK  5 active torsions:
REMARK  status: ('A' for Active; 'I' for Inactive)
REMARK    1  A    between atoms: C_2  and  C_3
REMARK    2  A    between atoms: C_6  and  O_7
REMARK    3  A    between atoms: O_7  and  C_8
REMARK    4  A    between atoms: C_8  and  C_9
REMARK    5  A    between atoms: C_13  and  C_14
REMARK                            x       y       z     vdW  Elec       q    Type
REMARK                         _______ _______ _______ _____ _____    ______ ____
ROOT
ATOM      1  C   UNL     1      44.185   5.106  11.213  0.00  0.00    +0.000 A 
ATOM      2  C   UNL     1      43.310   4.212  11.817  0.00  0.00    +0.000 A 
ATOM      3  N   UNL     1      43.148   2.932  11.425  0.00  0.00    +0.000 NA
ATOM      4  C   UNL     1      43.902   2.519  10.376  0.00  0.00    +0.000 A 
ATOM      5  C   UNL     1      44.810   3.315   9.675  0.00  0.00    +0.000 A 
ATOM      6  C   UNL     1      44.926   4.638  10.124  0.00  0.00    +0.000 A 
ENDROOT
BRANCH   5   7
ATOM      7  C   UNL     1      45.604   2.814   8.536  0.00  0.00    +0.000 A 
ATOM      8  C   UNL     1      46.040   3.673   7.510  0.00  0.00    +0.000 A 
ATOM      9  C   UNL     1      46.795   3.198   6.431  0.00  0.00    +0.000 A 
ATOM     10  C   UNL     1      47.139   1.851   6.363  0.00  0.00    +0.000 A 
ATOM     11  C   UNL     1      46.724   0.995   7.371  0.00  0.00    +0.000 A 
ATOM     12  F   UNL     1      47.058  -0.302   7.316  0.00  0.00    +0.000 F 
ATOM     13  C   UNL     1      45.963   1.458   8.439  0.00  0.00    +0.000 A 
ENDBRANCH   5   7
BRANCH   1  14
ATOM     14  C   UNL     1      44.304   6.510  11.741  0.00  0.00    +0.000 C 
BRANCH  14  15
ATOM     15  O   UNL     1      45.480   7.161  11.241  0.00  0.00    +0.000 OA
BRANCH  15  19
ATOM     16  C   UNL     1      48.541   7.229  13.985  0.00  0.00    +0.000 A 
ATOM     17  C   UNL     1      48.296   8.357  13.203  0.00  0.00    +0.000 A 
ATOM     18  C   UNL     1      47.253   8.332  12.275  0.00  0.00    +0.000 A 
ATOM     19  C   UNL     1      46.498   7.174  12.169  0.00  0.00    +0.000 A 
ATOM     20  N   UNL     1      46.714   6.071  12.919  0.00  0.00    +0.000 NA
ATOM     21  C   UNL     1      47.726   6.121  13.808  0.00  0.00    +0.000 A 
BRANCH  16  23
ATOM     22  N   UNL     1      50.461   7.175  15.720  0.00  0.00    +0.000 NA
ATOM     23  C   UNL     1      49.597   7.192  14.941  0.00  0.00    +0.000 C 
ENDBRANCH  16  23
ENDBRANCH  15  19
ENDBRANCH  14  15
ENDBRANCH   1  14
TORSDOF 5
ENDMDL
MODEL 6
REMARK VINA RESULT:    -7.329      3.760      7.444
REMARK INTER + INTRA:         -10.141
REMARK INTER:                  -9.654
REMARK INTRA:                  -0.487
REMARK UNBOUND:                -0.670
REMARK  Name = 
REMARK  5 active torsions:
REMARK  status: ('A' for Active; 'I' for Inactive)
REMARK    1  A    between atoms: C_2  and  C_3
REMARK    2  A    between atoms: C_6  and  O_7
REMARK    3  A    between atoms: O_7  and  C_8
REMARK    4  A    between atoms: C_8  and  C_9
REMARK    5  A    between atoms: C_13  and  C_14
REMARK                            x       y       z     vdW  Elec       q    Type
REMARK                         _______ _______ _______ _____ _____    ______ ____
ROOT
ATOM      1  C   UNL     1      45.003   5.743  11.574  0.00  0.00    +0.000 A 
ATOM      2  C   UNL     1      43.705   5.361  11.889  0.00  0.00    +0.000 A 
ATOM      3  N   UNL     1      43.031   4.381  11.255  0.00  0.00    +0.000 NA
ATOM      4  C   UNL     1      43.687   3.744  10.254  0.00  0.00    +0.000 A 
ATOM      5  C   UNL     1      44.986   4.034   9.831  0.00  0.00    +0.000 A 
ATOM      6  C   UNL     1      45.630   5.068  10.523  0.00  0.00    +0.000 A 
ENDROOT
BRANCH   5   7
ATOM      7  C   UNL     1      45.652   3.308   8.731  0.00  0.00    +0.000 A 
ATOM      8  C   UNL     1      46.195   3.988   7.625  0.00  0.00    +0.000 A 
ATOM      9  C   UNL     1      46.829   3.301   6.584  0.00  0.00    +0.000 A 
ATOM     10  C   UNL     1      46.942   1.915   6.633  0.00  0.00    +0.000 A 
ATOM     11  C   UNL     1      46.419   1.231   7.720  0.00  0.00    +0.000 A 
ATOM     12  F   UNL     1      46.530  -0.102   7.779  0.00  0.00    +0.000 F 
ATOM     13  C   UNL     1      45.777   1.908   8.753  0.00  0.00    +0.000 A 
ENDBRANCH   5   7
BRANCH   1  14
ATOM     14  C   UNL     1      45.673   6.839  12.359  0.00  0.00    +0.000 C 
BRANCH  14  15
ATOM     15  O   UNL     1      47.086   6.613  12.475  0.00  0.00    +0.000 OA
BRANCH  15  19
ATOM     16  C   UNL     1      48.062   5.053  16.152  0.00  0.00    +0.000 A 
ATOM     17  C   UNL     1      47.149   4.379  15.341  0.00  0.00    +0.000 A 
ATOM     18  C   UNL     1      46.822   4.910  14.092  0.00  0.00    +0.000 A 
ATOM     19  C   UNL     1      47.426   6.097  13.706  0.00  0.00    +0.000 A 
ATOM     20  N   UNL     1      48.318   6.764  14.471  0.00  0.00    +0.000 NA
ATOM     21  C   UNL     1      48.617   6.230  15.673  0.00  0.00    +0.000 A 
BRANCH  16  23
ATOM     22  N   UNL     1      48.721   4.180  18.498  0.00  0.00    +0.000 NA
ATOM     23  C   UNL     1      48.426   4.565  17.440  0.00  0.00    +0.000 C 
ENDBRANCH  16  23
ENDBRANCH  15  19
ENDBRANCH  14  15
ENDBRANCH   1  14
TORSDOF 5
ENDMDL
MODEL 7
REMARK VINA RESULT:    -6.510      4.016      8.028
REMARK INTER + INTRA:          -9.082
REMARK INTER:                  -8.440
REMARK INTRA:                  -0.642
REMARK UNBOUND:                -0.670
REMARK  Name = 
REMARK  5 active torsions:
REMARK  status: ('A' for Active; 'I' for Inactive)
REMARK    1  A    between atoms: C_2  and  C_3
REMARK    2  A    between atoms: C_6  and  O_7
REMARK    3  A    between atoms: O_7  and  C_8
REMARK    4  A    between atoms: C_8  and  C_9
REMARK    5  A    between atoms: C_13  and  C_14
REMARK                            x       y       z     vdW  Elec       q    Type
REMARK                         _______ _______ _______ _____ _____    ______ ____
ROOT
ATOM      1  C   UNL     1      46.902   7.195  13.071  0.00  0.00    +0.000 A 
ATOM      2  C   UNL     1      46.104   8.324  12.930  0.00  0.00    +0.000 A 
ATOM      3  N   UNL     1      45.070   8.415  12.070  0.00  0.00    +0.000 NA
ATOM      4  C   UNL     1      44.814   7.321  11.312  0.00  0.00    +0.000 A 
ATOM      5  C   UNL     1      45.541   6.129  11.347  0.00  0.00    +0.000 A 
ATOM      6  C   UNL     1      46.609   6.100  12.254  0.00  0.00    +0.000 A 
ENDROOT
BRANCH   5   7
ATOM      7  C   UNL     1      45.219   4.968  10.495  0.00  0.00    +0.000 A 
ATOM      8  C   UNL     1      44.470   3.882  10.985  0.00  0.00    +0.000 A 
ATOM      9  C   UNL     1      44.163   2.781  10.177  0.00  0.00    +0.000 A 
ATOM     10  C   UNL     1      44.592   2.750   8.853  0.00  0.00    +0.000 A 
ATOM     11  C   UNL     1      45.324   3.816   8.354  0.00  0.00    +0.000 A 
ATOM     12  F   UNL     1      45.735   3.796   7.079  0.00  0.00    +0.000 F 
ATOM     13  C   UNL     1      45.643   4.907   9.156  0.00  0.00    +0.000 A 
ENDBRANCH   5   7
BRANCH   1  14
ATOM     14  C   UNL     1      48.022   7.190  14.076  0.00  0.00    +0.000 C 
BRANCH  14  15
ATOM     15  O   UNL     1      48.533   5.866  14.287  0.00  0.00    +0.000 OA
BRANCH  15  19
ATOM     16  C   UNL     1      48.589   4.866  18.275  0.00  0.00    +0.000 A 
ATOM     17  C   UNL     1      47.557   4.395  17.464  0.00  0.00    +0.000 A 
ATOM     18  C   UNL     1      47.543   4.734  16.109  0.00  0.00    +0.000 A 
ATOM     19  C   UNL     1      48.567   5.532  15.623  0.00  0.00    +0.000 A 
ATOM     20  N   UNL     1      49.579   5.995  16.388  0.00  0.00    +0.000 NA
ATOM     21  C   UNL     1      49.570   5.654  17.692  0.00  0.00    +0.000 A 
BRANCH  16  23
ATOM     22  N   UNL     1      48.708   4.326  20.803  0.00  0.00    +0.000 NA
ATOM     23  C   UNL     1      48.651   4.562  19.665  0.00  0.00    +0.000 C 
ENDBRANCH  16  23
ENDBRANCH  15  19
ENDBRANCH  14  15
ENDBRANCH   1  14
TORSDOF 5
ENDMDL
MODEL 8
REMARK VINA RESULT:    -6.339      4.157      8.112
REMARK INTER + INTRA:          -8.861
REMARK INTER:                  -8.226
REMARK INTRA:                  -0.636
REMARK UNBOUND:                -0.670
REMARK  Name = 
REMARK  5 active torsions:
REMARK  status: ('A' for Active; 'I' for Inactive)
REMARK    1  A    between atoms: C_2  and  C_3
REMARK    2  A    between atoms: C_6  and  O_7
REMARK    3  A    between atoms: O_7  and  C_8
REMARK    4  A    between atoms: C_8  and  C_9
REMARK    5  A    between atoms: C_13  and  C_14
REMARK                            x       y       z     vdW  Elec       q    Type
REMARK                         _______ _______ _______ _____ _____    ______ ____
ROOT
ATOM      1  C   UNL     1      46.985   7.580  13.154  0.00  0.00    +0.000 A 
ATOM      2  C   UNL     1      46.204   8.717  12.985  0.00  0.00    +0.000 A 
ATOM      3  N   UNL     1      45.156   8.794  12.141  0.00  0.00    +0.000 NA
ATOM      4  C   UNL     1      44.866   7.677  11.430  0.00  0.00    +0.000 A 
ATOM      5  C   UNL     1      45.573   6.475  11.496  0.00  0.00    +0.000 A 
ATOM      6  C   UNL     1      46.658   6.460  12.384  0.00  0.00    +0.000 A 
ENDROOT
BRANCH   5   7
ATOM      7  C   UNL     1      45.216   5.288  10.695  0.00  0.00    +0.000 A 
ATOM      8  C   UNL     1      45.621   5.158   9.353  0.00  0.00    +0.000 A 
ATOM      9  C   UNL     1      45.284   4.032   8.593  0.00  0.00    +0.000 A 
ATOM     10  C   UNL     1      44.541   3.004   9.166  0.00  0.00    +0.000 A 
ATOM     11  C   UNL     1      44.142   3.114  10.489  0.00  0.00    +0.000 A 
ATOM     12  F   UNL     1      43.432   2.125  11.050  0.00  0.00    +0.000 F 
ATOM     13  C   UNL     1      44.463   4.236  11.246  0.00  0.00    +0.000 A 
ENDBRANCH   5   7
BRANCH   1  14
ATOM     14  C   UNL     1      48.123   7.592  14.139  0.00  0.00    +0.000 C 
BRANCH  14  15
ATOM     15  O   UNL     1      48.649   6.274  14.350  0.00  0.00    +0.000 OA
BRANCH  15  19
ATOM     16  C   UNL     1      48.664   5.248  18.332  0.00  0.00    +0.000 A 
ATOM     17  C   UNL     1      49.255   6.445  17.929  0.00  0.00    +0.000 A 
ATOM     18  C   UNL     1      49.245   6.791  16.577  0.00  0.00    +0.000 A 
ATOM     19  C   UNL     1      48.641   5.922  15.682  0.00  0.00    +0.000 A 
ATOM     20  N   UNL     1      48.057   4.760  16.049  0.00  0.00    +0.000 NA
ATOM     21  C   UNL     1      48.080   4.448  17.361  0.00  0.00    +0.000 A 
BRANCH  16  23
ATOM     22  N   UNL     1      48.643   4.486  20.805  0.00  0.00    +0.000 NA
ATOM     23  C   UNL     1      48.652   4.836  19.695  0.00  0.00    +0.000 C 
ENDBRANCH  16  23
ENDBRANCH  15  19
ENDBRANCH  14  15
ENDBRANCH   1  14
TORSDOF 5
ENDMDL
MODEL 9
REMARK VINA RESULT:    -5.969      3.948      6.018
REMARK INTER + INTRA:          -8.384
REMARK INTER:                  -7.608
REMARK INTRA:                  -0.776
REMARK UNBOUND:                -0.670
REMARK  Name = 
REMARK  5 active torsions:
REMARK  status: ('A' for Active; 'I' for Inactive)
REMARK    1  A    between atoms: C_2  and  C_3
REMARK    2  A    between atoms: C_6  and  O_7
REMARK    3  A    between atoms: O_7  and  C_8
REMARK    4  A    between atoms: C_8  and  C_9
REMARK    5  A    between atoms: C_13  and  C_14
REMARK                            x       y       z     vdW  Elec       q    Type
REMARK                         _______ _______ _______ _____ _____    ______ ____
ROOT
ATOM      1  C   UNL     1      48.373   7.746  13.453  0.00  0.00    +0.000 A 
ATOM      2  C   UNL     1      49.071   8.881  13.847  0.00  0.00    +0.000 A 
ATOM      3  N   UNL     1      49.680   9.016  15.043  0.00  0.00    +0.000 NA
ATOM      4  C   UNL     1      49.591   7.962  15.891  0.00  0.00    +0.000 A 
ATOM      5  C   UNL     1      48.914   6.770  15.625  0.00  0.00    +0.000 A 
ATOM      6  C   UNL     1      48.294   6.694  14.370  0.00  0.00    +0.000 A 
ENDROOT
BRANCH   5   7
ATOM      7  C   UNL     1      48.846   5.653  16.588  0.00  0.00    +0.000 A 
ATOM      8  C   UNL     1      49.810   5.498  17.602  0.00  0.00    +0.000 A 
ATOM      9  C   UNL     1      49.745   4.440  18.516  0.00  0.00    +0.000 A 
ATOM     10  C   UNL     1      48.704   3.520  18.441  0.00  0.00    +0.000 A 
ATOM     11  C   UNL     1      47.742   3.665  17.453  0.00  0.00    +0.000 A 
ATOM     12  F   UNL     1      46.732   2.787  17.379  0.00  0.00    +0.000 F 
ATOM     13  C   UNL     1      47.808   4.706  16.534  0.00  0.00    +0.000 A 
ENDBRANCH   5   7
BRANCH   1  14
ATOM     14  C   UNL     1      47.745   7.689  12.086  0.00  0.00    +0.000 C 
BRANCH  14  15
ATOM     15  O   UNL     1      46.323   7.866  12.154  0.00  0.00    +0.000 OA
BRANCH  15  19
ATOM     16  C   UNL     1      44.308   4.306  11.738  0.00  0.00    +0.000 A 
ATOM     17  C   UNL     1      45.140   4.747  10.710  0.00  0.00    +0.000 A 
ATOM     18  C   UNL     1      45.826   5.955  10.856  0.00  0.00    +0.000 A 
ATOM     19  C   UNL     1      45.648   6.672  12.030  0.00  0.00    +0.000 A 
ATOM     20  N   UNL     1      44.851   6.262  13.041  0.00  0.00    +0.000 NA
ATOM     21  C   UNL     1      44.201   5.092  12.875  0.00  0.00    +0.000 A 
BRANCH  16  23
ATOM     22  N   UNL     1      42.965   2.100  11.567  0.00  0.00    +0.000 NA
ATOM     23  C   UNL     1      43.575   3.088  11.642  0.00  0.00    +0.000 C 
ENDBRANCH  16  23
ENDBRANCH  15  19
ENDBRANCH  14  15
ENDBRANCH   1  14
TORSDOF 5
ENDMDL
