MODEL 1
REMARK VINA RESULT:    -7.404      0.000      0.000
REMARK INTER + INTRA:         -10.432
REMARK INTER:                 -10.001
REMARK INTRA:                  -0.431
REMARK UNBOUND:                -0.431
REMARK  Name = 
REMARK  9 active torsions:
REMARK  status: ('A' for Active; 'I' for Inactive)
REMARK    1  A    between atoms: C_1  and  N_2
REMARK    2  A    between atoms: C_4  and  O_5
REMARK    3  A    between atoms: O_5  and  C_6
REMARK    4  A    between atoms: C_10  and  C_11
REMARK    5  A    between atoms: C_11  and  C_12
REMARK    6  A    between atoms: C_12  and  N_13
REMARK    7  A    between atoms: C_17  and  C_18
REMARK    8  A    between atoms: N_20  and  C_21
REMARK    9  A    between atoms: N_20  and  C_22
REMARK                            x       y       z     vdW  Elec       q    Type
REMARK                         _______ _______ _______ _____ _____    ______ ____
ROOT
ATOM      1  C   UNL     1      46.760   5.118  13.788  0.00  0.00    +0.000 C 
ENDROOT
BRANCH   1   2
ATOM      2  N   UNL     1      46.605   4.061  14.799  0.00  0.00    +0.000 N 
ATOM      3  C   UNL     1      47.503   4.192  15.880  0.00  0.00    +0.000 A 
ATOM      4  C   UNL     1      47.504   3.217  16.878  0.00  0.00    +0.000 A 
ATOM      5  C   UNL     1      48.397   3.314  17.959  0.00  0.00    +0.000 A 
ATOM      6  C   UNL     1      49.246   4.413  18.055  0.00  0.00    +0.000 A 
ATOM      7  C   UNL     1      49.181   5.328  17.008  0.00  0.00    +0.000 A 
ATOM      8  N   UNL     1      48.331   5.248  15.948  0.00  0.00    +0.000 NA
ATOM      9  H   UNL     1      46.726   3.134  14.399  0.00  0.00    +0.000 HD
BRANCH   6  10
ATOM     10  C   UNL     1      50.295   4.647  19.086  0.00  0.00    +0.000 C 
ATOM     11  O   UNL     1      49.923   5.275  20.081  0.00  0.00    +0.000 OA
ATOM     12  N   UNL     1      51.609   4.177  18.971  0.00  0.00    +0.000 N 
ATOM     13  C   UNL     1      52.178   3.342  17.924  0.00  0.00    +0.000 C 
ATOM     14  C   UNL     1      52.522   4.480  20.067  0.00  0.00    +0.000 C 
ENDBRANCH   6  10
ENDBRANCH   1   2
BRANCH   1  15
ATOM     15  C   UNL     1      45.386   5.589  13.283  0.00  0.00    +0.000 C 
BRANCH  15  20
ATOM     16  C   UNL     1      44.869   4.321   9.726  0.00  0.00    +0.000 A 
ATOM     17  C   UNL     1      43.900   3.361   9.985  0.00  0.00    +0.000 A 
ATOM     18  N   UNL     1      43.421   3.078  11.218  0.00  0.00    +0.000 NA
ATOM     19  C   UNL     1      43.923   3.803  12.241  0.00  0.00    +0.000 A 
ATOM     20  C   UNL     1      44.889   4.795  12.098  0.00  0.00    +0.000 A 
ATOM     21  C   UNL     1      45.364   5.053  10.801  0.00  0.00    +0.000 A 
BRANCH  16  22
ATOM     22  O   UNL     1      45.228   4.500   8.416  0.00  0.00    +0.000 OA
BRANCH  22  26
ATOM     23  C   UNL     1      48.153   1.839   6.515  0.00  0.00    +0.000 C 
ATOM     24  N   UNL     1      47.384   2.833   7.251  0.00  0.00    +0.000 NA
ATOM     25  C   UNL     1      46.302   2.191   8.032  0.00  0.00    +0.000 C 
ATOM     26  C   UNL     1      45.352   3.329   7.571  0.00  0.00    +0.000 C 
ATOM     27  C   UNL     1      46.357   3.466   6.393  0.00  0.00    +0.000 C 
ENDBRANCH  22  26
ENDBRANCH  16  22
ENDBRANCH  15  20
ENDBRANCH   1  15
TORSDOF 6
ENDMDL
MODEL 2
REMARK VINA RESULT:    -6.657      2.159      2.967
REMARK INTER + INTRA:          -9.422
REMARK INTER:                  -8.806
REMARK INTRA:                  -0.617
REMARK UNBOUND:                -0.431
REMARK  Name = 
REMARK  9 active torsions:
REMARK  status: ('A' for Active; 'I' for Inactive)
REMARK    1  A    between atoms: C_1  and  N_2
REMARK    2  A    between atoms: C_4  and  O_5
REMARK    3  A    between atoms: O_5  and  C_6
REMARK    4  A    between atoms: C_10  and  C_11
REMARK    5  A    between atoms: C_11  and  C_12
REMARK    6  A    between atoms: C_12  and  N_13
REMARK    7  A    between atoms: C_17  and  C_18
REMARK    8  A    between atoms: N_20  and  C_21
REMARK    9  A    between atoms: N_20  and  C_22
REMARK                            x       y       z     vdW  Elec       q    Type
REMARK                         _______ _______ _______ _____ _____    ______ ____
ROOT
ATOM      1  C   UNL     1      46.865   7.449  11.757  0.00  0.00    +0.000 C 
ENDROOT
BRANCH   1   2
ATOM      2  N   UNL     1      47.542   8.253  12.786  0.00  0.00    +0.000 N 
ATOM      3  C   UNL     1      47.921   7.500  13.918  0.00  0.00    +0.000 A 
ATOM      4  C   UNL     1      48.516   8.156  14.996  0.00  0.00    +0.000 A 
ATOM      5  C   UNL     1      48.890   7.434  16.143  0.00  0.00    +0.000 A 
ATOM      6  C   UNL     1      48.709   6.054  16.178  0.00  0.00    +0.000 A 
ATOM      7  C   UNL     1      48.099   5.490  15.061  0.00  0.00    +0.000 A 
ATOM      8  N   UNL     1      47.721   6.172  13.946  0.00  0.00    +0.000 NA
ATOM      9  H   UNL     1      46.965   9.028  13.102  0.00  0.00    +0.000 HD
BRANCH   6  10
ATOM     10  C   UNL     1      48.983   5.144  17.324  0.00  0.00    +0.000 C 
ATOM     11  O   UNL     1      49.837   4.277  17.115  0.00  0.00    +0.000 OA
ATOM     12  N   UNL     1      48.350   5.257  18.568  0.00  0.00    +0.000 N 
ATOM     13  C   UNL     1      47.407   6.274  19.009  0.00  0.00    +0.000 C 
ATOM     14  C   UNL     1      48.728   4.295  19.597  0.00  0.00    +0.000 C 
ENDBRANCH   6  10
ENDBRANCH   1   2
BRANCH   1  15
ATOM     15  C   UNL     1      45.339   7.536  11.919  0.00  0.00    +0.000 C 
BRANCH  15  20
ATOM     16  C   UNL     1      44.672   3.917  10.926  0.00  0.00    +0.000 A 
ATOM     17  C   UNL     1      43.302   3.889  11.150  0.00  0.00    +0.000 A 
ATOM     18  N   UNL     1      42.585   4.937  11.617  0.00  0.00    +0.000 NA
ATOM     19  C   UNL     1      43.270   6.077  11.856  0.00  0.00    +0.000 A 
ATOM     20  C   UNL     1      44.641   6.223  11.659  0.00  0.00    +0.000 A 
ATOM     21  C   UNL     1      45.348   5.108  11.178  0.00  0.00    +0.000 A 
BRANCH  16  22
ATOM     22  O   UNL     1      45.242   2.776  10.428  0.00  0.00    +0.000 OA
BRANCH  22  26
ATOM     23  C   UNL     1      46.636   2.894   6.270  0.00  0.00    +0.000 C 
ATOM     24  N   UNL     1      46.395   2.965   7.704  0.00  0.00    +0.000 NA
ATOM     25  C   UNL     1      45.985   1.646   8.237  0.00  0.00    +0.000 C 
ATOM     26  C   UNL     1      44.901   2.370   9.079  0.00  0.00    +0.000 C 
ATOM     27  C   UNL     1      45.037   3.479   7.999  0.00  0.00    +0.000 C 
ENDBRANCH  22  26
ENDBRANCH  16  22
ENDBRANCH  15  20
ENDBRANCH   1  15
TORSDOF 6
ENDMDL
MODEL 3
REMARK VINA RESULT:    -6.450      2.683      8.823
REMARK INTER + INTRA:          -9.144
REMARK INTER:                  -8.222
REMARK INTRA:                  -0.922
REMARK UNBOUND:                -0.431
REMARK  Name = 
REMARK  9 active torsions:
REMARK  status: ('A' for Active; 'I' for Inactive)
REMARK    1  A    between atoms: C_1  and  N_2
REMARK    2  A    between atoms: C_4  and  O_5
REMARK    3  A    between atoms: O_5  and  C_6
REMARK    4  A    between atoms: C_10  and  C_11
REMARK    5  A    between atoms: C_11  and  C_12
REMARK    6  A    between atoms: C_12  and  N_13
REMARK    7  A    between atoms: C_17  and  C_18
REMARK    8  A    between atoms: N_20  and  C_21
REMARK    9  A    between atoms: N_20  and  C_22
REMARK                            x       y       z     vdW  Elec       q    Type
REMARK                         _______ _______ _______ _____ _____    ______ ____
ROOT
ATOM      1  C   UNL     1      48.703   9.243  14.175  0.00  0.00    +0.000 C 
ENDROOT
BRANCH   1   2
ATOM      2  N   UNL     1      47.281   9.408  13.835  0.00  0.00    +0.000 N 
ATOM      3  C   UNL     1      46.776   8.356  13.042  0.00  0.00    +0.000 A 
ATOM      4  C   UNL     1      45.455   8.422  12.596  0.00  0.00    +0.000 A 
ATOM      5  C   UNL     1      44.929   7.395  11.792  0.00  0.00    +0.000 A 
ATOM      6  C   UNL     1      45.716   6.290  11.484  0.00  0.00    +0.000 A 
ATOM      7  C   UNL     1      47.022   6.317  11.964  0.00  0.00    +0.000 A 
ATOM      8  N   UNL     1      47.554   7.304  12.735  0.00  0.00    +0.000 NA
ATOM      9  H   UNL     1      47.107  10.282  13.347  0.00  0.00    +0.000 HD
BRANCH   6  10
ATOM     10  C   UNL     1      45.350   5.150  10.599  0.00  0.00    +0.000 C 
ATOM     11  O   UNL     1      45.747   5.240   9.433  0.00  0.00    +0.000 OA
ATOM     12  N   UNL     1      44.630   4.031  11.037  0.00  0.00    +0.000 N 
ATOM     13  C   UNL     1      44.183   3.722  12.387  0.00  0.00    +0.000 C 
ATOM     14  C   UNL     1      44.353   2.991  10.054  0.00  0.00    +0.000 C 
ENDBRANCH   6  10
ENDBRANCH   1   2
BRANCH   1  15
ATOM     15  C   UNL     1      48.938   9.522  15.668  0.00  0.00    +0.000 C 
BRANCH  15  20
ATOM     16  C   UNL     1      48.706   5.911  16.865  0.00  0.00    +0.000 A 
ATOM     17  C   UNL     1      48.240   6.147  18.151  0.00  0.00    +0.000 A 
ATOM     18  N   UNL     1      48.019   7.378  18.666  0.00  0.00    +0.000 NA
ATOM     19  C   UNL     1      48.260   8.426  17.848  0.00  0.00    +0.000 A 
ATOM     20  C   UNL     1      48.718   8.308  16.539  0.00  0.00    +0.000 A 
ATOM     21  C   UNL     1      48.940   7.012  16.045  0.00  0.00    +0.000 A 
BRANCH  16  22
ATOM     22  O   UNL     1      48.854   4.602  16.490  0.00  0.00    +0.000 OA
BRANCH  22  26
ATOM     23  C   UNL     1      51.632   1.327  17.391  0.00  0.00    +0.000 C 
ATOM     24  N   UNL     1      50.845   2.440  16.880  0.00  0.00    +0.000 NA
ATOM     25  C   UNL     1      50.710   3.505  17.899  0.00  0.00    +0.000 C 
ATOM     26  C   UNL     1      49.214   3.633  17.507  0.00  0.00    +0.000 C 
ATOM     27  C   UNL     1      49.393   2.175  16.998  0.00  0.00    +0.000 C 
ENDBRANCH  22  26
ENDBRANCH  16  22
ENDBRANCH  15  20
ENDBRANCH   1  15
TORSDOF 6
ENDMDL
MODEL 4
REMARK VINA RESULT:    -6.292      4.964      5.595
REMARK INTER + INTRA:          -8.931
REMARK INTER:                  -8.218
REMARK INTRA:                  -0.713
REMARK UNBOUND:                -0.431
REMARK  Name = 
REMARK  9 active torsions:
REMARK  status: ('A' for Active; 'I' for Inactive)
REMARK    1  A    between atoms: C_1  and  N_2
REMARK    2  A    between atoms: C_4  and  O_5
REMARK    3  A    between atoms: O_5  and  C_6
REMARK    4  A    between atoms: C_10  and  C_11
REMARK    5  A    between atoms: C_11  and  C_12
REMARK    6  A    between atoms: C_12  and  N_13
REMARK    7  A    between atoms: C_17  and  C_18
REMARK    8  A    between atoms: N_20  and  C_21
REMARK    9  A    between atoms: N_20  and  C_22
REMARK                            x       y       z     vdW  Elec       q    Type
REMARK                         _______ _______ _______ _____ _____    ______ ____
ROOT
ATOM      1  C   UNL     1      46.188   7.689  12.721  0.00  0.00    +0.000 C 
ENDROOT
BRANCH   1   2
ATOM      2  N   UNL     1      46.927   8.947  12.533  0.00  0.00    +0.000 N 
ATOM      3  C   UNL     1      48.251   8.750  12.087  0.00  0.00    +0.000 A 
ATOM      4  C   UNL     1      49.082   9.860  11.930  0.00  0.00    +0.000 A 
ATOM      5  C   UNL     1      50.410   9.693  11.501  0.00  0.00    +0.000 A 
ATOM      6  C   UNL     1      50.878   8.421  11.187  0.00  0.00    +0.000 A 
ATOM      7  C   UNL     1      49.981   7.374  11.383  0.00  0.00    +0.000 A 
ATOM      8  N   UNL     1      48.695   7.513  11.807  0.00  0.00    +0.000 NA
ATOM      9  H   UNL     1      46.960   9.498  13.387  0.00  0.00    +0.000 HD
BRANCH   6  10
ATOM     10  C   UNL     1      52.262   8.050  10.784  0.00  0.00    +0.000 C 
ATOM     11  O   UNL     1      52.414   7.807   9.583  0.00  0.00    +0.000 OA
ATOM     12  N   UNL     1      53.339   7.997  11.678  0.00  0.00    +0.000 N 
ATOM     13  C   UNL     1      53.354   8.349  13.089  0.00  0.00    +0.000 C 
ATOM     14  C   UNL     1      54.639   7.623  11.133  0.00  0.00    +0.000 C 
ENDBRANCH   6  10
ENDBRANCH   1   2
BRANCH   1  15
ATOM     15  C   UNL     1      44.956   7.643  11.802  0.00  0.00    +0.000 C 
BRANCH  15  20
ATOM     16  C   UNL     1      44.778   3.960  10.836  0.00  0.00    +0.000 A 
ATOM     17  C   UNL     1      43.436   3.736  11.114  0.00  0.00    +0.000 A 
ATOM     18  N   UNL     1      42.595   4.673  11.609  0.00  0.00    +0.000 NA
ATOM     19  C   UNL     1      43.118   5.901  11.821  0.00  0.00    +0.000 A 
ATOM     20  C   UNL     1      44.445   6.241  11.570  0.00  0.00    +0.000 A 
ATOM     21  C   UNL     1      45.285   5.237  11.061  0.00  0.00    +0.000 A 
BRANCH  16  22
ATOM     22  O   UNL     1      45.486   2.910  10.316  0.00  0.00    +0.000 OA
BRANCH  22  26
ATOM     23  C   UNL     1      46.873   2.568   6.167  0.00  0.00    +0.000 C 
ATOM     24  N   UNL     1      46.641   2.780   7.588  0.00  0.00    +0.000 NA
ATOM     25  C   UNL     1      46.144   1.544   8.234  0.00  0.00    +0.000 C 
ATOM     26  C   UNL     1      45.114   2.411   9.006  0.00  0.00    +0.000 C 
ATOM     27  C   UNL     1      45.323   3.410   7.834  0.00  0.00    +0.000 C 
ENDBRANCH  22  26
ENDBRANCH  16  22
ENDBRANCH  15  20
ENDBRANCH   1  15
TORSDOF 6
ENDMDL
MODEL 5
REMARK VINA RESULT:    -6.109      2.645      3.640
REMARK INTER + INTRA:          -8.683
REMARK INTER:                  -8.002
REMARK INTRA:                  -0.681
REMARK UNBOUND:                -0.431
REMARK  Name = 
REMARK  9 active torsions:
REMARK  status: ('A' for Active; 'I' for Inactive)
REMARK    1  A    between atoms: C_1  and  N_2
REMARK    2  A    between atoms: C_4  and  O_5
REMARK    3  A    between atoms: O_5  and  C_6
REMARK    4  A    between atoms: C_10  and  C_11
REMARK    5  A    between atoms: C_11  and  C_12
REMARK    6  A    between atoms: C_12  and  N_13
REMARK    7  A    between atoms: C_17  and  C_18
REMARK    8  A    between atoms: N_20  and  C_21
REMARK    9  A    between atoms: N_20  and  C_22
REMARK                            x       y       z     vdW  Elec       q    Type
REMARK                         _______ _______ _______ _____ _____    ______ ____
ROOT
ATOM      1  C   UNL     1      45.017   7.329  11.321  0.00  0.00    +0.000 C 
ENDROOT
BRANCH   1   2
ATOM      2  N   UNL     1      45.351   8.386  12.289  0.00  0.00    +0.000 N 
ATOM      3  C   UNL     1      46.563   8.148  12.971  0.00  0.00    +0.000 A 
ATOM      4  C   UNL     1      46.965   9.043  13.964  0.00  0.00    +0.000 A 
ATOM      5  C   UNL     1      48.161   8.824  14.670  0.00  0.00    +0.000 A 
ATOM      6  C   UNL     1      48.966   7.738  14.342  0.00  0.00    +0.000 A 
ATOM      7  C   UNL     1      48.479   6.896  13.346  0.00  0.00    +0.000 A 
ATOM      8  N   UNL     1      47.321   7.084  12.657  0.00  0.00    +0.000 NA
ATOM      9  H   UNL     1      44.618   8.510  12.982  0.00  0.00    +0.000 HD
BRANCH   6  10
ATOM     10  C   UNL     1      50.222   7.317  15.021  0.00  0.00    +0.000 C 
ATOM     11  O   UNL     1      51.263   7.751  14.520  0.00  0.00    +0.000 OA
ATOM     12  N   UNL     1      50.248   6.507  16.164  0.00  0.00    +0.000 N 
ATOM     13  C   UNL     1      49.122   6.002  16.934  0.00  0.00    +0.000 C 
ATOM     14  C   UNL     1      51.557   6.184  16.721  0.00  0.00    +0.000 C 
ENDBRANCH   6  10
ENDBRANCH   1   2
BRANCH   1  15
ATOM     15  C   UNL     1      43.785   6.537  11.788  0.00  0.00    +0.000 C 
BRANCH  15  20
ATOM     16  C   UNL     1      44.337   3.350   9.773  0.00  0.00    +0.000 A 
ATOM     17  C   UNL     1      43.821   2.436  10.682  0.00  0.00    +0.000 A 
ATOM     18  N   UNL     1      43.332   2.767  11.899  0.00  0.00    +0.000 NA
ATOM     19  C   UNL     1      43.344   4.081  12.217  0.00  0.00    +0.000 A 
ATOM     20  C   UNL     1      43.828   5.084  11.381  0.00  0.00    +0.000 A 
ATOM     21  C   UNL     1      44.332   4.695  10.129  0.00  0.00    +0.000 A 
BRANCH  16  22
ATOM     22  O   UNL     1      44.771   2.852   8.573  0.00  0.00    +0.000 OA
BRANCH  22  26
ATOM     23  C   UNL     1      47.760   2.358   5.399  0.00  0.00    +0.000 C 
ATOM     24  N   UNL     1      46.599   2.512   6.264  0.00  0.00    +0.000 NA
ATOM     25  C   UNL     1      46.759   3.679   7.161  0.00  0.00    +0.000 C 
ATOM     26  C   UNL     1      46.197   2.813   8.320  0.00  0.00    +0.000 C 
ATOM     27  C   UNL     1      46.683   1.623   7.446  0.00  0.00    +0.000 C 
ENDBRANCH  22  26
ENDBRANCH  16  22
ENDBRANCH  15  20
ENDBRANCH   1  15
TORSDOF 6
ENDMDL
MODEL 6
REMARK VINA RESULT:    -6.096      4.679      7.246
REMARK INTER + INTRA:          -8.665
REMARK INTER:                  -7.778
REMARK INTRA:                  -0.887
REMARK UNBOUND:                -0.431
REMARK  Name = 
REMARK  9 active torsions:
REMARK  status: ('A' for Active; 'I' for Inactive)
REMARK    1  A    between atoms: C_1  and  N_2
REMARK    2  A    between atoms: C_4  and  O_5
REMARK    3  A    between atoms: O_5  and  C_6
REMARK    4  A    between atoms: C_10  and  C_11
REMARK    5  A    between atoms: C_11  and  C_12
REMARK    6  A    between atoms: C_12  and  N_13
REMARK    7  A    between atoms: C_17  and  C_18
REMARK    8  A    between atoms: N_20  and  C_21
REMARK    9  A    between atoms: N_20  and  C_22
REMARK                            x       y       z     vdW  Elec       q    Type
REMARK                         _______ _______ _______ _____ _____    ______ ____
ROOT
ATOM      1  C   UNL     1      46.008   8.420  12.989  0.00  0.00    +0.000 C 
ENDROOT
BRANCH   1   2
ATOM      2  N   UNL     1      46.711   9.452  12.212  0.00  0.00    +0.000 N 
ATOM      3  C   UNL     1      48.091   9.194  12.070  0.00  0.00    +0.000 A 
ATOM      4  C   UNL     1      48.887  10.129  11.407  0.00  0.00    +0.000 A 
ATOM      5  C   UNL     1      50.267   9.906  11.263  0.00  0.00    +0.000 A 
ATOM      6  C   UNL     1      50.828   8.726  11.741  0.00  0.00    +0.000 A 
ATOM      7  C   UNL     1      49.959   7.858  12.396  0.00  0.00    +0.000 A 
ATOM      8  N   UNL     1      48.622   8.059  12.555  0.00  0.00    +0.000 NA
ATOM      9  H   UNL     1      46.603  10.375  12.624  0.00  0.00    +0.000 HD
BRANCH   6  10
ATOM     10  C   UNL     1      52.270   8.353  11.735  0.00  0.00    +0.000 C 
ATOM     11  O   UNL     1      52.897   8.662  12.752  0.00  0.00    +0.000 OA
ATOM     12  N   UNL     1      52.888   7.678  10.676  0.00  0.00    +0.000 N 
ATOM     13  C   UNL     1      52.278   7.155   9.463  0.00  0.00    +0.000 C 
ATOM     14  C   UNL     1      54.308   7.375  10.819  0.00  0.00    +0.000 C 
ENDBRANCH   6  10
ENDBRANCH   1   2
BRANCH   1  15
ATOM     15  C   UNL     1      45.152   7.537  12.067  0.00  0.00    +0.000 C 
BRANCH  15  20
ATOM     16  C   UNL     1      46.408   4.233  13.493  0.00  0.00    +0.000 A 
ATOM     17  C   UNL     1      45.706   3.368  12.664  0.00  0.00    +0.000 A 
ATOM     18  N   UNL     1      44.844   3.768  11.701  0.00  0.00    +0.000 NA
ATOM     19  C   UNL     1      44.690   5.102  11.546  0.00  0.00    +0.000 A 
ATOM     20  C   UNL     1      45.349   6.060  12.312  0.00  0.00    +0.000 A 
ATOM     21  C   UNL     1      46.230   5.601  13.306  0.00  0.00    +0.000 A 
BRANCH  16  22
ATOM     22  O   UNL     1      47.259   3.664  14.403  0.00  0.00    +0.000 OA
BRANCH  22  26
ATOM     23  C   UNL     1      49.627   4.208  18.056  0.00  0.00    +0.000 C 
ATOM     24  N   UNL     1      49.062   3.965  16.737  0.00  0.00    +0.000 NA
ATOM     25  C   UNL     1      48.233   5.111  16.297  0.00  0.00    +0.000 C 
ATOM     26  C   UNL     1      47.177   4.097  15.784  0.00  0.00    +0.000 C 
ATOM     27  C   UNL     1      47.834   3.140  16.817  0.00  0.00    +0.000 C 
ENDBRANCH  22  26
ENDBRANCH  16  22
ENDBRANCH  15  20
ENDBRANCH   1  15
TORSDOF 6
ENDMDL
MODEL 7
REMARK VINA RESULT:    -6.030      2.275      9.961
REMARK INTER + INTRA:          -8.576
REMARK INTER:                  -8.237
REMARK INTRA:                  -0.339
REMARK UNBOUND:                -0.431
REMARK  Name = 
REMARK  9 active torsions:
REMARK  status: ('A' for Active; 'I' for Inactive)
REMARK    1  A    between atoms: C_1  and  N_2
REMARK    2  A    between atoms: C_4  and  O_5
REMARK    3  A    between atoms: O_5  and  C_6
REMARK    4  A    between atoms: C_10  and  C_11
REMARK    5  A    between atoms: C_11  and  C_12
REMARK    6  A    between atoms: C_12  and  N_13
REMARK    7  A    between atoms: C_17  and  C_18
REMARK    8  A    between atoms: N_20  and  C_21
REMARK    9  A    between atoms: N_20  and  C_22
REMARK                            x       y       z     vdW  Elec       q    Type
REMARK                         _______ _______ _______ _____ _____    ______ ____
ROOT
ATOM      1  C   UNL     1      47.581   3.826  16.004  0.00  0.00    +0.000 C 
ENDROOT
BRANCH   1   2
ATOM      2  N   UNL     1      47.134   5.026  15.280  0.00  0.00    +0.000 N 
ATOM      3  C   UNL     1      46.496   4.729  14.056  0.00  0.00    +0.000 A 
ATOM      4  C   UNL     1      46.079   5.781  13.240  0.00  0.00    +0.000 A 
ATOM      5  C   UNL     1      45.454   5.516  12.009  0.00  0.00    +0.000 A 
ATOM      6  C   UNL     1      45.209   4.199  11.631  0.00  0.00    +0.000 A 
ATOM      7  C   UNL     1      45.668   3.217  12.505  0.00  0.00    +0.000 A 
ATOM      8  N   UNL     1      46.284   3.453  13.695  0.00  0.00    +0.000 NA
ATOM      9  H   UNL     1      47.903   5.662  15.088  0.00  0.00    +0.000 HD
BRANCH   6  10
ATOM     10  C   UNL     1      44.623   3.731  10.345  0.00  0.00    +0.000 C 
ATOM     11  O   UNL     1      43.663   2.962  10.453  0.00  0.00    +0.000 OA
ATOM     12  N   UNL     1      45.090   4.139   9.090  0.00  0.00    +0.000 N 
ATOM     13  C   UNL     1      46.132   5.109   8.789  0.00  0.00    +0.000 C 
ATOM     14  C   UNL     1      44.409   3.599   7.918  0.00  0.00    +0.000 C 
ENDBRANCH   6  10
ENDBRANCH   1   2
BRANCH   1  15
ATOM     15  C   UNL     1      48.361   4.217  17.270  0.00  0.00    +0.000 C 
BRANCH  15  20
ATOM     16  C   UNL     1      51.974   3.336  18.105  0.00  0.00    +0.000 A 
ATOM     17  C   UNL     1      51.988   2.034  17.622  0.00  0.00    +0.000 A 
ATOM     18  N   UNL     1      50.918   1.415  17.071  0.00  0.00    +0.000 NA
ATOM     19  C   UNL     1      49.781   2.140  16.983  0.00  0.00    +0.000 A 
ATOM     20  C   UNL     1      49.655   3.455  17.425  0.00  0.00    +0.000 A 
ATOM     21  C   UNL     1      50.788   4.057  17.996  0.00  0.00    +0.000 A 
BRANCH  16  22
ATOM     22  O   UNL     1      53.150   3.821  18.611  0.00  0.00    +0.000 OA
BRANCH  22  26
ATOM     23  C   UNL     1      55.775   7.111  17.370  0.00  0.00    +0.000 C 
ATOM     24  N   UNL     1      54.826   6.179  17.962  0.00  0.00    +0.000 NA
ATOM     25  C   UNL     1      55.471   4.875  18.242  0.00  0.00    +0.000 C 
ATOM     26  C   UNL     1      54.204   4.176  17.681  0.00  0.00    +0.000 C 
ATOM     27  C   UNL     1      53.998   5.519  16.927  0.00  0.00    +0.000 C 
ENDBRANCH  22  26
ENDBRANCH  16  22
ENDBRANCH  15  20
ENDBRANCH   1  15
TORSDOF 6
ENDMDL
MODEL 8
REMARK VINA RESULT:    -5.905      3.287      8.832
REMARK INTER + INTRA:          -8.407
REMARK INTER:                  -7.384
REMARK INTRA:                  -1.024
REMARK UNBOUND:                -0.431
REMARK  Name = 
REMARK  9 active torsions:
REMARK  status: ('A' for Active; 'I' for Inactive)
REMARK    1  A    between atoms: C_1  and  N_2
REMARK    2  A    between atoms: C_4  and  O_5
REMARK    3  A    between atoms: O_5  and  C_6
REMARK    4  A    between atoms: C_10  and  C_11
REMARK    5  A    between atoms: C_11  and  C_12
REMARK    6  A    between atoms: C_12  and  N_13
REMARK    7  A    between atoms: C_17  and  C_18
REMARK    8  A    between atoms: N_20  and  C_21
REMARK    9  A    between atoms: N_20  and  C_22
REMARK                            x       y       z     vdW  Elec       q    Type
REMARK                         _______ _______ _______ _____ _____    ______ ____
ROOT
ATOM      1  C   UNL     1      49.420   8.777  12.055  0.00  0.00    +0.000 C 
ENDROOT
BRANCH   1   2
ATOM      2  N   UNL     1      47.995   9.137  12.114  0.00  0.00    +0.000 N 
ATOM      3  C   UNL     1      47.145   8.016  12.231  0.00  0.00    +0.000 A 
ATOM      4  C   UNL     1      45.764   8.214  12.234  0.00  0.00    +0.000 A 
ATOM      5  C   UNL     1      44.893   7.115  12.334  0.00  0.00    +0.000 A 
ATOM      6  C   UNL     1      45.415   5.833  12.479  0.00  0.00    +0.000 A 
ATOM      7  C   UNL     1      46.803   5.733  12.456  0.00  0.00    +0.000 A 
ATOM      8  N   UNL     1      47.663   6.782  12.350  0.00  0.00    +0.000 NA
ATOM      9  H   UNL     1      47.704   9.669  11.299  0.00  0.00    +0.000 HD
BRANCH   6  10
ATOM     10  C   UNL     1      44.651   4.556  12.533  0.00  0.00    +0.000 C 
ATOM     11  O   UNL     1      44.492   4.085  13.663  0.00  0.00    +0.000 OA
ATOM     12  N   UNL     1      44.119   3.926  11.401  0.00  0.00    +0.000 N 
ATOM     13  C   UNL     1      44.127   4.395  10.024  0.00  0.00    +0.000 C 
ATOM     14  C   UNL     1      43.389   2.682  11.614  0.00  0.00    +0.000 C 
ENDBRANCH   6  10
ENDBRANCH   1   2
BRANCH   1  15
ATOM     15  C   UNL     1      50.246   9.685  12.981  0.00  0.00    +0.000 C 
BRANCH  15  20
ATOM     16  C   UNL     1      50.595   7.273  15.912  0.00  0.00    +0.000 A 
ATOM     17  C   UNL     1      50.564   8.197  16.948  0.00  0.00    +0.000 A 
ATOM     18  N   UNL     1      50.463   9.535  16.771  0.00  0.00    +0.000 NA
ATOM     19  C   UNL     1      50.371   9.969  15.495  0.00  0.00    +0.000 A 
ATOM     20  C   UNL     1      50.382   9.134  14.380  0.00  0.00    +0.000 A 
ATOM     21  C   UNL     1      50.495   7.752  14.609  0.00  0.00    +0.000 A 
BRANCH  16  22
ATOM     22  O   UNL     1      50.678   5.952  16.263  0.00  0.00    +0.000 OA
BRANCH  22  26
ATOM     23  C   UNL     1      47.565   3.008  17.211  0.00  0.00    +0.000 C 
ATOM     24  N   UNL     1      48.605   3.872  16.670  0.00  0.00    +0.000 NA
ATOM     25  C   UNL     1      49.765   3.941  17.588  0.00  0.00    +0.000 C 
ATOM     26  C   UNL     1      49.824   5.470  17.331  0.00  0.00    +0.000 C 
ATOM     27  C   UNL     1      48.325   5.298  16.955  0.00  0.00    +0.000 C 
ENDBRANCH  22  26
ENDBRANCH  16  22
ENDBRANCH  15  20
ENDBRANCH   1  15
TORSDOF 6
ENDMDL
MODEL 9
REMARK VINA RESULT:    -5.881      3.232      8.727
REMARK INTER + INTRA:          -8.375
REMARK INTER:                  -7.726
REMARK INTRA:                  -0.649
REMARK UNBOUND:                -0.431
REMARK  Name = 
REMARK  9 active torsions:
REMARK  status: ('A' for Active; 'I' for Inactive)
REMARK    1  A    between atoms: C_1  and  N_2
REMARK    2  A    between atoms: C_4  and  O_5
REMARK    3  A    between atoms: O_5  and  C_6
REMARK    4  A    between atoms: C_10  and  C_11
REMARK    5  A    between atoms: C_11  and  C_12
REMARK    6  A    between atoms: C_12  and  N_13
REMARK    7  A    between atoms: C_17  and  C_18
REMARK    8  A    between atoms: N_20  and  C_21
REMARK    9  A    between atoms: N_20  and  C_22
REMARK                            x       y       z     vdW  Elec       q    Type
REMARK                         _______ _______ _______ _____ _____    ______ ____
ROOT
ATOM      1  C   UNL     1      49.694   8.447  14.354  0.00  0.00    +0.000 C 
ENDROOT
BRANCH   1   2
ATOM      2  N   UNL     1      48.983   8.504  13.067  0.00  0.00    +0.000 N 
ATOM      3  C   UNL     1      48.075   7.439  12.888  0.00  0.00    +0.000 A 
ATOM      4  C   UNL     1      47.381   7.339  11.682  0.00  0.00    +0.000 A 
ATOM      5  C   UNL     1      46.480   6.281  11.470  0.00  0.00    +0.000 A 
ATOM      6  C   UNL     1      46.248   5.360  12.487  0.00  0.00    +0.000 A 
ATOM      7  C   UNL     1      46.992   5.534  13.651  0.00  0.00    +0.000 A 
ATOM      8  N   UNL     1      47.875   6.546  13.872  0.00  0.00    +0.000 NA
ATOM      9  H   UNL     1      49.625   8.506  12.279  0.00  0.00    +0.000 HD
BRANCH   6  10
ATOM     10  C   UNL     1      45.386   4.148  12.418  0.00  0.00    +0.000 C 
ATOM     11  O   UNL     1      45.868   3.130  12.922  0.00  0.00    +0.000 OA
ATOM     12  N   UNL     1      44.106   4.142  11.850  0.00  0.00    +0.000 N 
ATOM     13  C   UNL     1      43.355   5.266  11.312  0.00  0.00    +0.000 C 
ATOM     14  C   UNL     1      43.378   2.878  11.862  0.00  0.00    +0.000 C 
ENDBRANCH   6  10
ENDBRANCH   1   2
BRANCH   1  15
ATOM     15  C   UNL     1      49.142   9.503  15.324  0.00  0.00    +0.000 C 
BRANCH  15  20
ATOM     16  C   UNL     1      48.678   7.121  18.263  0.00  0.00    +0.000 A 
ATOM     17  C   UNL     1      47.813   7.895  19.025  0.00  0.00    +0.000 A 
ATOM     18  N   UNL     1      47.389   9.131  18.674  0.00  0.00    +0.000 NA
ATOM     19  C   UNL     1      47.839   9.610  17.493  0.00  0.00    +0.000 A 
ATOM     20  C   UNL     1      48.701   8.920  16.645  0.00  0.00    +0.000 A 
ATOM     21  C   UNL     1      49.121   7.642  17.050  0.00  0.00    +0.000 A 
BRANCH  16  22
ATOM     22  O   UNL     1      48.991   5.880  18.751  0.00  0.00    +0.000 OA
BRANCH  22  26
ATOM     23  C   UNL     1      48.702   2.189  16.396  0.00  0.00    +0.000 C 
ATOM     24  N   UNL     1      49.036   3.423  17.093  0.00  0.00    +0.000 NA
ATOM     25  C   UNL     1      48.679   3.334  18.527  0.00  0.00    +0.000 C 
ATOM     26  C   UNL     1      48.110   4.774  18.432  0.00  0.00    +0.000 C 
ATOM     27  C   UNL     1      47.980   4.446  16.918  0.00  0.00    +0.000 C 
ENDBRANCH  22  26
ENDBRANCH  16  22
ENDBRANCH  15  20
ENDBRANCH   1  15
TORSDOF 6
ENDMDL
