MODEL 1
REMARK VINA RESULT:    -8.362      0.000      0.000
REMARK INTER + INTRA:         -11.625
REMARK INTER:                 -10.806
REMARK INTRA:                  -0.819
REMARK UNBOUND:                -0.819
REMARK  Name = 
REMARK  6 active torsions:
REMARK  status: ('A' for Active; 'I' for Inactive)
REMARK    1  A    between atoms: C_1  and  C_2
REMARK    2  A    between atoms: C_2  and  C_3
REMARK    3  A    between atoms: C_7  and  C_8
REMARK    4  A    between atoms: C_8  and  C_9
REMARK    5  A    between atoms: C_9  and  N_10
REMARK    6  A    between atoms: C_14  and  C_15
REMARK                            x       y       z     vdW  Elec       q    Type
REMARK                         _______ _______ _______ _____ _____    ______ ____
ROOT
ATOM      1  C   UNL     1      43.307   5.202  12.299  0.00  0.00    +0.000 C 
ENDROOT
BRANCH   1   6
ATOM      2  C   UNL     1      46.752   6.790  12.853  0.00  0.00    +0.000 A 
ATOM      3  C   UNL     1      47.430   5.701  13.433  0.00  0.00    +0.000 A 
ATOM      4  C   UNL     1      46.799   4.469  13.625  0.00  0.00    +0.000 A 
ATOM      5  C   UNL     1      45.474   4.291  13.240  0.00  0.00    +0.000 A 
ATOM      6  C   UNL     1      44.775   5.342  12.640  0.00  0.00    +0.000 A 
ATOM      7  C   UNL     1      45.423   6.575  12.445  0.00  0.00    +0.000 A 
BRANCH   2   9
ATOM      8  C   UNL     1      47.887   8.523  14.221  0.00  0.00    +0.000 C 
ATOM      9  C   UNL     1      47.430   8.178  12.780  0.00  0.00    +0.000 C 
ATOM     10  C   UNL     1      48.647   8.146  11.818  0.00  0.00    +0.000 C 
ATOM     11  C   UNL     1      49.253   9.530  11.595  0.00  0.00    +0.000 C 
ATOM     12  O   UNL     1      48.276  10.451  11.119  0.00  0.00    +0.000 OA
ATOM     13  C   UNL     1      47.198  10.623  12.033  0.00  0.00    +0.000 C 
ATOM     14  C   UNL     1      46.481   9.300  12.273  0.00  0.00    +0.000 C 
ENDBRANCH   2   9
ENDBRANCH   1   6
BRANCH   1  15
ATOM     15  C   UNL     1      43.134   4.435  10.983  0.00  0.00    +0.000 C 
BRANCH  15  16
ATOM     16  N   UNL     1      43.999   4.977   9.925  0.00  0.00    +0.000 N 
ATOM     17  C   UNL     1      44.765   3.978   9.288  0.00  0.00    +0.000 A 
ATOM     18  C   UNL     1      45.651   4.317   8.253  0.00  0.00    +0.000 A 
ATOM     19  N   UNL     1      46.424   3.420   7.579  0.00  0.00    +0.000 NA
ATOM     20  C   UNL     1      46.260   2.128   7.981  0.00  0.00    +0.000 A 
ATOM     21  C   UNL     1      45.384   1.773   8.990  0.00  0.00    +0.000 A 
ATOM     22  N   UNL     1      44.626   2.683   9.649  0.00  0.00    +0.000 NA
ATOM     23  H   UNL     1      44.622   5.700  10.275  0.00  0.00    +0.000 HD
BRANCH  20  24
ATOM     24  C   UNL     1      47.061   1.071   7.312  0.00  0.00    +0.000 C 
ATOM     25  N   UNL     1      46.779  -0.220   7.668  0.00  0.00    +0.000 N 
ATOM     26  O   UNL     1      47.932   1.331   6.489  0.00  0.00    +0.000 OA
ATOM     27  H   UNL     1      46.056  -0.410   8.353  0.00  0.00    +0.000 HD
ATOM     28  H   UNL     1      47.295  -0.978   7.245  0.00  0.00    +0.000 HD
ENDBRANCH  20  24
ENDBRANCH  15  16
ENDBRANCH   1  15
TORSDOF 5
ENDMDL
MODEL 2
REMARK VINA RESULT:    -7.487      1.815      2.813
REMARK INTER + INTRA:         -10.495
REMARK INTER:                  -9.664
REMARK INTRA:                  -0.831
REMARK UNBOUND:                -0.819
REMARK  Name = 
REMARK  6 active torsions:
REMARK  status: ('A' for Active; 'I' for Inactive)
REMARK    1  A    between atoms: C_1  and  C_2
REMARK    2  A    between atoms: C_2  and  C_3
REMARK    3  A    between atoms: C_7  and  C_8
REMARK    4  A    between atoms: C_8  and  C_9
REMARK    5  A    between atoms: C_9  and  N_10
REMARK    6  A    between atoms: C_14  and  C_15
REMARK                            x       y       z     vdW  Elec       q    Type
REMARK                         _______ _______ _______ _____ _____    ______ ____
ROOT
ATOM      1  C   UNL     1      44.066   4.280  12.466  0.00  0.00    +0.000 C 
ENDROOT
BRANCH   1   6
ATOM      2  C   UNL     1      46.493   7.218  12.892  0.00  0.00    +0.000 A 
ATOM      3  C   UNL     1      45.866   8.171  12.069  0.00  0.00    +0.000 A 
ATOM      4  C   UNL     1      44.672   7.885  11.402  0.00  0.00    +0.000 A 
ATOM      5  C   UNL     1      44.071   6.638  11.544  0.00  0.00    +0.000 A 
ATOM      6  C   UNL     1      44.651   5.673  12.371  0.00  0.00    +0.000 A 
ATOM      7  C   UNL     1      45.849   5.975  13.042  0.00  0.00    +0.000 A 
BRANCH   2   9
ATOM      8  C   UNL     1      48.908   7.403  12.347  0.00  0.00    +0.000 C 
ATOM      9  C   UNL     1      47.883   7.512  13.505  0.00  0.00    +0.000 C 
ATOM     10  C   UNL     1      47.918   8.933  14.128  0.00  0.00    +0.000 C 
ATOM     11  C   UNL     1      49.218   9.209  14.881  0.00  0.00    +0.000 C 
ATOM     12  O   UNL     1      49.452   8.227  15.885  0.00  0.00    +0.000 OA
ATOM     13  C   UNL     1      49.567   6.914  15.347  0.00  0.00    +0.000 C 
ATOM     14  C   UNL     1      48.284   6.515  14.627  0.00  0.00    +0.000 C 
ENDBRANCH   2   9
ENDBRANCH   1   6
BRANCH   1  15
ATOM     15  C   UNL     1      43.430   3.874  11.131  0.00  0.00    +0.000 C 
BRANCH  15  16
ATOM     16  N   UNL     1      43.908   2.557  10.685  0.00  0.00    +0.000 N 
ATOM     17  C   UNL     1      44.749   2.642   9.555  0.00  0.00    +0.000 A 
ATOM     18  C   UNL     1      45.295   1.479   8.991  0.00  0.00    +0.000 A 
ATOM     19  N   UNL     1      46.120   1.465   7.906  0.00  0.00    +0.000 NA
ATOM     20  C   UNL     1      46.399   2.701   7.403  0.00  0.00    +0.000 A 
ATOM     21  C   UNL     1      45.881   3.858   7.952  0.00  0.00    +0.000 A 
ATOM     22  N   UNL     1      45.060   3.847   9.029  0.00  0.00    +0.000 NA
ATOM     23  H   UNL     1      43.141   1.922  10.481  0.00  0.00    +0.000 HD
BRANCH  20  24
ATOM     24  C   UNL     1      47.287   2.796   6.215  0.00  0.00    +0.000 C 
ATOM     25  N   UNL     1      48.622   2.588   6.438  0.00  0.00    +0.000 N 
ATOM     26  O   UNL     1      46.859   3.052   5.095  0.00  0.00    +0.000 OA
ATOM     27  H   UNL     1      48.953   2.382   7.374  0.00  0.00    +0.000 HD
ATOM     28  H   UNL     1      49.271   2.644   5.667  0.00  0.00    +0.000 HD
ENDBRANCH  20  24
ENDBRANCH  15  16
ENDBRANCH   1  15
TORSDOF 5
ENDMDL
MODEL 3
REMARK VINA RESULT:    -7.284      3.750      7.212
REMARK INTER + INTRA:         -10.232
REMARK INTER:                  -9.446
REMARK INTRA:                  -0.786
REMARK UNBOUND:                -0.819
REMARK  Name = 
REMARK  6 active torsions:
REMARK  status: ('A' for Active; 'I' for Inactive)
REMARK    1  A    between atoms: C_1  and  C_2
REMARK    2  A    between atoms: C_2  and  C_3
REMARK    3  A    between atoms: C_7  and  C_8
REMARK    4  A    between atoms: C_8  and  C_9
REMARK    5  A    between atoms: C_9  and  N_10
REMARK    6  A    between atoms: C_14  and  C_15
REMARK                            x       y       z     vdW  Elec       q    Type
REMARK                         _______ _______ _______ _____ _____    ______ ____
ROOT
ATOM      1  C   UNL     1      46.240   7.558  11.737  0.00  0.00    +0.000 C 
ENDROOT
BRANCH   1   6
ATOM      2  C   UNL     1      44.909   4.558   9.756  0.00  0.00    +0.000 A 
ATOM      3  C   UNL     1      43.775   4.242  10.528  0.00  0.00    +0.000 A 
ATOM      4  C   UNL     1      43.431   4.991  11.656  0.00  0.00    +0.000 A 
ATOM      5  C   UNL     1      44.208   6.079  12.040  0.00  0.00    +0.000 A 
ATOM      6  C   UNL     1      45.328   6.438  11.285  0.00  0.00    +0.000 A 
ATOM      7  C   UNL     1      45.661   5.681  10.148  0.00  0.00    +0.000 A 
BRANCH   2   9
ATOM      8  C   UNL     1      44.152   3.570   7.608  0.00  0.00    +0.000 C 
ATOM      9  C   UNL     1      45.344   3.630   8.596  0.00  0.00    +0.000 C 
ATOM     10  C   UNL     1      46.607   4.190   7.890  0.00  0.00    +0.000 C 
ATOM     11  C   UNL     1      47.164   3.230   6.841  0.00  0.00    +0.000 C 
ATOM     12  O   UNL     1      47.443   1.953   7.406  0.00  0.00    +0.000 OA
ATOM     13  C   UNL     1      46.283   1.331   7.948  0.00  0.00    +0.000 C 
ATOM     14  C   UNL     1      45.686   2.186   9.059  0.00  0.00    +0.000 C 
ENDBRANCH   2   9
ENDBRANCH   1   6
BRANCH   1  15
ATOM     15  C   UNL     1      47.677   7.048  11.896  0.00  0.00    +0.000 C 
BRANCH  15  16
ATOM     16  N   UNL     1      48.225   7.385  13.218  0.00  0.00    +0.000 N 
ATOM     17  C   UNL     1      48.035   6.352  14.161  0.00  0.00    +0.000 A 
ATOM     18  C   UNL     1      48.495   6.503  15.479  0.00  0.00    +0.000 A 
ATOM     19  N   UNL     1      48.361   5.559  16.452  0.00  0.00    +0.000 NA
ATOM     20  C   UNL     1      47.746   4.415  16.039  0.00  0.00    +0.000 A 
ATOM     21  C   UNL     1      47.298   4.243  14.743  0.00  0.00    +0.000 A 
ATOM     22  N   UNL     1      47.439   5.197  13.792  0.00  0.00    +0.000 NA
ATOM     23  H   UNL     1      47.831   8.246  13.587  0.00  0.00    +0.000 HD
BRANCH  20  24
ATOM     24  C   UNL     1      47.547   3.323  17.027  0.00  0.00    +0.000 C 
ATOM     25  N   UNL     1      48.675   2.665  17.438  0.00  0.00    +0.000 N 
ATOM     26  O   UNL     1      46.438   3.018  17.452  0.00  0.00    +0.000 OA
ATOM     27  H   UNL     1      49.581   2.933  17.069  0.00  0.00    +0.000 HD
ATOM     28  H   UNL     1      48.597   1.912  18.106  0.00  0.00    +0.000 HD
ENDBRANCH  20  24
ENDBRANCH  15  16
ENDBRANCH   1  15
TORSDOF 5
ENDMDL
MODEL 4
REMARK VINA RESULT:    -7.162      4.576      7.482
REMARK INTER + INTRA:         -10.074
REMARK INTER:                  -8.985
REMARK INTRA:                  -1.089
REMARK UNBOUND:                -0.819
REMARK  Name = 
REMARK  6 active torsions:
REMARK  status: ('A' for Active; 'I' for Inactive)
REMARK    1  A    between atoms: C_1  and  C_2
REMARK    2  A    between atoms: C_2  and  C_3
REMARK    3  A    between atoms: C_7  and  C_8
REMARK    4  A    between atoms: C_8  and  C_9
REMARK    5  A    between atoms: C_9  and  N_10
REMARK    6  A    between atoms: C_14  and  C_15
REMARK                            x       y       z     vdW  Elec       q    Type
REMARK                         _______ _______ _______ _____ _____    ______ ____
ROOT
ATOM      1  C   UNL     1      48.468   9.049  12.926  0.00  0.00    +0.000 C 
ENDROOT
BRANCH   1   6
ATOM      2  C   UNL     1      45.464   7.060  11.614  0.00  0.00    +0.000 A 
ATOM      3  C   UNL     1      44.543   8.107  11.426  0.00  0.00    +0.000 A 
ATOM      4  C   UNL     1      44.885   9.435  11.697  0.00  0.00    +0.000 A 
ATOM      5  C   UNL     1      46.159   9.751  12.159  0.00  0.00    +0.000 A 
ATOM      6  C   UNL     1      47.108   8.741  12.335  0.00  0.00    +0.000 A 
ATOM      7  C   UNL     1      46.754   7.410  12.053  0.00  0.00    +0.000 A 
BRANCH   2   9
ATOM      8  C   UNL     1      45.413   5.174  10.000  0.00  0.00    +0.000 C 
ATOM      9  C   UNL     1      45.016   5.589  11.440  0.00  0.00    +0.000 C 
ATOM     10  C   UNL     1      45.714   4.675  12.481  0.00  0.00    +0.000 C 
ATOM     11  C   UNL     1      45.187   3.242  12.448  0.00  0.00    +0.000 C 
ATOM     12  O   UNL     1      43.775   3.207  12.635  0.00  0.00    +0.000 OA
ATOM     13  C   UNL     1      43.074   3.920  11.621  0.00  0.00    +0.000 C 
ATOM     14  C   UNL     1      43.484   5.388  11.615  0.00  0.00    +0.000 C 
ENDBRANCH   2   9
ENDBRANCH   1   6
BRANCH   1  15
ATOM     15  C   UNL     1      49.196   7.753  13.299  0.00  0.00    +0.000 C 
BRANCH  15  16
ATOM     16  N   UNL     1      49.639   7.768  14.701  0.00  0.00    +0.000 N 
ATOM     17  C   UNL     1      49.091   6.707  15.453  0.00  0.00    +0.000 A 
ATOM     18  C   UNL     1      49.404   6.567  16.813  0.00  0.00    +0.000 A 
ATOM     19  N   UNL     1      48.928   5.573  17.614  0.00  0.00    +0.000 NA
ATOM     20  C   UNL     1      48.114   4.685  16.976  0.00  0.00    +0.000 A 
ATOM     21  C   UNL     1      47.803   4.799  15.634  0.00  0.00    +0.000 A 
ATOM     22  N   UNL     1      48.287   5.798  14.858  0.00  0.00    +0.000 NA
ATOM     23  H   UNL     1      49.419   8.648  15.161  0.00  0.00    +0.000 HD
BRANCH  20  24
ATOM     24  C   UNL     1      47.537   3.564  17.761  0.00  0.00    +0.000 C 
ATOM     25  N   UNL     1      48.192   3.233  18.917  0.00  0.00    +0.000 N 
ATOM     26  O   UNL     1      46.534   2.958  17.400  0.00  0.00    +0.000 OA
ATOM     27  H   UNL     1      49.022   3.746  19.193  0.00  0.00    +0.000 HD
ATOM     28  H   UNL     1      47.844   2.477  19.488  0.00  0.00    +0.000 HD
ENDBRANCH  20  24
ENDBRANCH  15  16
ENDBRANCH   1  15
TORSDOF 5
ENDMDL
MODEL 5
REMARK VINA RESULT:    -7.137      1.423      2.413
REMARK INTER + INTRA:         -10.042
REMARK INTER:                  -9.278
REMARK INTRA:                  -0.764
REMARK UNBOUND:                -0.819
REMARK  Name = 
REMARK  6 active torsions:
REMARK  status: ('A' for Active; 'I' for Inactive)
REMARK    1  A    between atoms: C_1  and  C_2
REMARK    2  A    between atoms: C_2  and  C_3
REMARK    3  A    between atoms: C_7  and  C_8
REMARK    4  A    between atoms: C_8  and  C_9
REMARK    5  A    between atoms: C_9  and  N_10
REMARK    6  A    between atoms: C_14  and  C_15
REMARK                            x       y       z     vdW  Elec       q    Type
REMARK                         _______ _______ _______ _____ _____    ______ ____
ROOT
ATOM      1  C   UNL     1      44.269   5.275  12.129  0.00  0.00    +0.000 C 
ENDROOT
BRANCH   1   6
ATOM      2  C   UNL     1      46.597   8.321  12.145  0.00  0.00    +0.000 A 
ATOM      3  C   UNL     1      45.723   9.296  11.631  0.00  0.00    +0.000 A 
ATOM      4  C   UNL     1      44.401   8.989  11.302  0.00  0.00    +0.000 A 
ATOM      5  C   UNL     1      43.915   7.697  11.482  0.00  0.00    +0.000 A 
ATOM      6  C   UNL     1      44.746   6.707  12.012  0.00  0.00    +0.000 A 
ATOM      7  C   UNL     1      46.073   7.030  12.346  0.00  0.00    +0.000 A 
BRANCH   2   9
ATOM      8  C   UNL     1      48.340   8.563  13.896  0.00  0.00    +0.000 C 
ATOM      9  C   UNL     1      48.092   8.655  12.369  0.00  0.00    +0.000 C 
ATOM     10  C   UNL     1      48.999   7.650  11.611  0.00  0.00    +0.000 C 
ATOM     11  C   UNL     1      50.476   8.032  11.675  0.00  0.00    +0.000 C 
ATOM     12  O   UNL     1      50.690   9.352  11.186  0.00  0.00    +0.000 OA
ATOM     13  C   UNL     1      49.985  10.333  11.939  0.00  0.00    +0.000 C 
ATOM     14  C   UNL     1      48.483  10.077  11.881  0.00  0.00    +0.000 C 
ENDBRANCH   2   9
ENDBRANCH   1   6
BRANCH   1  15
ATOM     15  C   UNL     1      43.574   4.835  10.835  0.00  0.00    +0.000 C 
BRANCH  15  16
ATOM     16  N   UNL     1      43.788   3.405  10.568  0.00  0.00    +0.000 N 
ATOM     17  C   UNL     1      44.703   3.182   9.517  0.00  0.00    +0.000 A 
ATOM     18  C   UNL     1      45.025   1.874   9.123  0.00  0.00    +0.000 A 
ATOM     19  N   UNL     1      45.900   1.565   8.126  0.00  0.00    +0.000 NA
ATOM     20  C   UNL     1      46.472   2.649   7.530  0.00  0.00    +0.000 A 
ATOM     21  C   UNL     1      46.177   3.944   7.911  0.00  0.00    +0.000 A 
ATOM     22  N   UNL     1      45.301   4.228   8.904  0.00  0.00    +0.000 NA
ATOM     23  H   UNL     1      42.919   2.922  10.358  0.00  0.00    +0.000 HD
BRANCH  20  24
ATOM     24  C   UNL     1      47.439   2.421   6.425  0.00  0.00    +0.000 C 
ATOM     25  N   UNL     1      47.302   3.222   5.324  0.00  0.00    +0.000 N 
ATOM     26  O   UNL     1      48.313   1.562   6.485  0.00  0.00    +0.000 OA
ATOM     27  H   UNL     1      46.569   3.924   5.295  0.00  0.00    +0.000 HD
ATOM     28  H   UNL     1      47.931   3.108   4.542  0.00  0.00    +0.000 HD
ENDBRANCH  20  24
ENDBRANCH  15  16
ENDBRANCH   1  15
TORSDOF 5
ENDMDL
MODEL 6
REMARK VINA RESULT:    -6.495      4.347      6.638
REMARK INTER + INTRA:          -9.213
REMARK INTER:                  -8.216
REMARK INTRA:                  -0.996
REMARK UNBOUND:                -0.819
REMARK  Name = 
REMARK  6 active torsions:
REMARK  status: ('A' for Active; 'I' for Inactive)
REMARK    1  A    between atoms: C_1  and  C_2
REMARK    2  A    between atoms: C_2  and  C_3
REMARK    3  A    between atoms: C_7  and  C_8
REMARK    4  A    between atoms: C_8  and  C_9
REMARK    5  A    between atoms: C_9  and  N_10
REMARK    6  A    between atoms: C_14  and  C_15
REMARK                            x       y       z     vdW  Elec       q    Type
REMARK                         _______ _______ _______ _____ _____    ______ ____
ROOT
ATOM      1  C   UNL     1      49.319   8.510  14.587  0.00  0.00    +0.000 C 
ENDROOT
BRANCH   1   6
ATOM      2  C   UNL     1      48.883   5.868  17.331  0.00  0.00    +0.000 A 
ATOM      3  C   UNL     1      48.516   6.696  18.408  0.00  0.00    +0.000 A 
ATOM      4  C   UNL     1      48.391   8.079  18.254  0.00  0.00    +0.000 A 
ATOM      5  C   UNL     1      48.625   8.672  17.017  0.00  0.00    +0.000 A 
ATOM      6  C   UNL     1      48.968   7.879  15.917  0.00  0.00    +0.000 A 
ATOM      7  C   UNL     1      49.084   6.488  16.083  0.00  0.00    +0.000 A 
BRANCH   2   9
ATOM      8  C   UNL     1      48.673   4.046  19.004  0.00  0.00    +0.000 C 
ATOM      9  C   UNL     1      49.149   4.362  17.562  0.00  0.00    +0.000 C 
ATOM     10  C   UNL     1      48.370   3.501  16.533  0.00  0.00    +0.000 C 
ATOM     11  C   UNL     1      48.722   2.019  16.624  0.00  0.00    +0.000 C 
ATOM     12  O   UNL     1      50.124   1.811  16.476  0.00  0.00    +0.000 OA
ATOM     13  C   UNL     1      50.882   2.470  17.485  0.00  0.00    +0.000 C 
ATOM     14  C   UNL     1      50.649   3.976  17.434  0.00  0.00    +0.000 C 
ENDBRANCH   2   9
ENDBRANCH   1   6
BRANCH   1  15
ATOM     15  C   UNL     1      49.403   7.440  13.492  0.00  0.00    +0.000 C 
BRANCH  15  16
ATOM     16  N   UNL     1      48.363   7.630  12.471  0.00  0.00    +0.000 N 
ATOM     17  C   UNL     1      47.441   6.562  12.435  0.00  0.00    +0.000 A 
ATOM     18  C   UNL     1      46.379   6.574  11.517  0.00  0.00    +0.000 A 
ATOM     19  N   UNL     1      45.440   5.593  11.414  0.00  0.00    +0.000 NA
ATOM     20  C   UNL     1      45.599   4.574  12.305  0.00  0.00    +0.000 A 
ATOM     21  C   UNL     1      46.630   4.550  13.225  0.00  0.00    +0.000 A 
ATOM     22  N   UNL     1      47.555   5.537  13.307  0.00  0.00    +0.000 NA
ATOM     23  H   UNL     1      48.757   7.759  11.543  0.00  0.00    +0.000 HD
BRANCH  20  24
ATOM     24  C   UNL     1      44.629   3.449  12.274  0.00  0.00    +0.000 C 
ATOM     25  N   UNL     1      44.699   2.619  11.188  0.00  0.00    +0.000 N 
ATOM     26  O   UNL     1      43.805   3.268  13.164  0.00  0.00    +0.000 OA
ATOM     27  H   UNL     1      45.386   2.790  10.462  0.00  0.00    +0.000 HD
ATOM     28  H   UNL     1      44.061   1.839  11.114  0.00  0.00    +0.000 HD
ENDBRANCH  20  24
ENDBRANCH  15  16
ENDBRANCH   1  15
TORSDOF 5
ENDMDL
MODEL 7
REMARK VINA RESULT:    -6.483      2.802      4.148
REMARK INTER + INTRA:          -9.197
REMARK INTER:                  -9.187
REMARK INTRA:                  -0.010
REMARK UNBOUND:                -0.819
REMARK  Name = 
REMARK  6 active torsions:
REMARK  status: ('A' for Active; 'I' for Inactive)
REMARK    1  A    between atoms: C_1  and  C_2
REMARK    2  A    between atoms: C_2  and  C_3
REMARK    3  A    between atoms: C_7  and  C_8
REMARK    4  A    between atoms: C_8  and  C_9
REMARK    5  A    between atoms: C_9  and  N_10
REMARK    6  A    between atoms: C_14  and  C_15
REMARK                            x       y       z     vdW  Elec       q    Type
REMARK                         _______ _______ _______ _____ _____    ______ ____
ROOT
ATOM      1  C   UNL     1      43.704   4.319  12.903  0.00  0.00    +0.000 C 
ENDROOT
BRANCH   1   6
ATOM      2  C   UNL     1      46.994   4.862  14.795  0.00  0.00    +0.000 A 
ATOM      3  C   UNL     1      47.635   5.754  13.915  0.00  0.00    +0.000 A 
ATOM      4  C   UNL     1      47.015   6.191  12.741  0.00  0.00    +0.000 A 
ATOM      5  C   UNL     1      45.735   5.751  12.419  0.00  0.00    +0.000 A 
ATOM      6  C   UNL     1      45.057   4.884  13.280  0.00  0.00    +0.000 A 
ATOM      7  C   UNL     1      45.689   4.456  14.461  0.00  0.00    +0.000 A 
BRANCH   2   9
ATOM      8  C   UNL     1      46.752   4.268  17.193  0.00  0.00    +0.000 C 
ATOM      9  C   UNL     1      47.757   4.288  16.013  0.00  0.00    +0.000 C 
ATOM     10  C   UNL     1      48.270   2.855  15.713  0.00  0.00    +0.000 C 
ATOM     11  C   UNL     1      49.160   2.308  16.827  0.00  0.00    +0.000 C 
ATOM     12  O   UNL     1      50.258   3.178  17.085  0.00  0.00    +0.000 OA
ATOM     13  C   UNL     1      49.840   4.474  17.501  0.00  0.00    +0.000 C 
ATOM     14  C   UNL     1      48.993   5.137  16.420  0.00  0.00    +0.000 C 
ENDBRANCH   2   9
ENDBRANCH   1   6
BRANCH   1  15
ATOM     15  C   UNL     1      43.782   3.595  11.554  0.00  0.00    +0.000 C 
BRANCH  15  16
ATOM     16  N   UNL     1      44.232   4.497  10.484  0.00  0.00    +0.000 N 
ATOM     17  C   UNL     1      44.990   3.830   9.498  0.00  0.00    +0.000 A 
ATOM     18  C   UNL     1      45.504   4.538   8.401  0.00  0.00    +0.000 A 
ATOM     19  N   UNL     1      46.240   3.977   7.400  0.00  0.00    +0.000 NA
ATOM     20  C   UNL     1      46.432   2.635   7.535  0.00  0.00    +0.000 A 
ATOM     21  C   UNL     1      45.924   1.918   8.602  0.00  0.00    +0.000 A 
ATOM     22  N   UNL     1      45.197   2.498   9.587  0.00  0.00    +0.000 NA
ATOM     23  H   UNL     1      44.773   5.279  10.845  0.00  0.00    +0.000 HD
BRANCH  20  24
ATOM     24  C   UNL     1      47.226   1.926   6.498  0.00  0.00    +0.000 C 
ATOM     25  N   UNL     1      47.906   2.716   5.611  0.00  0.00    +0.000 N 
ATOM     26  O   UNL     1      47.272   0.703   6.430  0.00  0.00    +0.000 OA
ATOM     27  H   UNL     1      47.850   3.726   5.685  0.00  0.00    +0.000 HD
ATOM     28  H   UNL     1      48.460   2.287   4.884  0.00  0.00    +0.000 HD
ENDBRANCH  20  24
ENDBRANCH  15  16
ENDBRANCH   1  15
TORSDOF 5
ENDMDL
MODEL 8
REMARK VINA RESULT:    -6.465      5.782      7.408
REMARK INTER + INTRA:          -9.173
REMARK INTER:                  -8.486
REMARK INTRA:                  -0.687
REMARK UNBOUND:                -0.819
REMARK  Name = 
REMARK  6 active torsions:
REMARK  status: ('A' for Active; 'I' for Inactive)
REMARK    1  A    between atoms: C_1  and  C_2
REMARK    2  A    between atoms: C_2  and  C_3
REMARK    3  A    between atoms: C_7  and  C_8
REMARK    4  A    between atoms: C_8  and  C_9
REMARK    5  A    between atoms: C_9  and  N_10
REMARK    6  A    between atoms: C_14  and  C_15
REMARK                            x       y       z     vdW  Elec       q    Type
REMARK                         _______ _______ _______ _____ _____    ______ ____
ROOT
ATOM      1  C   UNL     1      47.146   4.505  17.252  0.00  0.00    +0.000 C 
ENDROOT
BRANCH   1   6
ATOM      2  C   UNL     1      50.756   4.826  18.501  0.00  0.00    +0.000 A 
ATOM      3  C   UNL     1      50.705   6.117  19.059  0.00  0.00    +0.000 A 
ATOM      4  C   UNL     1      49.526   6.867  19.053  0.00  0.00    +0.000 A 
ATOM      5  C   UNL     1      48.365   6.344  18.493  0.00  0.00    +0.000 A 
ATOM      6  C   UNL     1      48.370   5.056  17.950  0.00  0.00    +0.000 A 
ATOM      7  C   UNL     1      49.561   4.309  17.968  0.00  0.00    +0.000 A 
BRANCH   2   9
ATOM      8  C   UNL     1      53.007   4.918  17.459  0.00  0.00    +0.000 C 
ATOM      9  C   UNL     1      52.105   4.076  18.397  0.00  0.00    +0.000 C 
ATOM     10  C   UNL     1      52.763   3.931  19.795  0.00  0.00    +0.000 C 
ATOM     11  C   UNL     1      54.019   3.063  19.763  0.00  0.00    +0.000 C 
ATOM     12  O   UNL     1      53.745   1.777  19.215  0.00  0.00    +0.000 OA
ATOM     13  C   UNL     1      53.267   1.847  17.875  0.00  0.00    +0.000 C 
ATOM     14  C   UNL     1      51.969   2.643  17.810  0.00  0.00    +0.000 C 
ENDBRANCH   2   9
ENDBRANCH   1   6
BRANCH   1  15
ATOM     15  C   UNL     1      47.465   4.180  15.788  0.00  0.00    +0.000 C 
BRANCH  15  16
ATOM     16  N   UNL     1      47.131   5.305  14.901  0.00  0.00    +0.000 N 
ATOM     17  C   UNL     1      46.420   4.896  13.754  0.00  0.00    +0.000 A 
ATOM     18  C   UNL     1      46.021   5.839  12.794  0.00  0.00    +0.000 A 
ATOM     19  N   UNL     1      45.327   5.537  11.661  0.00  0.00    +0.000 NA
ATOM     20  C   UNL     1      45.022   4.215  11.530  0.00  0.00    +0.000 A 
ATOM     21  C   UNL     1      45.395   3.273  12.469  0.00  0.00    +0.000 A 
ATOM     22  N   UNL     1      46.088   3.596  13.588  0.00  0.00    +0.000 NA
ATOM     23  H   UNL     1      47.958   5.821  14.612  0.00  0.00    +0.000 HD
BRANCH  20  24
ATOM     24  C   UNL     1      44.269   3.779  10.325  0.00  0.00    +0.000 C 
ATOM     25  N   UNL     1      44.095   4.720   9.346  0.00  0.00    +0.000 N 
ATOM     26  O   UNL     1      43.822   2.644  10.207  0.00  0.00    +0.000 OA
ATOM     27  H   UNL     1      44.471   5.654   9.468  0.00  0.00    +0.000 HD
ATOM     28  H   UNL     1      43.588   4.478   8.507  0.00  0.00    +0.000 HD
ENDBRANCH  20  24
ENDBRANCH  15  16
ENDBRANCH   1  15
TORSDOF 5
ENDMDL
MODEL 9
REMARK VINA RESULT:    -6.214      3.833      6.060
REMARK INTER + INTRA:          -8.850
REMARK INTER:                  -7.791
REMARK INTRA:                  -1.059
REMARK UNBOUND:                -0.819
REMARK  Name = 
REMARK  6 active torsions:
REMARK  status: ('A' for Active; 'I' for Inactive)
REMARK    1  A    between atoms: C_1  and  C_2
REMARK    2  A    between atoms: C_2  and  C_3
REMARK    3  A    between atoms: C_7  and  C_8
REMARK    4  A    between atoms: C_8  and  C_9
REMARK    5  A    between atoms: C_9  and  N_10
REMARK    6  A    between atoms: C_14  and  C_15
REMARK                            x       y       z     vdW  Elec       q    Type
REMARK                         _______ _______ _______ _____ _____    ______ ____
ROOT
ATOM      1  C   UNL     1      48.370   9.073  13.322  0.00  0.00    +0.000 C 
ENDROOT
BRANCH   1   6
ATOM      2  C   UNL     1      49.434   6.631  16.079  0.00  0.00    +0.000 A 
ATOM      3  C   UNL     1      50.828   6.820  16.045  0.00  0.00    +0.000 A 
ATOM      4  C   UNL     1      51.418   7.731  15.166  0.00  0.00    +0.000 A 
ATOM      5  C   UNL     1      50.630   8.481  14.299  0.00  0.00    +0.000 A 
ATOM      6  C   UNL     1      49.240   8.338  14.319  0.00  0.00    +0.000 A 
ATOM      7  C   UNL     1      48.657   7.423  15.214  0.00  0.00    +0.000 A 
BRANCH   2   9
ATOM      8  C   UNL     1      48.243   6.220  18.218  0.00  0.00    +0.000 C 
ATOM      9  C   UNL     1      48.821   5.518  16.962  0.00  0.00    +0.000 C 
ATOM     10  C   UNL     1      47.700   4.765  16.198  0.00  0.00    +0.000 C 
ATOM     11  C   UNL     1      47.173   3.559  16.972  0.00  0.00    +0.000 C 
ATOM     12  O   UNL     1      48.226   2.661  17.310  0.00  0.00    +0.000 OA
ATOM     13  C   UNL     1      49.217   3.268  18.132  0.00  0.00    +0.000 C 
ATOM     14  C   UNL     1      49.857   4.452  17.415  0.00  0.00    +0.000 C 
ENDBRANCH   2   9
ENDBRANCH   1   6
BRANCH   1  15
ATOM     15  C   UNL     1      46.899   8.680  13.502  0.00  0.00    +0.000 C 
BRANCH  15  16
ATOM     16  N   UNL     1      46.261   8.376  12.212  0.00  0.00    +0.000 N 
ATOM     17  C   UNL     1      45.760   7.058  12.156  0.00  0.00    +0.000 A 
ATOM     18  C   UNL     1      45.120   6.594  10.996  0.00  0.00    +0.000 A 
ATOM     19  N   UNL     1      44.600   5.342  10.854  0.00  0.00    +0.000 NA
ATOM     20  C   UNL     1      44.736   4.553  11.957  0.00  0.00    +0.000 A 
ATOM     21  C   UNL     1      45.352   4.996  13.112  0.00  0.00    +0.000 A 
ATOM     22  N   UNL     1      45.864   6.246  13.230  0.00  0.00    +0.000 NA
ATOM     23  H   UNL     1      46.892   8.525  11.429  0.00  0.00    +0.000 HD
BRANCH  20  24
ATOM     24  C   UNL     1      44.207   3.166  11.904  0.00  0.00    +0.000 C 
ATOM     25  N   UNL     1      44.344   2.510  10.711  0.00  0.00    +0.000 N 
ATOM     26  O   UNL     1      43.671   2.631  12.869  0.00  0.00    +0.000 OA
ATOM     27  H   UNL     1      44.788   2.974   9.925  0.00  0.00    +0.000 HD
ATOM     28  H   UNL     1      44.000   1.565  10.618  0.00  0.00    +0.000 HD
ENDBRANCH  20  24
ENDBRANCH  15  16
ENDBRANCH   1  15
TORSDOF 5
ENDMDL
