MODEL 1
REMARK VINA RESULT:    -7.700      0.000      0.000
REMARK INTER + INTRA:          -9.918
REMARK INTER:                  -9.501
REMARK INTRA:                  -0.418
REMARK UNBOUND:                -0.418
REMARK  Name = 
REMARK  4 active torsions:
REMARK  status: ('A' for Active; 'I' for Inactive)
REMARK    1  A    between atoms: C_2  and  C_4
REMARK    2  A    between atoms: C_7  and  O_8
REMARK    3  A    between atoms: O_8  and  C_9
REMARK    4  A    between atoms: C_9  and  C_10
REMARK                            x       y       z     vdW  Elec       q    Type
REMARK                         _______ _______ _______ _____ _____    ______ ____
ROOT
ATOM      1  C   UNL     1      46.431   2.698   7.580  0.00  0.00    +0.000 A 
ATOM      2  C   UNL     1      45.832   1.728   8.368  0.00  0.00    +0.000 A 
ATOM      3  N   UNL     1      44.843   2.023   9.254  0.00  0.00    +0.000 NA
ATOM      4  C   UNL     1      44.476   3.323   9.320  0.00  0.00    +0.000 A 
ATOM      5  C   UNL     1      45.103   4.294   8.541  0.00  0.00    +0.000 A 
ATOM      6  N   UNL     1      46.082   4.014   7.647  0.00  0.00    +0.000 NA
ENDROOT
BRANCH   1   8
ATOM      7  N   UNL     1      47.439   2.986   5.409  0.00  0.00    +0.000 N 
ATOM      8  C   UNL     1      47.495   2.331   6.611  0.00  0.00    +0.000 C 
ATOM      9  O   UNL     1      48.358   1.504   6.865  0.00  0.00    +0.000 OA
ATOM     10  H   UNL     1      48.133   2.796   4.701  0.00  0.00    +0.000 HD
ATOM     11  H   UNL     1      46.711   3.672   5.244  0.00  0.00    +0.000 HD
ENDBRANCH   1   8
BRANCH   4  12
ATOM     12  O   UNL     1      43.470   3.565  10.210  0.00  0.00    +0.000 OA
BRANCH  12  13
ATOM     13  C   UNL     1      43.649   2.947  11.486  0.00  0.00    +0.000 C 
BRANCH  13  14
ATOM     14  C   UNL     1      44.620   3.719  12.337  0.00  0.00    +0.000 A 
ATOM     15  C   UNL     1      44.543   5.097  12.485  0.00  0.00    +0.000 A 
ATOM     16  C   UNL     1      45.524   5.743  13.225  0.00  0.00    +0.000 A 
ATOM     17  C   UNL     1      46.537   4.978  13.766  0.00  0.00    +0.000 A 
ATOM     18  N   UNL     1      46.605   3.644  13.601  0.00  0.00    +0.000 NA
ATOM     19  N   UNL     1      45.639   3.010  12.877  0.00  0.00    +0.000 NA
ENDBRANCH  13  14
ENDBRANCH  12  13
ENDBRANCH   4  12
TORSDOF 4
ENDMDL
MODEL 2
REMARK VINA RESULT:    -7.170      2.170      6.018
REMARK INTER + INTRA:          -9.264
REMARK INTER:                  -8.903
REMARK INTRA:                  -0.361
REMARK UNBOUND:                -0.418
REMARK  Name = 
REMARK  4 active torsions:
REMARK  status: ('A' for Active; 'I' for Inactive)
REMARK    1  A    between atoms: C_2  and  C_4
REMARK    2  A    between atoms: C_7  and  O_8
REMARK    3  A    between atoms: O_8  and  C_9
REMARK    4  A    between atoms: C_9  and  C_10
REMARK                            x       y       z     vdW  Elec       q    Type
REMARK                         _______ _______ _______ _____ _____    ______ ____
ROOT
ATOM      1  C   UNL     1      46.405   4.719  13.225  0.00  0.00    +0.000 A 
ATOM      2  C   UNL     1      46.280   5.648  12.202  0.00  0.00    +0.000 A 
ATOM      3  N   UNL     1      45.588   5.381  11.063  0.00  0.00    +0.000 NA
ATOM      4  C   UNL     1      45.026   4.153  10.985  0.00  0.00    +0.000 A 
ATOM      5  C   UNL     1      45.179   3.219  12.009  0.00  0.00    +0.000 A 
ATOM      6  N   UNL     1      45.857   3.474  13.154  0.00  0.00    +0.000 NA
ENDROOT
BRANCH   1   8
ATOM      7  N   UNL     1      46.760   4.379  15.585  0.00  0.00    +0.000 N 
ATOM      8  C   UNL     1      47.154   5.057  14.461  0.00  0.00    +0.000 C 
ATOM      9  O   UNL     1      48.057   5.882  14.480  0.00  0.00    +0.000 OA
ATOM     10  H   UNL     1      47.227   4.548  16.463  0.00  0.00    +0.000 HD
ATOM     11  H   UNL     1      46.013   3.695  15.523  0.00  0.00    +0.000 HD
ENDBRANCH   1   8
BRANCH   4  12
ATOM     12  O   UNL     1      44.328   3.940   9.832  0.00  0.00    +0.000 OA
BRANCH  12  13
ATOM     13  C   UNL     1      44.391   2.599   9.343  0.00  0.00    +0.000 C 
BRANCH  13  14
ATOM     14  C   UNL     1      45.566   2.405   8.423  0.00  0.00    +0.000 A 
ATOM     15  C   UNL     1      46.032   3.415   7.594  0.00  0.00    +0.000 A 
ATOM     16  C   UNL     1      47.071   3.131   6.718  0.00  0.00    +0.000 A 
ATOM     17  C   UNL     1      47.580   1.848   6.710  0.00  0.00    +0.000 A 
ATOM     18  N   UNL     1      47.106   0.876   7.512  0.00  0.00    +0.000 NA
ATOM     19  N   UNL     1      46.087   1.157   8.373  0.00  0.00    +0.000 NA
ENDBRANCH  13  14
ENDBRANCH  12  13
ENDBRANCH   4  12
TORSDOF 4
ENDMDL
MODEL 3
REMARK VINA RESULT:    -6.461      2.487      6.087
REMARK INTER + INTRA:          -8.390
REMARK INTER:                  -8.042
REMARK INTRA:                  -0.348
REMARK UNBOUND:                -0.418
REMARK  Name = 
REMARK  4 active torsions:
REMARK  status: ('A' for Active; 'I' for Inactive)
REMARK    1  A    between atoms: C_2  and  C_4
REMARK    2  A    between atoms: C_7  and  O_8
REMARK    3  A    between atoms: O_8  and  C_9
REMARK    4  A    between atoms: C_9  and  C_10
REMARK                            x       y       z     vdW  Elec       q    Type
REMARK                         _______ _______ _______ _____ _____    ______ ____
ROOT
ATOM      1  C   UNL     1      47.100   5.963  13.345  0.00  0.00    +0.000 A 
ATOM      2  C   UNL     1      47.052   6.610  12.119  0.00  0.00    +0.000 A 
ATOM      3  N   UNL     1      46.066   6.374  11.213  0.00  0.00    +0.000 NA
ATOM      4  C   UNL     1      45.132   5.467  11.578  0.00  0.00    +0.000 A 
ATOM      5  C   UNL     1      45.203   4.804  12.803  0.00  0.00    +0.000 A 
ATOM      6  N   UNL     1      46.174   5.036  13.719  0.00  0.00    +0.000 NA
ENDROOT
BRANCH   1   8
ATOM      7  N   UNL     1      47.881   6.002  15.625  0.00  0.00    +0.000 N 
ATOM      8  C   UNL     1      48.184   6.263  14.314  0.00  0.00    +0.000 C 
ATOM      9  O   UNL     1      49.267   6.714  13.971  0.00  0.00    +0.000 OA
ATOM     10  H   UNL     1      48.570   6.174  16.342  0.00  0.00    +0.000 HD
ATOM     11  H   UNL     1      46.973   5.620  15.864  0.00  0.00    +0.000 HD
ENDBRANCH   1   8
BRANCH   4  12
ATOM     12  O   UNL     1      44.156   5.278  10.644  0.00  0.00    +0.000 OA
BRANCH  12  13
ATOM     13  C   UNL     1      43.932   3.911  10.292  0.00  0.00    +0.000 C 
BRANCH  13  14
ATOM     14  C   UNL     1      44.852   3.472   9.185  0.00  0.00    +0.000 A 
ATOM     15  C   UNL     1      45.324   2.171   9.088  0.00  0.00    +0.000 A 
ATOM     16  C   UNL     1      46.232   1.865   8.083  0.00  0.00    +0.000 A 
ATOM     17  C   UNL     1      46.628   2.882   7.237  0.00  0.00    +0.000 A 
ATOM     18  N   UNL     1      46.170   4.142   7.354  0.00  0.00    +0.000 NA
ATOM     19  N   UNL     1      45.277   4.440   8.340  0.00  0.00    +0.000 NA
ENDBRANCH  13  14
ENDBRANCH  12  13
ENDBRANCH   4  12
TORSDOF 4
ENDMDL
MODEL 4
REMARK VINA RESULT:    -6.144      2.880      6.735
REMARK INTER + INTRA:          -7.998
REMARK INTER:                  -7.692
REMARK INTRA:                  -0.307
REMARK UNBOUND:                -0.418
REMARK  Name = 
REMARK  4 active torsions:
REMARK  status: ('A' for Active; 'I' for Inactive)
REMARK    1  A    between atoms: C_2  and  C_4
REMARK    2  A    between atoms: C_7  and  O_8
REMARK    3  A    between atoms: O_8  and  C_9
REMARK    4  A    between atoms: C_9  and  C_10
REMARK                            x       y       z     vdW  Elec       q    Type
REMARK                         _______ _______ _______ _____ _____    ______ ____
ROOT
ATOM      1  C   UNL     1      47.413   4.362  15.182  0.00  0.00    +0.000 A 
ATOM      2  C   UNL     1      47.716   5.669  14.831  0.00  0.00    +0.000 A 
ATOM      3  N   UNL     1      47.330   6.209  13.644  0.00  0.00    +0.000 NA
ATOM      4  C   UNL     1      46.630   5.394  12.823  0.00  0.00    +0.000 A 
ATOM      5  C   UNL     1      46.352   4.074  13.175  0.00  0.00    +0.000 A 
ATOM      6  N   UNL     1      46.721   3.525  14.358  0.00  0.00    +0.000 NA
ENDROOT
BRANCH   1   8
ATOM      7  N   UNL     1      46.822   3.352  17.289  0.00  0.00    +0.000 N 
ATOM      8  C   UNL     1      47.837   3.817  16.495  0.00  0.00    +0.000 C 
ATOM      9  O   UNL     1      49.008   3.785  16.848  0.00  0.00    +0.000 OA
ATOM     10  H   UNL     1      47.032   2.958  18.194  0.00  0.00    +0.000 HD
ATOM     11  H   UNL     1      45.865   3.388  16.953  0.00  0.00    +0.000 HD
ENDBRANCH   1   8
BRANCH   4  12
ATOM     12  O   UNL     1      46.251   5.986  11.654  0.00  0.00    +0.000 OA
BRANCH  12  13
ATOM     13  C   UNL     1      44.973   5.569  11.168  0.00  0.00    +0.000 C 
BRANCH  13  14
ATOM     14  C   UNL     1      45.105   4.762   9.905  0.00  0.00    +0.000 A 
ATOM     15  C   UNL     1      44.524   3.509   9.763  0.00  0.00    +0.000 A 
ATOM     16  C   UNL     1      44.758   2.795   8.596  0.00  0.00    +0.000 A 
ATOM     17  C   UNL     1      45.571   3.367   7.638  0.00  0.00    +0.000 A 
ATOM     18  N   UNL     1      46.138   4.577   7.798  0.00  0.00    +0.000 NA
ATOM     19  N   UNL     1      45.905   5.278   8.944  0.00  0.00    +0.000 NA
ENDBRANCH  13  14
ENDBRANCH  12  13
ENDBRANCH   4  12
TORSDOF 4
ENDMDL
MODEL 5
REMARK VINA RESULT:    -6.013      4.972      6.511
REMARK INTER + INTRA:          -7.837
REMARK INTER:                  -7.544
REMARK INTRA:                  -0.292
REMARK UNBOUND:                -0.418
REMARK  Name = 
REMARK  4 active torsions:
REMARK  status: ('A' for Active; 'I' for Inactive)
REMARK    1  A    between atoms: C_2  and  C_4
REMARK    2  A    between atoms: C_7  and  O_8
REMARK    3  A    between atoms: O_8  and  C_9
REMARK    4  A    between atoms: C_9  and  C_10
REMARK                            x       y       z     vdW  Elec       q    Type
REMARK                         _______ _______ _______ _____ _____    ______ ____
ROOT
ATOM      1  C   UNL     1      45.701   6.689  12.604  0.00  0.00    +0.000 A 
ATOM      2  C   UNL     1      47.023   6.652  13.021  0.00  0.00    +0.000 A 
ATOM      3  N   UNL     1      47.550   5.573  13.661  0.00  0.00    +0.000 NA
ATOM      4  C   UNL     1      46.706   4.536  13.866  0.00  0.00    +0.000 A 
ATOM      5  C   UNL     1      45.372   4.595  13.464  0.00  0.00    +0.000 A 
ATOM      6  N   UNL     1      44.836   5.659  12.818  0.00  0.00    +0.000 NA
ENDROOT
BRANCH   1   8
ATOM      7  N   UNL     1      44.003   7.673  11.204  0.00  0.00    +0.000 N 
ATOM      8  C   UNL     1      45.170   7.879  11.892  0.00  0.00    +0.000 C 
ATOM      9  O   UNL     1      45.731   8.965  11.914  0.00  0.00    +0.000 OA
ATOM     10  H   UNL     1      43.575   8.436  10.701  0.00  0.00    +0.000 HD
ATOM     11  H   UNL     1      43.565   6.758  11.220  0.00  0.00    +0.000 HD
ENDBRANCH   1   8
BRANCH   4  12
ATOM     12  O   UNL     1      47.286   3.473  14.495  0.00  0.00    +0.000 OA
BRANCH  12  13
ATOM     13  C   UNL     1      47.286   3.559  15.921  0.00  0.00    +0.000 C 
BRANCH  13  14
ATOM     14  C   UNL     1      48.588   3.076  16.500  0.00  0.00    +0.000 A 
ATOM     15  C   UNL     1      49.273   3.786  17.477  0.00  0.00    +0.000 A 
ATOM     16  C   UNL     1      50.507   3.313  17.902  0.00  0.00    +0.000 A 
ATOM     17  C   UNL     1      50.996   2.163  17.317  0.00  0.00    +0.000 A 
ATOM     18  N   UNL     1      50.325   1.494  16.360  0.00  0.00    +0.000 NA
ATOM     19  N   UNL     1      49.112   1.958  15.946  0.00  0.00    +0.000 NA
ENDBRANCH  13  14
ENDBRANCH  12  13
ENDBRANCH   4  12
TORSDOF 4
ENDMDL
MODEL 6
REMARK VINA RESULT:    -5.447      4.541      8.308
REMARK INTER + INTRA:          -7.138
REMARK INTER:                  -6.864
REMARK INTRA:                  -0.274
REMARK UNBOUND:                -0.418
REMARK  Name = 
REMARK  4 active torsions:
REMARK  status: ('A' for Active; 'I' for Inactive)
REMARK    1  A    between atoms: C_2  and  C_4
REMARK    2  A    between atoms: C_7  and  O_8
REMARK    3  A    between atoms: O_8  and  C_9
REMARK    4  A    between atoms: C_9  and  C_10
REMARK                            x       y       z     vdW  Elec       q    Type
REMARK                         _______ _______ _______ _____ _____    ______ ____
ROOT
ATOM      1  C   UNL     1      48.309   4.543  18.198  0.00  0.00    +0.000 A 
ATOM      2  C   UNL     1      47.536   3.432  17.896  0.00  0.00    +0.000 A 
ATOM      3  N   UNL     1      47.044   3.210  16.648  0.00  0.00    +0.000 NA
ATOM      4  C   UNL     1      47.354   4.139  15.715  0.00  0.00    +0.000 A 
ATOM      5  C   UNL     1      48.111   5.265  16.036  0.00  0.00    +0.000 A 
ATOM      6  N   UNL     1      48.616   5.494  17.272  0.00  0.00    +0.000 NA
ENDROOT
BRANCH   1   8
ATOM      7  N   UNL     1      48.656   3.684  20.423  0.00  0.00    +0.000 N 
ATOM      8  C   UNL     1      48.842   4.739  19.570  0.00  0.00    +0.000 C 
ATOM      9  O   UNL     1      49.404   5.768  19.916  0.00  0.00    +0.000 OA
ATOM     10  H   UNL     1      48.998   3.739  21.371  0.00  0.00    +0.000 HD
ATOM     11  H   UNL     1      48.193   2.845  20.092  0.00  0.00    +0.000 HD
ENDBRANCH   1   8
BRANCH   4  12
ATOM     12  O   UNL     1      46.853   3.862  14.477  0.00  0.00    +0.000 OA
BRANCH  12  13
ATOM     13  C   UNL     1      46.428   5.011  13.741  0.00  0.00    +0.000 C 
BRANCH  13  14
ATOM     14  C   UNL     1      45.208   4.711  12.912  0.00  0.00    +0.000 A 
ATOM     15  C   UNL     1      44.243   5.671  12.640  0.00  0.00    +0.000 A 
ATOM     16  C   UNL     1      43.109   5.294  11.934  0.00  0.00    +0.000 A 
ATOM     17  C   UNL     1      42.995   3.973  11.550  0.00  0.00    +0.000 A 
ATOM     18  N   UNL     1      43.934   3.051  11.834  0.00  0.00    +0.000 NA
ATOM     19  N   UNL     1      45.048   3.424  12.526  0.00  0.00    +0.000 NA
ENDBRANCH  13  14
ENDBRANCH  12  13
ENDBRANCH   4  12
TORSDOF 4
ENDMDL
MODEL 7
REMARK VINA RESULT:    -5.294      3.299      6.233
REMARK INTER + INTRA:          -6.950
REMARK INTER:                  -6.686
REMARK INTRA:                  -0.264
REMARK UNBOUND:                -0.418
REMARK  Name = 
REMARK  4 active torsions:
REMARK  status: ('A' for Active; 'I' for Inactive)
REMARK    1  A    between atoms: C_2  and  C_4
REMARK    2  A    between atoms: C_7  and  O_8
REMARK    3  A    between atoms: O_8  and  C_9
REMARK    4  A    between atoms: C_9  and  C_10
REMARK                            x       y       z     vdW  Elec       q    Type
REMARK                         _______ _______ _______ _____ _____    ______ ____
ROOT
ATOM      1  C   UNL     1      48.502   6.837  13.394  0.00  0.00    +0.000 A 
ATOM      2  C   UNL     1      47.750   7.134  12.267  0.00  0.00    +0.000 A 
ATOM      3  N   UNL     1      46.653   6.411  11.917  0.00  0.00    +0.000 NA
ATOM      4  C   UNL     1      46.337   5.382  12.735  0.00  0.00    +0.000 A 
ATOM      5  C   UNL     1      47.114   5.077  13.852  0.00  0.00    +0.000 A 
ATOM      6  N   UNL     1      48.203   5.794  14.219  0.00  0.00    +0.000 NA
ENDROOT
BRANCH   1   8
ATOM      7  N   UNL     1      50.679   7.693  12.813  0.00  0.00    +0.000 N 
ATOM      8  C   UNL     1      49.682   7.663  13.752  0.00  0.00    +0.000 C 
ATOM      9  O   UNL     1      49.763   8.272  14.810  0.00  0.00    +0.000 OA
ATOM     10  H   UNL     1      51.511   8.239  12.981  0.00  0.00    +0.000 HD
ATOM     11  H   UNL     1      50.566   7.181  11.945  0.00  0.00    +0.000 HD
ENDBRANCH   1   8
BRANCH   4  12
ATOM     12  O   UNL     1      45.220   4.699  12.350  0.00  0.00    +0.000 OA
BRANCH  12  13
ATOM     13  C   UNL     1      44.686   5.103  11.088  0.00  0.00    +0.000 C 
BRANCH  13  14
ATOM     14  C   UNL     1      45.133   4.183   9.984  0.00  0.00    +0.000 A 
ATOM     15  C   UNL     1      45.663   4.659   8.793  0.00  0.00    +0.000 A 
ATOM     16  C   UNL     1      45.978   3.748   7.794  0.00  0.00    +0.000 A 
ATOM     17  C   UNL     1      45.734   2.411   8.035  0.00  0.00    +0.000 A 
ATOM     18  N   UNL     1      45.205   1.968   9.191  0.00  0.00    +0.000 NA
ATOM     19  N   UNL     1      44.899   2.863  10.172  0.00  0.00    +0.000 NA
ENDBRANCH  13  14
ENDBRANCH  12  13
ENDBRANCH   4  12
TORSDOF 4
ENDMDL
MODEL 8
REMARK VINA RESULT:    -5.250      4.996      8.042
REMARK INTER + INTRA:          -6.895
REMARK INTER:                  -6.573
REMARK INTRA:                  -0.322
REMARK UNBOUND:                -0.418
REMARK  Name = 
REMARK  4 active torsions:
REMARK  status: ('A' for Active; 'I' for Inactive)
REMARK    1  A    between atoms: C_2  and  C_4
REMARK    2  A    between atoms: C_7  and  O_8
REMARK    3  A    between atoms: O_8  and  C_9
REMARK    4  A    between atoms: C_9  and  C_10
REMARK                            x       y       z     vdW  Elec       q    Type
REMARK                         _______ _______ _______ _____ _____    ______ ____
ROOT
ATOM      1  C   UNL     1      50.497   2.458  17.246  0.00  0.00    +0.000 A 
ATOM      2  C   UNL     1      50.077   3.741  17.561  0.00  0.00    +0.000 A 
ATOM      3  N   UNL     1      48.904   4.253  17.103  0.00  0.00    +0.000 NA
ATOM      4  C   UNL     1      48.166   3.433  16.319  0.00  0.00    +0.000 A 
ATOM      5  C   UNL     1      48.609   2.153  15.989  0.00  0.00    +0.000 A 
ATOM      6  N   UNL     1      49.771   1.626  16.446  0.00  0.00    +0.000 NA
ENDROOT
BRANCH   1   8
ATOM      7  N   UNL     1      52.520   2.828  18.503  0.00  0.00    +0.000 N 
ATOM      8  C   UNL     1      51.777   1.930  17.782  0.00  0.00    +0.000 C 
ATOM      9  O   UNL     1      52.146   0.780  17.593  0.00  0.00    +0.000 OA
ATOM     10  H   UNL     1      53.400   2.541  18.906  0.00  0.00    +0.000 HD
ATOM     11  H   UNL     1      52.172   3.770  18.643  0.00  0.00    +0.000 HD
ENDBRANCH   1   8
BRANCH   4  12
ATOM     12  O   UNL     1      46.991   3.985  15.900  0.00  0.00    +0.000 OA
BRANCH  12  13
ATOM     13  C   UNL     1      47.139   5.019  14.925  0.00  0.00    +0.000 C 
BRANCH  13  14
ATOM     14  C   UNL     1      46.416   4.678  13.650  0.00  0.00    +0.000 A 
ATOM     15  C   UNL     1      46.035   5.647  12.733  0.00  0.00    +0.000 A 
ATOM     16  C   UNL     1      45.302   5.259  11.620  0.00  0.00    +0.000 A 
ATOM     17  C   UNL     1      44.977   3.924  11.491  0.00  0.00    +0.000 A 
ATOM     18  N   UNL     1      45.343   2.998  12.398  0.00  0.00    +0.000 NA
ATOM     19  N   UNL     1      46.065   3.380  13.489  0.00  0.00    +0.000 NA
ENDBRANCH  13  14
ENDBRANCH  12  13
ENDBRANCH   4  12
TORSDOF 4
ENDMDL
MODEL 9
REMARK VINA RESULT:    -5.048      3.791      5.709
REMARK INTER + INTRA:          -6.646
REMARK INTER:                  -6.332
REMARK INTRA:                  -0.313
REMARK UNBOUND:                -0.418
REMARK  Name = 
REMARK  4 active torsions:
REMARK  status: ('A' for Active; 'I' for Inactive)
REMARK    1  A    between atoms: C_2  and  C_4
REMARK    2  A    between atoms: C_7  and  O_8
REMARK    3  A    between atoms: O_8  and  C_9
REMARK    4  A    between atoms: C_9  and  C_10
REMARK                            x       y       z     vdW  Elec       q    Type
REMARK                         _______ _______ _______ _____ _____    ______ ____
ROOT
ATOM      1  C   UNL     1      44.967   3.722  11.781  0.00  0.00    +0.000 A 
ATOM      2  C   UNL     1      45.084   5.020  11.308  0.00  0.00    +0.000 A 
ATOM      3  N   UNL     1      45.897   5.935  11.900  0.00  0.00    +0.000 NA
ATOM      4  C   UNL     1      46.588   5.504  12.980  0.00  0.00    +0.000 A 
ATOM      5  C   UNL     1      46.443   4.204  13.461  0.00  0.00    +0.000 A 
ATOM      6  N   UNL     1      45.644   3.278  12.877  0.00  0.00    +0.000 NA
ENDROOT
BRANCH   1   8
ATOM      7  N   UNL     1      44.573   2.239   9.921  0.00  0.00    +0.000 N 
ATOM      8  C   UNL     1      44.081   2.747  11.095  0.00  0.00    +0.000 C 
ATOM      9  O   UNL     1      42.991   2.421  11.541  0.00  0.00    +0.000 OA
ATOM     10  H   UNL     1      44.032   1.565   9.400  0.00  0.00    +0.000 HD
ATOM     11  H   UNL     1      45.487   2.530   9.592  0.00  0.00    +0.000 HD
ENDBRANCH   1   8
BRANCH   4  12
ATOM     12  O   UNL     1      47.401   6.453  13.526  0.00  0.00    +0.000 OA
BRANCH  12  13
ATOM     13  C   UNL     1      47.153   7.781  13.062  0.00  0.00    +0.000 C 
BRANCH  13  14
ATOM     14  C   UNL     1      48.390   8.392  12.460  0.00  0.00    +0.000 A 
ATOM     15  C   UNL     1      48.397   9.671  11.922  0.00  0.00    +0.000 A 
ATOM     16  C   UNL     1      49.558  10.131  11.314  0.00  0.00    +0.000 A 
ATOM     17  C   UNL     1      50.645   9.282  11.267  0.00  0.00    +0.000 A 
ATOM     18  N   UNL     1      50.616   8.038  11.781  0.00  0.00    +0.000 NA
ATOM     19  N   UNL     1      49.476   7.588  12.379  0.00  0.00    +0.000 NA
ENDBRANCH  13  14
ENDBRANCH  12  13
ENDBRANCH   4  12
TORSDOF 4
ENDMDL
