MODEL 1
REMARK VINA RESULT:    -8.682      0.000      0.000
REMARK INTER + INTRA:         -11.844
REMARK INTER:                 -11.220
REMARK INTRA:                  -0.624
REMARK UNBOUND:                -0.624
REMARK  Name = 
REMARK  7 active torsions:
REMARK  status: ('A' for Active; 'I' for Inactive)
REMARK    1  A    between atoms: C_1  and  O_2
REMARK    2  A    between atoms: O_2  and  C_3
REMARK    3  A    between atoms: C_5  and  C_6
REMARK    4  A    between atoms: C_6  and  N_7
REMARK    5  A    between atoms: N_7  and  C_8
REMARK    6  A    between atoms: C_11  and  C_12
REMARK    7  A    between atoms: C_16  and  C_17
REMARK                            x       y       z     vdW  Elec       q    Type
REMARK                         _______ _______ _______ _____ _____    ______ ____
ROOT
ATOM      1  N   UNL     1      44.146   5.162   9.776  0.00  0.00    +0.000 N 
ATOM      2  H   UNL     1      43.408   5.489   9.157  0.00  0.00    +0.000 HD
ENDROOT
BRANCH   1   3
ATOM      3  C   UNL     1      44.858   4.171   9.112  0.00  0.00    +0.000 A 
ATOM      4  N   UNL     1      45.624   4.695   8.126  0.00  0.00    +0.000 NA
ATOM      5  C   UNL     1      46.428   3.872   7.413  0.00  0.00    +0.000 A 
ATOM      6  C   UNL     1      46.557   2.527   7.673  0.00  0.00    +0.000 A 
ATOM      7  C   UNL     1      45.752   1.982   8.668  0.00  0.00    +0.000 A 
ATOM      8  C   UNL     1      44.865   2.798   9.398  0.00  0.00    +0.000 A 
ATOM      9  C   UNL     1      43.964   2.093  10.367  0.00  0.00    +0.000 C 
BRANCH   6  10
ATOM     10  C   UNL     1      47.501   1.718   6.886  0.00  0.00    +0.000 C 
ATOM     11  N   UNL     1      48.608   2.357   6.396  0.00  0.00    +0.000 N 
ATOM     12  O   UNL     1      47.288   0.537   6.646  0.00  0.00    +0.000 OA
ATOM     13  H   UNL     1      48.690   3.360   6.364  0.00  0.00    +0.000 HD
ATOM     14  H   UNL     1      49.193   1.820   5.767  0.00  0.00    +0.000 HD
ENDBRANCH   6  10
ENDBRANCH   1   3
BRANCH   1  15
ATOM     15  C   UNL     1      44.008   5.362  11.219  0.00  0.00    +0.000 C 
ATOM     16  C   UNL     1      42.962   6.375  11.692  0.00  0.00    +0.000 C 
ATOM     17  C   UNL     1      42.710   4.920  11.880  0.00  0.00    +0.000 C 
BRANCH  15  20
ATOM     18  C   UNL     1      46.872   4.525  13.604  0.00  0.00    +0.000 A 
ATOM     19  C   UNL     1      45.632   4.434  13.000  0.00  0.00    +0.000 A 
ATOM     20  C   UNL     1      45.334   5.381  12.030  0.00  0.00    +0.000 A 
ATOM     21  N   UNL     1      46.229   6.360  11.737  0.00  0.00    +0.000 NA
ATOM     22  C   UNL     1      47.395   6.356  12.390  0.00  0.00    +0.000 A 
ATOM     23  N   UNL     1      47.773   5.478  13.318  0.00  0.00    +0.000 NA
BRANCH  18  25
ATOM     24  C   UNL     1      47.360   4.144  15.855  0.00  0.00    +0.000 C 
ATOM     25  O   UNL     1      47.188   3.573  14.555  0.00  0.00    +0.000 OA
ENDBRANCH  18  25
ENDBRANCH  15  20
ENDBRANCH   1  15
TORSDOF 5
ENDMDL
MODEL 2
REMARK VINA RESULT:    -8.215      1.181      1.781
REMARK INTER + INTRA:         -11.240
REMARK INTER:                 -10.618
REMARK INTRA:                  -0.622
REMARK UNBOUND:                -0.624
REMARK  Name = 
REMARK  7 active torsions:
REMARK  status: ('A' for Active; 'I' for Inactive)
REMARK    1  A    between atoms: C_1  and  O_2
REMARK    2  A    between atoms: O_2  and  C_3
REMARK    3  A    between atoms: C_5  and  C_6
REMARK    4  A    between atoms: C_6  and  N_7
REMARK    5  A    between atoms: N_7  and  C_8
REMARK    6  A    between atoms: C_11  and  C_12
REMARK    7  A    between atoms: C_16  and  C_17
REMARK                            x       y       z     vdW  Elec       q    Type
REMARK                         _______ _______ _______ _____ _____    ______ ____
ROOT
ATOM      1  N   UNL     1      44.245   5.174   9.793  0.00  0.00    +0.000 N 
ATOM      2  H   UNL     1      43.529   5.544   9.172  0.00  0.00    +0.000 HD
ENDROOT
BRANCH   1   3
ATOM      3  C   UNL     1      44.950   4.195   9.104  0.00  0.00    +0.000 A 
ATOM      4  N   UNL     1      45.762   4.742   8.168  0.00  0.00    +0.000 NA
ATOM      5  C   UNL     1      46.564   3.930   7.441  0.00  0.00    +0.000 A 
ATOM      6  C   UNL     1      46.647   2.570   7.640  0.00  0.00    +0.000 A 
ATOM      7  C   UNL     1      45.796   2.004   8.583  0.00  0.00    +0.000 A 
ATOM      8  C   UNL     1      44.910   2.810   9.324  0.00  0.00    +0.000 A 
ATOM      9  C   UNL     1      43.959   2.088  10.230  0.00  0.00    +0.000 C 
BRANCH   6  10
ATOM     10  C   UNL     1      47.592   1.772   6.845  0.00  0.00    +0.000 C 
ATOM     11  N   UNL     1      48.559   2.456   6.157  0.00  0.00    +0.000 N 
ATOM     12  O   UNL     1      47.497   0.555   6.767  0.00  0.00    +0.000 OA
ATOM     13  H   UNL     1      48.517   3.451   6.002  0.00  0.00    +0.000 HD
ATOM     14  H   UNL     1      49.134   1.908   5.529  0.00  0.00    +0.000 HD
ENDBRANCH   6  10
ENDBRANCH   1   3
BRANCH   1  15
ATOM     15  C   UNL     1      44.078   5.317  11.240  0.00  0.00    +0.000 C 
ATOM     16  C   UNL     1      43.097   6.385  11.732  0.00  0.00    +0.000 C 
ATOM     17  C   UNL     1      42.732   4.945  11.843  0.00  0.00    +0.000 C 
BRANCH  15  20
ATOM     18  C   UNL     1      47.511   5.907  12.809  0.00  0.00    +0.000 A 
ATOM     19  C   UNL     1      46.440   6.082  11.952  0.00  0.00    +0.000 A 
ATOM     20  C   UNL     1      45.376   5.199  12.086  0.00  0.00    +0.000 A 
ATOM     21  N   UNL     1      45.435   4.199  13.002  0.00  0.00    +0.000 NA
ATOM     22  C   UNL     1      46.523   4.119  13.772  0.00  0.00    +0.000 A 
ATOM     23  N   UNL     1      47.578   4.931  13.728  0.00  0.00    +0.000 NA
BRANCH  18  25
ATOM     24  C   UNL     1      48.293   7.845  11.768  0.00  0.00    +0.000 C 
ATOM     25  O   UNL     1      48.565   6.794  12.700  0.00  0.00    +0.000 OA
ENDBRANCH  18  25
ENDBRANCH  15  20
ENDBRANCH   1  15
TORSDOF 5
ENDMDL
MODEL 3
REMARK VINA RESULT:    -7.494      2.291      3.112
REMARK INTER + INTRA:         -10.309
REMARK INTER:                  -9.791
REMARK INTRA:                  -0.518
REMARK UNBOUND:                -0.624
REMARK  Name = 
REMARK  7 active torsions:
REMARK  status: ('A' for Active; 'I' for Inactive)
REMARK    1  A    between atoms: C_1  and  O_2
REMARK    2  A    between atoms: O_2  and  C_3
REMARK    3  A    between atoms: C_5  and  C_6
REMARK    4  A    between atoms: C_6  and  N_7
REMARK    5  A    between atoms: N_7  and  C_8
REMARK    6  A    between atoms: C_11  and  C_12
REMARK    7  A    between atoms: C_16  and  C_17
REMARK                            x       y       z     vdW  Elec       q    Type
REMARK                         _______ _______ _______ _____ _____    ______ ____
ROOT
ATOM      1  N   UNL     1      44.543   5.118  10.142  0.00  0.00    +0.000 N 
ATOM      2  H   UNL     1      43.562   5.180   9.884  0.00  0.00    +0.000 HD
ENDROOT
BRANCH   1   3
ATOM      3  C   UNL     1      45.174   4.271   9.239  0.00  0.00    +0.000 A 
ATOM      4  N   UNL     1      45.984   4.962   8.403  0.00  0.00    +0.000 NA
ATOM      5  C   UNL     1      46.719   4.283   7.492  0.00  0.00    +0.000 A 
ATOM      6  C   UNL     1      46.736   2.909   7.405  0.00  0.00    +0.000 A 
ATOM      7  C   UNL     1      45.886   2.199   8.245  0.00  0.00    +0.000 A 
ATOM      8  C   UNL     1      45.067   2.874   9.171  0.00  0.00    +0.000 A 
ATOM      9  C   UNL     1      44.108   2.024   9.948  0.00  0.00    +0.000 C 
BRANCH   6  10
ATOM     10  C   UNL     1      47.613   2.250   6.424  0.00  0.00    +0.000 C 
ATOM     11  N   UNL     1      47.977   2.982   5.326  0.00  0.00    +0.000 N 
ATOM     12  O   UNL     1      47.970   1.088   6.562  0.00  0.00    +0.000 OA
ATOM     13  H   UNL     1      47.513   3.835   5.060  0.00  0.00    +0.000 HD
ATOM     14  H   UNL     1      48.489   2.485   4.606  0.00  0.00    +0.000 HD
ENDBRANCH   6  10
ENDBRANCH   1   3
BRANCH   1  15
ATOM     15  C   UNL     1      44.942   5.431  11.515  0.00  0.00    +0.000 C 
ATOM     16  C   UNL     1      44.019   4.958  12.640  0.00  0.00    +0.000 C 
ATOM     17  C   UNL     1      45.326   4.276  12.428  0.00  0.00    +0.000 C 
BRANCH  15  20
ATOM     18  C   UNL     1      45.435   9.175  12.094  0.00  0.00    +0.000 A 
ATOM     19  C   UNL     1      44.775   7.989  11.831  0.00  0.00    +0.000 A 
ATOM     20  C   UNL     1      45.553   6.843  11.737  0.00  0.00    +0.000 A 
ATOM     21  N   UNL     1      46.902   6.925  11.866  0.00  0.00    +0.000 NA
ATOM     22  C   UNL     1      47.435   8.126  12.109  0.00  0.00    +0.000 A 
ATOM     23  N   UNL     1      46.767   9.271  12.236  0.00  0.00    +0.000 NA
BRANCH  18  25
ATOM     24  C   UNL     1      43.673  10.410  11.189  0.00  0.00    +0.000 C 
ATOM     25  O   UNL     1      44.668  10.318  12.212  0.00  0.00    +0.000 OA
ENDBRANCH  18  25
ENDBRANCH  15  20
ENDBRANCH   1  15
TORSDOF 5
ENDMDL
MODEL 4
REMARK VINA RESULT:    -6.376      2.251      6.212
REMARK INTER + INTRA:          -8.864
REMARK INTER:                  -8.684
REMARK INTRA:                  -0.180
REMARK UNBOUND:                -0.624
REMARK  Name = 
REMARK  7 active torsions:
REMARK  status: ('A' for Active; 'I' for Inactive)
REMARK    1  A    between atoms: C_1  and  O_2
REMARK    2  A    between atoms: O_2  and  C_3
REMARK    3  A    between atoms: C_5  and  C_6
REMARK    4  A    between atoms: C_6  and  N_7
REMARK    5  A    between atoms: N_7  and  C_8
REMARK    6  A    between atoms: C_11  and  C_12
REMARK    7  A    between atoms: C_16  and  C_17
REMARK                            x       y       z     vdW  Elec       q    Type
REMARK                         _______ _______ _______ _____ _____    ______ ____
ROOT
ATOM      1  N   UNL     1      44.986   4.971  12.699  0.00  0.00    +0.000 N 
ATOM      2  H   UNL     1      44.584   4.748  13.606  0.00  0.00    +0.000 HD
ENDROOT
BRANCH   1   3
ATOM      3  C   UNL     1      46.187   5.636  12.912  0.00  0.00    +0.000 A 
ATOM      4  N   UNL     1      46.410   6.564  11.951  0.00  0.00    +0.000 NA
ATOM      5  C   UNL     1      47.513   7.344  12.037  0.00  0.00    +0.000 A 
ATOM      6  C   UNL     1      48.400   7.289  13.087  0.00  0.00    +0.000 A 
ATOM      7  C   UNL     1      48.187   6.320  14.061  0.00  0.00    +0.000 A 
ATOM      8  C   UNL     1      47.078   5.454  13.980  0.00  0.00    +0.000 A 
ATOM      9  C   UNL     1      47.004   4.375  15.017  0.00  0.00    +0.000 C 
BRANCH   6  10
ATOM     10  C   UNL     1      49.540   8.218  13.130  0.00  0.00    +0.000 C 
ATOM     11  N   UNL     1      50.760   7.690  13.456  0.00  0.00    +0.000 N 
ATOM     12  O   UNL     1      49.399   9.416  12.923  0.00  0.00    +0.000 OA
ATOM     13  H   UNL     1      50.868   6.776  13.866  0.00  0.00    +0.000 HD
ATOM     14  H   UNL     1      51.515   8.353  13.589  0.00  0.00    +0.000 HD
ENDBRANCH   6  10
ENDBRANCH   1   3
BRANCH   1  15
ATOM     15  C   UNL     1      44.112   5.039  11.527  0.00  0.00    +0.000 C 
ATOM     16  C   UNL     1      42.603   5.092  11.779  0.00  0.00    +0.000 C 
ATOM     17  C   UNL     1      43.312   6.314  11.307  0.00  0.00    +0.000 C 
BRANCH  15  20
ATOM     18  C   UNL     1      45.587   3.765   8.242  0.00  0.00    +0.000 A 
ATOM     19  C   UNL     1      45.215   4.666   9.222  0.00  0.00    +0.000 A 
ATOM     20  C   UNL     1      44.531   4.157  10.318  0.00  0.00    +0.000 A 
ATOM     21  N   UNL     1      44.226   2.835  10.374  0.00  0.00    +0.000 NA
ATOM     22  C   UNL     1      44.628   2.057   9.366  0.00  0.00    +0.000 A 
ATOM     23  N   UNL     1      45.304   2.454   8.289  0.00  0.00    +0.000 NA
BRANCH  18  25
ATOM     24  C   UNL     1      46.693   3.223   6.258  0.00  0.00    +0.000 C 
ATOM     25  O   UNL     1      46.288   4.258   7.157  0.00  0.00    +0.000 OA
ENDBRANCH  18  25
ENDBRANCH  15  20
ENDBRANCH   1  15
TORSDOF 5
ENDMDL
MODEL 5
REMARK VINA RESULT:    -6.328      3.080      7.435
REMARK INTER + INTRA:          -8.801
REMARK INTER:                  -8.285
REMARK INTRA:                  -0.515
REMARK UNBOUND:                -0.624
REMARK  Name = 
REMARK  7 active torsions:
REMARK  status: ('A' for Active; 'I' for Inactive)
REMARK    1  A    between atoms: C_1  and  O_2
REMARK    2  A    between atoms: O_2  and  C_3
REMARK    3  A    between atoms: C_5  and  C_6
REMARK    4  A    between atoms: C_6  and  N_7
REMARK    5  A    between atoms: N_7  and  C_8
REMARK    6  A    between atoms: C_11  and  C_12
REMARK    7  A    between atoms: C_16  and  C_17
REMARK                            x       y       z     vdW  Elec       q    Type
REMARK                         _______ _______ _______ _____ _____    ______ ____
ROOT
ATOM      1  N   UNL     1      46.508   4.751  15.271  0.00  0.00    +0.000 N 
ATOM      2  H   UNL     1      45.845   5.128  15.945  0.00  0.00    +0.000 HD
ENDROOT
BRANCH   1   3
ATOM      3  C   UNL     1      47.589   4.232  15.974  0.00  0.00    +0.000 A 
ATOM      4  N   UNL     1      47.747   2.911  15.722  0.00  0.00    +0.000 NA
ATOM      5  C   UNL     1      48.790   2.258  16.284  0.00  0.00    +0.000 A 
ATOM      6  C   UNL     1      49.744   2.877  17.059  0.00  0.00    +0.000 A 
ATOM      7  C   UNL     1      49.569   4.228  17.340  0.00  0.00    +0.000 A 
ATOM      8  C   UNL     1      48.467   4.931  16.815  0.00  0.00    +0.000 A 
ATOM      9  C   UNL     1      48.311   6.351  17.269  0.00  0.00    +0.000 C 
BRANCH   6  10
ATOM     10  C   UNL     1      50.880   2.101  17.580  0.00  0.00    +0.000 C 
ATOM     11  N   UNL     1      51.827   2.786  18.292  0.00  0.00    +0.000 N 
ATOM     12  O   UNL     1      50.995   0.904  17.354  0.00  0.00    +0.000 OA
ATOM     13  H   UNL     1      51.893   3.791  18.286  0.00  0.00    +0.000 HD
ATOM     14  H   UNL     1      52.656   2.265  18.552  0.00  0.00    +0.000 HD
ENDBRANCH   6  10
ENDBRANCH   1   3
BRANCH   1  15
ATOM     15  C   UNL     1      46.478   5.238  13.892  0.00  0.00    +0.000 C 
ATOM     16  C   UNL     1      46.955   6.671  13.642  0.00  0.00    +0.000 C 
ATOM     17  C   UNL     1      47.806   5.529  13.209  0.00  0.00    +0.000 C 
BRANCH  15  20
ATOM     18  C   UNL     1      44.124   3.541  11.408  0.00  0.00    +0.000 A 
ATOM     19  C   UNL     1      45.309   3.875  12.036  0.00  0.00    +0.000 A 
ATOM     20  C   UNL     1      45.240   4.818  13.052  0.00  0.00    +0.000 A 
ATOM     21  N   UNL     1      44.050   5.394  13.364  0.00  0.00    +0.000 NA
ATOM     22  C   UNL     1      42.968   5.002  12.685  0.00  0.00    +0.000 A 
ATOM     23  N   UNL     1      42.938   4.092  11.713  0.00  0.00    +0.000 NA
BRANCH  18  25
ATOM     24  C   UNL     1      44.482   3.154   9.133  0.00  0.00    +0.000 C 
ATOM     25  O   UNL     1      44.179   2.586  10.410  0.00  0.00    +0.000 OA
ENDBRANCH  18  25
ENDBRANCH  15  20
ENDBRANCH   1  15
TORSDOF 5
ENDMDL
MODEL 6
REMARK VINA RESULT:    -6.263      2.857      7.495
REMARK INTER + INTRA:          -8.718
REMARK INTER:                  -8.465
REMARK INTRA:                  -0.253
REMARK UNBOUND:                -0.624
REMARK  Name = 
REMARK  7 active torsions:
REMARK  status: ('A' for Active; 'I' for Inactive)
REMARK    1  A    between atoms: C_1  and  O_2
REMARK    2  A    between atoms: O_2  and  C_3
REMARK    3  A    between atoms: C_5  and  C_6
REMARK    4  A    between atoms: C_6  and  N_7
REMARK    5  A    between atoms: N_7  and  C_8
REMARK    6  A    between atoms: C_11  and  C_12
REMARK    7  A    between atoms: C_16  and  C_17
REMARK                            x       y       z     vdW  Elec       q    Type
REMARK                         _______ _______ _______ _____ _____    ______ ____
ROOT
ATOM      1  N   UNL     1      47.332   5.124  13.194  0.00  0.00    +0.000 N 
ATOM      2  H   UNL     1      47.874   4.359  12.797  0.00  0.00    +0.000 HD
ENDROOT
BRANCH   1   3
ATOM      3  C   UNL     1      47.577   5.161  14.561  0.00  0.00    +0.000 A 
ATOM      4  N   UNL     1      47.024   4.096  15.187  0.00  0.00    +0.000 NA
ATOM      5  C   UNL     1      47.214   3.947  16.519  0.00  0.00    +0.000 A 
ATOM      6  C   UNL     1      47.996   4.793  17.272  0.00  0.00    +0.000 A 
ATOM      7  C   UNL     1      48.544   5.902  16.636  0.00  0.00    +0.000 A 
ATOM      8  C   UNL     1      48.326   6.119  15.261  0.00  0.00    +0.000 A 
ATOM      9  C   UNL     1      48.865   7.400  14.700  0.00  0.00    +0.000 C 
BRANCH   6  10
ATOM     10  C   UNL     1      48.198   4.521  18.704  0.00  0.00    +0.000 C 
ATOM     11  N   UNL     1      48.310   3.209  19.077  0.00  0.00    +0.000 N 
ATOM     12  O   UNL     1      48.225   5.423  19.530  0.00  0.00    +0.000 OA
ATOM     13  H   UNL     1      48.050   2.446  18.473  0.00  0.00    +0.000 HD
ATOM     14  H   UNL     1      48.339   3.027  20.073  0.00  0.00    +0.000 HD
ENDBRANCH   6  10
ENDBRANCH   1   3
BRANCH   1  15
ATOM     15  C   UNL     1      46.157   5.615  12.474  0.00  0.00    +0.000 C 
ATOM     16  C   UNL     1      45.498   6.894  12.995  0.00  0.00    +0.000 C 
ATOM     17  C   UNL     1      46.278   6.936  11.728  0.00  0.00    +0.000 C 
BRANCH  15  20
ATOM     18  C   UNL     1      44.235   3.056  10.389  0.00  0.00    +0.000 A 
ATOM     19  C   UNL     1      45.128   4.071  10.678  0.00  0.00    +0.000 A 
ATOM     20  C   UNL     1      45.158   4.529  11.988  0.00  0.00    +0.000 A 
ATOM     21  N   UNL     1      44.309   4.006  12.910  0.00  0.00    +0.000 NA
ATOM     22  C   UNL     1      43.481   3.034  12.518  0.00  0.00    +0.000 A 
ATOM     23  N   UNL     1      43.398   2.520  11.291  0.00  0.00    +0.000 NA
BRANCH  18  25
ATOM     24  C   UNL     1      45.401   1.853   8.763  0.00  0.00    +0.000 C 
ATOM     25  O   UNL     1      44.213   2.578   9.092  0.00  0.00    +0.000 OA
ENDBRANCH  18  25
ENDBRANCH  15  20
ENDBRANCH   1  15
TORSDOF 5
ENDMDL
MODEL 7
REMARK VINA RESULT:    -5.771      3.173      5.083
REMARK INTER + INTRA:          -8.082
REMARK INTER:                  -7.979
REMARK INTRA:                  -0.104
REMARK UNBOUND:                -0.624
REMARK  Name = 
REMARK  7 active torsions:
REMARK  status: ('A' for Active; 'I' for Inactive)
REMARK    1  A    between atoms: C_1  and  O_2
REMARK    2  A    between atoms: O_2  and  C_3
REMARK    3  A    between atoms: C_5  and  C_6
REMARK    4  A    between atoms: C_6  and  N_7
REMARK    5  A    between atoms: N_7  and  C_8
REMARK    6  A    between atoms: C_11  and  C_12
REMARK    7  A    between atoms: C_16  and  C_17
REMARK                            x       y       z     vdW  Elec       q    Type
REMARK                         _______ _______ _______ _____ _____    ______ ____
ROOT
ATOM      1  N   UNL     1      46.718   6.850  13.813  0.00  0.00    +0.000 N 
ATOM      2  H   UNL     1      46.165   7.007  14.652  0.00  0.00    +0.000 HD
ENDROOT
BRANCH   1   3
ATOM      3  C   UNL     1      46.008   5.991  12.983  0.00  0.00    +0.000 A 
ATOM      4  N   UNL     1      46.247   4.696  13.299  0.00  0.00    +0.000 NA
ATOM      5  C   UNL     1      45.591   3.725  12.623  0.00  0.00    +0.000 A 
ATOM      6  C   UNL     1      44.639   3.981  11.662  0.00  0.00    +0.000 A 
ATOM      7  C   UNL     1      44.411   5.309  11.318  0.00  0.00    +0.000 A 
ATOM      8  C   UNL     1      45.112   6.346  11.964  0.00  0.00    +0.000 A 
ATOM      9  C   UNL     1      44.875   7.731  11.441  0.00  0.00    +0.000 C 
BRANCH   6  10
ATOM     10  C   UNL     1      43.930   2.863  11.020  0.00  0.00    +0.000 C 
ATOM     11  N   UNL     1      44.457   2.382   9.852  0.00  0.00    +0.000 N 
ATOM     12  O   UNL     1      42.894   2.409  11.486  0.00  0.00    +0.000 OA
ATOM     13  H   UNL     1      45.151   2.881   9.320  0.00  0.00    +0.000 HD
ATOM     14  H   UNL     1      43.903   1.688   9.363  0.00  0.00    +0.000 HD
ENDBRANCH   6  10
ENDBRANCH   1   3
BRANCH   1  15
ATOM     15  C   UNL     1      48.164   7.070  13.859  0.00  0.00    +0.000 C 
ATOM     16  C   UNL     1      48.946   6.876  12.557  0.00  0.00    +0.000 C 
ATOM     17  C   UNL     1      48.730   8.252  13.086  0.00  0.00    +0.000 C 
BRANCH  15  20
ATOM     18  C   UNL     1      49.058   5.231  17.086  0.00  0.00    +0.000 A 
ATOM     19  C   UNL     1      48.285   5.678  16.030  0.00  0.00    +0.000 A 
ATOM     20  C   UNL     1      48.889   6.544  15.129  0.00  0.00    +0.000 A 
ATOM     21  N   UNL     1      50.172   6.942  15.325  0.00  0.00    +0.000 NA
ATOM     22  C   UNL     1      50.823   6.454  16.384  0.00  0.00    +0.000 A 
ATOM     23  N   UNL     1      50.332   5.606  17.286  0.00  0.00    +0.000 NA
BRANCH  18  25
ATOM     24  C   UNL     1      47.345   3.679  17.411  0.00  0.00    +0.000 C 
ATOM     25  O   UNL     1      48.473   4.351  17.976  0.00  0.00    +0.000 OA
ENDBRANCH  18  25
ENDBRANCH  15  20
ENDBRANCH   1  15
TORSDOF 5
ENDMDL
