MODEL 1
REMARK VINA RESULT:    -7.253      0.000      0.000
REMARK INTER + INTRA:         -10.864
REMARK INTER:                  -9.797
REMARK INTRA:                  -1.067
REMARK UNBOUND:                -1.067
REMARK  Name = 
REMARK  6 active torsions:
REMARK  status: ('A' for Active; 'I' for Inactive)
REMARK    1  A    between atoms: C_2  and  C_20
REMARK    2  A    between atoms: N_3  and  C_4
REMARK    3  A    between atoms: C_4  and  C_5
REMARK    4  A    between atoms: C_8  and  C_9
REMARK    5  A    between atoms: C_9  and  N_10
REMARK    6  A    between atoms: C_11  and  C_13
REMARK                            x       y       z     vdW  Elec       q    Type
REMARK                         _______ _______ _______ _____ _____    ______ ____
ROOT
ATOM      1  C   UNL     1      47.592   4.118  15.507  0.00  0.00    +0.000 C 
ENDROOT
BRANCH   1   2
ATOM      2  C   UNL     1      46.923   4.589  14.241  0.00  0.00    +0.000 A 
ATOM      3  C   UNL     1      46.146   3.710  13.477  0.00  0.00    +0.000 A 
ATOM      4  C   UNL     1      45.487   4.154  12.324  0.00  0.00    +0.000 A 
ATOM      5  C   UNL     1      45.609   5.483  11.898  0.00  0.00    +0.000 A 
ATOM      6  C   UNL     1      46.406   6.357  12.650  0.00  0.00    +0.000 A 
ATOM      7  C   UNL     1      47.065   5.912  13.802  0.00  0.00    +0.000 A 
BRANCH   5   8
ATOM      8  C   UNL     1      44.926   5.951  10.639  0.00  0.00    +0.000 C 
BRANCH   8   9
ATOM      9  N   UNL     1      44.536   4.871   9.755  0.00  0.00    +0.000 N 
ATOM     10  C   UNL     1      45.347   4.566   8.688  0.00  0.00    +0.000 C 
ATOM     11  O   UNL     1      46.333   5.247   8.401  0.00  0.00    +0.000 OA
ATOM     12  H   UNL     1      43.887   4.173  10.102  0.00  0.00    +0.000 HD
BRANCH  10  13
ATOM     13  C   UNL     1      44.981   3.357   7.837  0.00  0.00    +0.000 C 
ATOM     14  C   UNL     1      44.964   2.056   8.602  0.00  0.00    +0.000 C 
ATOM     15  C   UNL     1      46.320   1.440   8.325  0.00  0.00    +0.000 C 
ATOM     16  O   UNL     1      46.907   2.136   7.219  0.00  0.00    +0.000 OA
ATOM     17  C   UNL     1      45.969   3.100   6.724  0.00  0.00    +0.000 C 
ENDBRANCH  10  13
ENDBRANCH   8   9
ENDBRANCH   5   8
ENDBRANCH   1   2
BRANCH   1  20
ATOM     18  O   UNL     1      49.750   5.423  16.638  0.00  0.00    +0.000 OA
ATOM     19  C   UNL     1      48.626   5.730  17.027  0.00  0.00    +0.000 C 
ATOM     20  N   UNL     1      47.499   5.082  16.574  0.00  0.00    +0.000 N 
ATOM     21  H   UNL     1      46.585   5.490  16.748  0.00  0.00    +0.000 HD
BRANCH  19  22
ATOM     22  C   UNL     1      48.423   6.791  18.019  0.00  0.00    +0.000 A 
ATOM     23  C   UNL     1      48.430   6.477  19.373  0.00  0.00    +0.000 A 
ATOM     24  S   UNL     1      48.171   7.822  20.389  0.00  0.00    +0.000 S 
ATOM     25  C   UNL     1      48.088   8.880  19.059  0.00  0.00    +0.000 A 
ATOM     26  N   UNL     1      47.915  10.217  19.238  0.00  0.00    +0.000 NA
ATOM     27  C   UNL     1      47.913  10.905  18.146  0.00  0.00    +0.000 A 
ATOM     28  N   UNL     1      48.057  10.377  16.889  0.00  0.00    +0.000 N 
ATOM     29  C   UNL     1      48.192   9.028  16.657  0.00  0.00    +0.000 A 
ATOM     30  O   UNL     1      48.256   8.581  15.517  0.00  0.00    +0.000 OA
ATOM     31  C   UNL     1      48.229   8.212  17.855  0.00  0.00    +0.000 A 
ATOM     32  H   UNL     1      48.032  10.969  16.073  0.00  0.00    +0.000 HD
ENDBRANCH  19  22
ENDBRANCH   1  20
TORSDOF 6
ENDMDL
MODEL 2
REMARK VINA RESULT:    -7.222      1.698      2.211
REMARK INTER + INTRA:         -10.822
REMARK INTER:                  -9.701
REMARK INTRA:                  -1.121
REMARK UNBOUND:                -1.067
REMARK  Name = 
REMARK  6 active torsions:
REMARK  status: ('A' for Active; 'I' for Inactive)
REMARK    1  A    between atoms: C_2  and  C_20
REMARK    2  A    between atoms: N_3  and  C_4
REMARK    3  A    between atoms: C_4  and  C_5
REMARK    4  A    between atoms: C_8  and  C_9
REMARK    5  A    between atoms: C_9  and  N_10
REMARK    6  A    between atoms: C_11  and  C_13
REMARK                            x       y       z     vdW  Elec       q    Type
REMARK                         _______ _______ _______ _____ _____    ______ ____
ROOT
ATOM      1  C   UNL     1      47.109   4.026  14.653  0.00  0.00    +0.000 C 
ENDROOT
BRANCH   1   2
ATOM      2  C   UNL     1      46.340   4.236  13.374  0.00  0.00    +0.000 A 
ATOM      3  C   UNL     1      46.332   5.488  12.746  0.00  0.00    +0.000 A 
ATOM      4  C   UNL     1      45.655   5.677  11.535  0.00  0.00    +0.000 A 
ATOM      5  C   UNL     1      44.953   4.623  10.936  0.00  0.00    +0.000 A 
ATOM      6  C   UNL     1      44.941   3.377  11.576  0.00  0.00    +0.000 A 
ATOM      7  C   UNL     1      45.618   3.189  12.787  0.00  0.00    +0.000 A 
BRANCH   5   8
ATOM      8  C   UNL     1      44.198   4.837   9.649  0.00  0.00    +0.000 C 
BRANCH   8   9
ATOM      9  N   UNL     1      44.385   3.772   8.684  0.00  0.00    +0.000 N 
ATOM     10  C   UNL     1      45.501   3.797   7.881  0.00  0.00    +0.000 C 
ATOM     11  O   UNL     1      46.286   4.747   7.884  0.00  0.00    +0.000 OA
ATOM     12  H   UNL     1      43.899   2.894   8.832  0.00  0.00    +0.000 HD
BRANCH  10  13
ATOM     13  C   UNL     1      45.739   2.613   6.954  0.00  0.00    +0.000 C 
ATOM     14  C   UNL     1      46.472   1.466   7.606  0.00  0.00    +0.000 C 
ATOM     15  C   UNL     1      47.918   1.665   7.200  0.00  0.00    +0.000 C 
ATOM     16  O   UNL     1      47.952   2.612   6.125  0.00  0.00    +0.000 OA
ATOM     17  C   UNL     1      46.608   2.960   5.769  0.00  0.00    +0.000 C 
ENDBRANCH  10  13
ENDBRANCH   8   9
ENDBRANCH   5   8
ENDBRANCH   1   2
BRANCH   1  20
ATOM     18  O   UNL     1      48.843   4.228  16.795  0.00  0.00    +0.000 OA
ATOM     19  C   UNL     1      48.437   5.270  16.286  0.00  0.00    +0.000 C 
ATOM     20  N   UNL     1      47.515   5.266  15.264  0.00  0.00    +0.000 N 
ATOM     21  H   UNL     1      47.360   6.116  14.729  0.00  0.00    +0.000 HD
BRANCH  19  22
ATOM     22  C   UNL     1      48.894   6.581  16.758  0.00  0.00    +0.000 A 
ATOM     23  C   UNL     1      48.789   6.901  18.107  0.00  0.00    +0.000 A 
ATOM     24  S   UNL     1      49.355   8.464  18.486  0.00  0.00    +0.000 S 
ATOM     25  C   UNL     1      49.806   8.751  16.870  0.00  0.00    +0.000 A 
ATOM     26  N   UNL     1      50.402   9.919  16.507  0.00  0.00    +0.000 NA
ATOM     27  C   UNL     1      50.728   9.985  15.260  0.00  0.00    +0.000 A 
ATOM     28  N   UNL     1      50.502   8.995  14.339  0.00  0.00    +0.000 N 
ATOM     29  C   UNL     1      49.865   7.816  14.651  0.00  0.00    +0.000 A 
ATOM     30  O   UNL     1      49.623   6.977  13.792  0.00  0.00    +0.000 OA
ATOM     31  C   UNL     1      49.503   7.680  16.048  0.00  0.00    +0.000 A 
ATOM     32  H   UNL     1      50.768   9.115  13.374  0.00  0.00    +0.000 HD
ENDBRANCH  19  22
ENDBRANCH   1  20
TORSDOF 6
ENDMDL
MODEL 3
REMARK VINA RESULT:    -7.221      4.909      9.139
REMARK INTER + INTRA:         -10.822
REMARK INTER:                  -9.785
REMARK INTRA:                  -1.037
REMARK UNBOUND:                -1.067
REMARK  Name = 
REMARK  6 active torsions:
REMARK  status: ('A' for Active; 'I' for Inactive)
REMARK    1  A    between atoms: C_2  and  C_20
REMARK    2  A    between atoms: N_3  and  C_4
REMARK    3  A    between atoms: C_4  and  C_5
REMARK    4  A    between atoms: C_8  and  C_9
REMARK    5  A    between atoms: C_9  and  N_10
REMARK    6  A    between atoms: C_11  and  C_13
REMARK                            x       y       z     vdW  Elec       q    Type
REMARK                         _______ _______ _______ _____ _____    ______ ____
ROOT
ATOM      1  C   UNL     1      47.201   3.438  16.660  0.00  0.00    +0.000 C 
ENDROOT
BRANCH   1   2
ATOM      2  C   UNL     1      48.666   3.547  16.998  0.00  0.00    +0.000 A 
ATOM      3  C   UNL     1      49.233   4.788  17.318  0.00  0.00    +0.000 A 
ATOM      4  C   UNL     1      50.583   4.888  17.675  0.00  0.00    +0.000 A 
ATOM      5  C   UNL     1      51.402   3.752  17.700  0.00  0.00    +0.000 A 
ATOM      6  C   UNL     1      50.841   2.514  17.356  0.00  0.00    +0.000 A 
ATOM      7  C   UNL     1      49.491   2.415  16.999  0.00  0.00    +0.000 A 
BRANCH   5   8
ATOM      8  C   UNL     1      52.863   3.866  18.052  0.00  0.00    +0.000 C 
BRANCH   8   9
ATOM      9  N   UNL     1      53.581   2.610  17.961  0.00  0.00    +0.000 N 
ATOM     10  C   UNL     1      54.826   2.603  17.377  0.00  0.00    +0.000 C 
ATOM     11  O   UNL     1      55.300   3.604  16.838  0.00  0.00    +0.000 OA
ATOM     12  H   UNL     1      53.323   1.858  18.591  0.00  0.00    +0.000 HD
BRANCH  10  13
ATOM     13  C   UNL     1      55.613   1.299  17.391  0.00  0.00    +0.000 C 
ATOM     14  C   UNL     1      55.550   0.537  16.090  0.00  0.00    +0.000 C 
ATOM     15  C   UNL     1      54.459  -0.492  16.310  0.00  0.00    +0.000 C 
ATOM     16  O   UNL     1      54.184  -0.554  17.714  0.00  0.00    +0.000 OA
ATOM     17  C   UNL     1      55.094   0.310  18.407  0.00  0.00    +0.000 C 
ENDBRANCH  10  13
ENDBRANCH   8   9
ENDBRANCH   5   8
ENDBRANCH   1   2
BRANCH   1  20
ATOM     18  O   UNL     1      47.177   3.165  13.910  0.00  0.00    +0.000 OA
ATOM     19  C   UNL     1      46.731   4.205  14.387  0.00  0.00    +0.000 C 
ATOM     20  N   UNL     1      46.769   4.459  15.739  0.00  0.00    +0.000 N 
ATOM     21  H   UNL     1      46.212   5.217  16.121  0.00  0.00    +0.000 HD
BRANCH  19  22
ATOM     22  C   UNL     1      46.152   5.250  13.536  0.00  0.00    +0.000 A 
ATOM     23  C   UNL     1      46.897   6.384  13.237  0.00  0.00    +0.000 A 
ATOM     24  S   UNL     1      46.075   7.503  12.246  0.00  0.00    +0.000 S 
ATOM     25  C   UNL     1      44.713   6.489  12.141  0.00  0.00    +0.000 A 
ATOM     26  N   UNL     1      43.634   6.844  11.392  0.00  0.00    +0.000 NA
ATOM     27  C   UNL     1      42.690   5.964  11.367  0.00  0.00    +0.000 A 
ATOM     28  N   UNL     1      42.721   4.765  12.033  0.00  0.00    +0.000 N 
ATOM     29  C   UNL     1      43.772   4.384  12.834  0.00  0.00    +0.000 A 
ATOM     30  O   UNL     1      43.742   3.333  13.466  0.00  0.00    +0.000 OA
ATOM     31  C   UNL     1      44.872   5.326  12.874  0.00  0.00    +0.000 A 
ATOM     32  H   UNL     1      41.943   4.126  11.984  0.00  0.00    +0.000 HD
ENDBRANCH  19  22
ENDBRANCH   1  20
TORSDOF 6
ENDMDL
MODEL 4
REMARK VINA RESULT:    -6.958      2.213      3.358
REMARK INTER + INTRA:         -10.465
REMARK INTER:                  -9.254
REMARK INTRA:                  -1.212
REMARK UNBOUND:                -1.067
REMARK  Name = 
REMARK  6 active torsions:
REMARK  status: ('A' for Active; 'I' for Inactive)
REMARK    1  A    between atoms: C_2  and  C_20
REMARK    2  A    between atoms: N_3  and  C_4
REMARK    3  A    between atoms: C_4  and  C_5
REMARK    4  A    between atoms: C_8  and  C_9
REMARK    5  A    between atoms: C_9  and  N_10
REMARK    6  A    between atoms: C_11  and  C_13
REMARK                            x       y       z     vdW  Elec       q    Type
REMARK                         _______ _______ _______ _____ _____    ______ ____
ROOT
ATOM      1  C   UNL     1      47.654   8.214  13.762  0.00  0.00    +0.000 C 
ENDROOT
BRANCH   1   2
ATOM      2  C   UNL     1      46.588   7.441  13.028  0.00  0.00    +0.000 A 
ATOM      3  C   UNL     1      46.531   6.045  13.119  0.00  0.00    +0.000 A 
ATOM      4  C   UNL     1      45.517   5.326  12.475  0.00  0.00    +0.000 A 
ATOM      5  C   UNL     1      44.548   5.987  11.708  0.00  0.00    +0.000 A 
ATOM      6  C   UNL     1      44.619   7.382  11.598  0.00  0.00    +0.000 A 
ATOM      7  C   UNL     1      45.634   8.100  12.242  0.00  0.00    +0.000 A 
BRANCH   5   8
ATOM      8  C   UNL     1      43.477   5.209  10.989  0.00  0.00    +0.000 C 
BRANCH   8   9
ATOM      9  N   UNL     1      43.940   4.572   9.773  0.00  0.00    +0.000 N 
ATOM     10  C   UNL     1      44.168   3.216   9.783  0.00  0.00    +0.000 C 
ATOM     11  O   UNL     1      44.093   2.549  10.817  0.00  0.00    +0.000 OA
ATOM     12  H   UNL     1      43.778   5.041   8.888  0.00  0.00    +0.000 HD
BRANCH  10  13
ATOM     13  C   UNL     1      44.545   2.545   8.469  0.00  0.00    +0.000 C 
ATOM     14  C   UNL     1      45.908   1.897   8.486  0.00  0.00    +0.000 C 
ATOM     15  C   UNL     1      46.821   2.927   7.853  0.00  0.00    +0.000 C 
ATOM     16  O   UNL     1      46.003   3.909   7.205  0.00  0.00    +0.000 OA
ATOM     17  C   UNL     1      44.629   3.516   7.316  0.00  0.00    +0.000 C 
ENDBRANCH  10  13
ENDBRANCH   8   9
ENDBRANCH   5   8
ENDBRANCH   1   2
BRANCH   1  20
ATOM     18  O   UNL     1      50.052   6.962  14.330  0.00  0.00    +0.000 OA
ATOM     19  C   UNL     1      49.236   7.079  15.241  0.00  0.00    +0.000 C 
ATOM     20  N   UNL     1      47.989   7.623  15.033  0.00  0.00    +0.000 N 
ATOM     21  H   UNL     1      47.425   7.897  15.832  0.00  0.00    +0.000 HD
BRANCH  19  22
ATOM     22  C   UNL     1      49.538   6.621  16.601  0.00  0.00    +0.000 A 
ATOM     23  C   UNL     1      50.479   7.304  17.363  0.00  0.00    +0.000 A 
ATOM     24  S   UNL     1      50.719   6.638  18.914  0.00  0.00    +0.000 S 
ATOM     25  C   UNL     1      49.538   5.443  18.642  0.00  0.00    +0.000 A 
ATOM     26  N   UNL     1      49.216   4.544  19.611  0.00  0.00    +0.000 NA
ATOM     27  C   UNL     1      48.276   3.722  19.285  0.00  0.00    +0.000 A 
ATOM     28  N   UNL     1      47.636   3.709  18.072  0.00  0.00    +0.000 N 
ATOM     29  C   UNL     1      47.957   4.571  17.049  0.00  0.00    +0.000 A 
ATOM     30  O   UNL     1      47.408   4.492  15.956  0.00  0.00    +0.000 OA
ATOM     31  C   UNL     1      48.989   5.534  17.375  0.00  0.00    +0.000 A 
ATOM     32  H   UNL     1      46.918   3.029  17.874  0.00  0.00    +0.000 HD
ENDBRANCH  19  22
ENDBRANCH   1  20
TORSDOF 6
ENDMDL
MODEL 5
REMARK VINA RESULT:    -6.832      4.435      9.061
REMARK INTER + INTRA:         -10.296
REMARK INTER:                  -9.560
REMARK INTRA:                  -0.736
REMARK UNBOUND:                -1.067
REMARK  Name = 
REMARK  6 active torsions:
REMARK  status: ('A' for Active; 'I' for Inactive)
REMARK    1  A    between atoms: C_2  and  C_20
REMARK    2  A    between atoms: N_3  and  C_4
REMARK    3  A    between atoms: C_4  and  C_5
REMARK    4  A    between atoms: C_8  and  C_9
REMARK    5  A    between atoms: C_9  and  N_10
REMARK    6  A    between atoms: C_11  and  C_13
REMARK                            x       y       z     vdW  Elec       q    Type
REMARK                         _______ _______ _______ _____ _____    ______ ____
ROOT
ATOM      1  C   UNL     1      48.749   7.714  15.079  0.00  0.00    +0.000 C 
ENDROOT
BRANCH   1   2
ATOM      2  C   UNL     1      49.156   6.528  15.917  0.00  0.00    +0.000 A 
ATOM      3  C   UNL     1      50.444   6.450  16.462  0.00  0.00    +0.000 A 
ATOM      4  C   UNL     1      50.812   5.373  17.277  0.00  0.00    +0.000 A 
ATOM      5  C   UNL     1      49.907   4.339  17.548  0.00  0.00    +0.000 A 
ATOM      6  C   UNL     1      48.626   4.405  16.983  0.00  0.00    +0.000 A 
ATOM      7  C   UNL     1      48.258   5.483  16.168  0.00  0.00    +0.000 A 
BRANCH   5   8
ATOM      8  C   UNL     1      50.315   3.164  18.398  0.00  0.00    +0.000 C 
BRANCH   8   9
ATOM      9  N   UNL     1      51.739   2.893  18.366  0.00  0.00    +0.000 N 
ATOM     10  C   UNL     1      52.186   1.794  17.670  0.00  0.00    +0.000 C 
ATOM     11  O   UNL     1      51.410   0.980  17.166  0.00  0.00    +0.000 OA
ATOM     12  H   UNL     1      52.381   3.653  18.559  0.00  0.00    +0.000 HD
BRANCH  10  13
ATOM     13  C   UNL     1      53.690   1.588  17.553  0.00  0.00    +0.000 C 
ATOM     14  C   UNL     1      54.079   0.218  17.053  0.00  0.00    +0.000 C 
ATOM     15  C   UNL     1      54.393  -0.566  18.312  0.00  0.00    +0.000 C 
ATOM     16  O   UNL     1      54.528   0.365  19.392  0.00  0.00    +0.000 OA
ATOM     17  C   UNL     1      54.404   1.697  18.879  0.00  0.00    +0.000 C 
ENDBRANCH  10  13
ENDBRANCH   8   9
ENDBRANCH   5   8
ENDBRANCH   1   2
BRANCH   1  20
ATOM     18  O   UNL     1      48.647   6.196  12.772  0.00  0.00    +0.000 OA
ATOM     19  C   UNL     1      47.591   6.641  13.213  0.00  0.00    +0.000 C 
ATOM     20  N   UNL     1      47.554   7.466  14.314  0.00  0.00    +0.000 N 
ATOM     21  H   UNL     1      46.666   7.643  14.775  0.00  0.00    +0.000 HD
BRANCH  19  22
ATOM     22  C   UNL     1      46.306   6.336  12.573  0.00  0.00    +0.000 A 
ATOM     23  C   UNL     1      45.615   7.340  11.906  0.00  0.00    +0.000 A 
ATOM     24  S   UNL     1      44.138   6.822  11.229  0.00  0.00    +0.000 S 
ATOM     25  C   UNL     1      44.393   5.226  11.760  0.00  0.00    +0.000 A 
ATOM     26  N   UNL     1      43.499   4.242  11.473  0.00  0.00    +0.000 NA
ATOM     27  C   UNL     1      43.837   3.072  11.901  0.00  0.00    +0.000 A 
ATOM     28  N   UNL     1      44.984   2.798  12.601  0.00  0.00    +0.000 N 
ATOM     29  C   UNL     1      45.895   3.767  12.951  0.00  0.00    +0.000 A 
ATOM     30  O   UNL     1      46.879   3.500  13.631  0.00  0.00    +0.000 OA
ATOM     31  C   UNL     1      45.574   5.096  12.469  0.00  0.00    +0.000 A 
ATOM     32  H   UNL     1      45.183   1.863  12.921  0.00  0.00    +0.000 HD
ENDBRANCH  19  22
ENDBRANCH   1  20
TORSDOF 6
ENDMDL
MODEL 6
REMARK VINA RESULT:    -6.764      1.950      2.161
REMARK INTER + INTRA:         -10.203
REMARK INTER:                  -9.002
REMARK INTRA:                  -1.201
REMARK UNBOUND:                -1.067
REMARK  Name = 
REMARK  6 active torsions:
REMARK  status: ('A' for Active; 'I' for Inactive)
REMARK    1  A    between atoms: C_2  and  C_20
REMARK    2  A    between atoms: N_3  and  C_4
REMARK    3  A    between atoms: C_4  and  C_5
REMARK    4  A    between atoms: C_8  and  C_9
REMARK    5  A    between atoms: C_9  and  N_10
REMARK    6  A    between atoms: C_11  and  C_13
REMARK                            x       y       z     vdW  Elec       q    Type
REMARK                         _______ _______ _______ _____ _____    ______ ____
ROOT
ATOM      1  C   UNL     1      47.746   3.455  15.730  0.00  0.00    +0.000 C 
ENDROOT
BRANCH   1   2
ATOM      2  C   UNL     1      47.080   4.097  14.539  0.00  0.00    +0.000 A 
ATOM      3  C   UNL     1      47.155   5.481  14.342  0.00  0.00    +0.000 A 
ATOM      4  C   UNL     1      46.576   6.077  13.215  0.00  0.00    +0.000 A 
ATOM      5  C   UNL     1      45.890   5.302  12.270  0.00  0.00    +0.000 A 
ATOM      6  C   UNL     1      45.795   3.920  12.480  0.00  0.00    +0.000 A 
ATOM      7  C   UNL     1      46.374   3.326  13.607  0.00  0.00    +0.000 A 
BRANCH   5   8
ATOM      8  C   UNL     1      45.240   5.949  11.075  0.00  0.00    +0.000 C 
BRANCH   8   9
ATOM      9  N   UNL     1      44.722   4.997  10.112  0.00  0.00    +0.000 N 
ATOM     10  C   UNL     1      45.415   4.802   8.939  0.00  0.00    +0.000 C 
ATOM     11  O   UNL     1      46.395   5.485   8.639  0.00  0.00    +0.000 OA
ATOM     12  H   UNL     1      44.082   4.280  10.435  0.00  0.00    +0.000 HD
BRANCH  10  13
ATOM     13  C   UNL     1      44.920   3.718   7.991  0.00  0.00    +0.000 C 
ATOM     14  C   UNL     1      44.530   2.436   8.683  0.00  0.00    +0.000 C 
ATOM     15  C   UNL     1      45.750   1.549   8.548  0.00  0.00    +0.000 C 
ATOM     16  O   UNL     1      46.612   2.127   7.560  0.00  0.00    +0.000 OA
ATOM     17  C   UNL     1      45.971   3.280   7.000  0.00  0.00    +0.000 C 
ENDBRANCH  10  13
ENDBRANCH   8   9
ENDBRANCH   5   8
ENDBRANCH   1   2
BRANCH   1  20
ATOM     18  O   UNL     1      50.089   3.143  17.161  0.00  0.00    +0.000 OA
ATOM     19  C   UNL     1      49.487   4.207  17.273  0.00  0.00    +0.000 C 
ATOM     20  N   UNL     1      48.276   4.424  16.655  0.00  0.00    +0.000 N 
ATOM     21  H   UNL     1      47.910   5.370  16.593  0.00  0.00    +0.000 HD
BRANCH  19  22
ATOM     22  C   UNL     1      50.015   5.303  18.093  0.00  0.00    +0.000 A 
ATOM     23  C   UNL     1      50.134   5.136  19.468  0.00  0.00    +0.000 A 
ATOM     24  S   UNL     1      50.754   6.505  20.273  0.00  0.00    +0.000 S 
ATOM     25  C   UNL     1      50.931   7.353  18.808  0.00  0.00    +0.000 A 
ATOM     26  N   UNL     1      51.458   8.607  18.785  0.00  0.00    +0.000 NA
ATOM     27  C   UNL     1      51.573   9.115  17.604  0.00  0.00    +0.000 A 
ATOM     28  N   UNL     1      51.198   8.487  16.443  0.00  0.00    +0.000 N 
ATOM     29  C   UNL     1      50.623   7.238  16.422  0.00  0.00    +0.000 A 
ATOM     30  O   UNL     1      50.242   6.731  15.373  0.00  0.00    +0.000 OA
ATOM     31  C   UNL     1      50.497   6.612  17.723  0.00  0.00    +0.000 A 
ATOM     32  H   UNL     1      51.301   8.946  15.551  0.00  0.00    +0.000 HD
ENDBRANCH  19  22
ENDBRANCH   1  20
TORSDOF 6
ENDMDL
MODEL 7
REMARK VINA RESULT:    -6.585      5.460      8.480
REMARK INTER + INTRA:          -9.961
REMARK INTER:                  -9.117
REMARK INTRA:                  -0.844
REMARK UNBOUND:                -1.067
REMARK  Name = 
REMARK  6 active torsions:
REMARK  status: ('A' for Active; 'I' for Inactive)
REMARK    1  A    between atoms: C_2  and  C_20
REMARK    2  A    between atoms: N_3  and  C_4
REMARK    3  A    between atoms: C_4  and  C_5
REMARK    4  A    between atoms: C_8  and  C_9
REMARK    5  A    between atoms: C_9  and  N_10
REMARK    6  A    between atoms: C_11  and  C_13
REMARK                            x       y       z     vdW  Elec       q    Type
REMARK                         _______ _______ _______ _____ _____    ______ ____
ROOT
ATOM      1  C   UNL     1      46.349   8.149  12.881  0.00  0.00    +0.000 C 
ENDROOT
BRANCH   1   2
ATOM      2  C   UNL     1      47.743   8.391  12.361  0.00  0.00    +0.000 A 
ATOM      3  C   UNL     1      48.169   9.687  12.042  0.00  0.00    +0.000 A 
ATOM      4  C   UNL     1      49.476   9.922  11.600  0.00  0.00    +0.000 A 
ATOM      5  C   UNL     1      50.381   8.864  11.448  0.00  0.00    +0.000 A 
ATOM      6  C   UNL     1      49.948   7.565  11.744  0.00  0.00    +0.000 A 
ATOM      7  C   UNL     1      48.641   7.330  12.186  0.00  0.00    +0.000 A 
BRANCH   5   8
ATOM      8  C   UNL     1      51.778   9.115  10.941  0.00  0.00    +0.000 C 
BRANCH   8   9
ATOM      9  N   UNL     1      52.373   7.965  10.289  0.00  0.00    +0.000 N 
ATOM     10  C   UNL     1      52.892   8.119   9.024  0.00  0.00    +0.000 C 
ATOM     11  O   UNL     1      52.770   9.169   8.392  0.00  0.00    +0.000 OA
ATOM     12  H   UNL     1      52.688   7.192  10.865  0.00  0.00    +0.000 HD
BRANCH  10  13
ATOM     13  C   UNL     1      53.614   6.932   8.401  0.00  0.00    +0.000 C 
ATOM     14  C   UNL     1      54.883   7.305   7.674  0.00  0.00    +0.000 C 
ATOM     15  C   UNL     1      54.467   7.407   6.221  0.00  0.00    +0.000 C 
ATOM     16  O   UNL     1      53.180   6.794   6.082  0.00  0.00    +0.000 OA
ATOM     17  C   UNL     1      52.793   6.233   7.343  0.00  0.00    +0.000 C 
ENDBRANCH  10  13
ENDBRANCH   8   9
ENDBRANCH   5   8
ENDBRANCH   1   2
BRANCH   1  20
ATOM     18  O   UNL     1      44.152   7.514  11.329  0.00  0.00    +0.000 OA
ATOM     19  C   UNL     1      44.821   6.589  11.781  0.00  0.00    +0.000 C 
ATOM     20  N   UNL     1      45.888   6.808  12.623  0.00  0.00    +0.000 N 
ATOM     21  H   UNL     1      46.541   6.053  12.808  0.00  0.00    +0.000 HD
BRANCH  19  22
ATOM     22  C   UNL     1      44.504   5.191  11.469  0.00  0.00    +0.000 A 
ATOM     23  C   UNL     1      43.714   4.454  12.342  0.00  0.00    +0.000 A 
ATOM     24  S   UNL     1      43.449   2.847  11.836  0.00  0.00    +0.000 S 
ATOM     25  C   UNL     1      44.339   3.094  10.407  0.00  0.00    +0.000 A 
ATOM     26  N   UNL     1      44.474   2.102   9.486  0.00  0.00    +0.000 NA
ATOM     27  C   UNL     1      45.138   2.439   8.432  0.00  0.00    +0.000 A 
ATOM     28  N   UNL     1      45.691   3.676   8.219  0.00  0.00    +0.000 N 
ATOM     29  C   UNL     1      45.615   4.696   9.139  0.00  0.00    +0.000 A 
ATOM     30  O   UNL     1      46.173   5.770   8.945  0.00  0.00    +0.000 OA
ATOM     31  C   UNL     1      44.855   4.376  10.330  0.00  0.00    +0.000 A 
ATOM     32  H   UNL     1      46.212   3.872   7.378  0.00  0.00    +0.000 HD
ENDBRANCH  19  22
ENDBRANCH   1  20
TORSDOF 6
ENDMDL
MODEL 8
REMARK VINA RESULT:    -6.550      3.138      9.153
REMARK INTER + INTRA:          -9.915
REMARK INTER:                  -8.675
REMARK INTRA:                  -1.240
REMARK UNBOUND:                -1.067
REMARK  Name = 
REMARK  6 active torsions:
REMARK  status: ('A' for Active; 'I' for Inactive)
REMARK    1  A    between atoms: C_2  and  C_20
REMARK    2  A    between atoms: N_3  and  C_4
REMARK    3  A    between atoms: C_4  and  C_5
REMARK    4  A    between atoms: C_8  and  C_9
REMARK    5  A    between atoms: C_9  and  N_10
REMARK    6  A    between atoms: C_11  and  C_13
REMARK                            x       y       z     vdW  Elec       q    Type
REMARK                         _______ _______ _______ _____ _____    ______ ____
ROOT
ATOM      1  C   UNL     1      47.568   7.759  11.867  0.00  0.00    +0.000 C 
ENDROOT
BRANCH   1   2
ATOM      2  C   UNL     1      48.223   7.909  13.216  0.00  0.00    +0.000 A 
ATOM      3  C   UNL     1      49.405   7.220  13.515  0.00  0.00    +0.000 A 
ATOM      4  C   UNL     1      50.040   7.390  14.751  0.00  0.00    +0.000 A 
ATOM      5  C   UNL     1      49.495   8.237  15.724  0.00  0.00    +0.000 A 
ATOM      6  C   UNL     1      48.300   8.909  15.435  0.00  0.00    +0.000 A 
ATOM      7  C   UNL     1      47.665   8.738  14.198  0.00  0.00    +0.000 A 
BRANCH   5   8
ATOM      8  C   UNL     1      50.162   8.394  17.066  0.00  0.00    +0.000 C 
BRANCH   8   9
ATOM      9  N   UNL     1      50.530   7.134  17.681  0.00  0.00    +0.000 N 
ATOM     10  C   UNL     1      49.586   6.459  18.419  0.00  0.00    +0.000 C 
ATOM     11  O   UNL     1      48.478   6.941  18.659  0.00  0.00    +0.000 OA
ATOM     12  H   UNL     1      51.324   6.626  17.306  0.00  0.00    +0.000 HD
BRANCH  10  13
ATOM     13  C   UNL     1      49.955   5.084  18.962  0.00  0.00    +0.000 C 
ATOM     14  C   UNL     1      50.576   4.171  17.934  0.00  0.00    +0.000 C 
ATOM     15  C   UNL     1      49.424   3.316  17.446  0.00  0.00    +0.000 C 
ATOM     16  O   UNL     1      48.336   3.471  18.364  0.00  0.00    +0.000 OA
ATOM     17  C   UNL     1      48.757   4.305  19.451  0.00  0.00    +0.000 C 
ENDBRANCH  10  13
ENDBRANCH   8   9
ENDBRANCH   5   8
ENDBRANCH   1   2
BRANCH   1  20
ATOM     18  O   UNL     1      44.854   7.343  12.183  0.00  0.00    +0.000 OA
ATOM     19  C   UNL     1      45.542   6.392  11.823  0.00  0.00    +0.000 C 
ATOM     20  N   UNL     1      46.910   6.487  11.710  0.00  0.00    +0.000 N 
ATOM     21  H   UNL     1      47.422   5.761  11.216  0.00  0.00    +0.000 HD
BRANCH  19  22
ATOM     22  C   UNL     1      44.944   5.088  11.516  0.00  0.00    +0.000 A 
ATOM     23  C   UNL     1      44.184   4.436  12.480  0.00  0.00    +0.000 A 
ATOM     24  S   UNL     1      43.571   2.931  11.966  0.00  0.00    +0.000 S 
ATOM     25  C   UNL     1      44.256   3.118  10.420  0.00  0.00    +0.000 A 
ATOM     26  N   UNL     1      44.073   2.177   9.455  0.00  0.00    +0.000 NA
ATOM     27  C   UNL     1      44.613   2.467   8.319  0.00  0.00    +0.000 A 
ATOM     28  N   UNL     1      45.330   3.608   8.063  0.00  0.00    +0.000 N 
ATOM     29  C   UNL     1      45.576   4.565   9.019  0.00  0.00    +0.000 A 
ATOM     30  O   UNL     1      46.274   5.543   8.775  0.00  0.00    +0.000 OA
ATOM     31  C   UNL     1      44.967   4.300  10.307  0.00  0.00    +0.000 A 
ATOM     32  H   UNL     1      45.740   3.768   7.155  0.00  0.00    +0.000 HD
ENDBRANCH  19  22
ENDBRANCH   1  20
TORSDOF 6
ENDMDL
MODEL 9
REMARK VINA RESULT:    -6.515      5.288      9.086
REMARK INTER + INTRA:          -9.867
REMARK INTER:                  -8.576
REMARK INTRA:                  -1.291
REMARK UNBOUND:                -1.067
REMARK  Name = 
REMARK  6 active torsions:
REMARK  status: ('A' for Active; 'I' for Inactive)
REMARK    1  A    between atoms: C_2  and  C_20
REMARK    2  A    between atoms: N_3  and  C_4
REMARK    3  A    between atoms: C_4  and  C_5
REMARK    4  A    between atoms: C_8  and  C_9
REMARK    5  A    between atoms: C_9  and  N_10
REMARK    6  A    between atoms: C_11  and  C_13
REMARK                            x       y       z     vdW  Elec       q    Type
REMARK                         _______ _______ _______ _____ _____    ______ ____
ROOT
ATOM      1  C   UNL     1      47.697   3.443  17.191  0.00  0.00    +0.000 C 
ENDROOT
BRANCH   1   2
ATOM      2  C   UNL     1      49.189   3.421  17.404  0.00  0.00    +0.000 A 
ATOM      3  C   UNL     1      49.864   4.573  17.828  0.00  0.00    +0.000 A 
ATOM      4  C   UNL     1      51.242   4.547  18.070  0.00  0.00    +0.000 A 
ATOM      5  C   UNL     1      51.981   3.373  17.873  0.00  0.00    +0.000 A 
ATOM      6  C   UNL     1      51.310   2.227  17.426  0.00  0.00    +0.000 A 
ATOM      7  C   UNL     1      49.931   2.254  17.184  0.00  0.00    +0.000 A 
BRANCH   5   8
ATOM      8  C   UNL     1      53.470   3.354  18.102  0.00  0.00    +0.000 C 
BRANCH   8   9
ATOM      9  N   UNL     1      53.990   2.042  18.429  0.00  0.00    +0.000 N 
ATOM     10  C   UNL     1      54.936   1.482  17.603  0.00  0.00    +0.000 C 
ATOM     11  O   UNL     1      55.273   2.013  16.543  0.00  0.00    +0.000 OA
ATOM     12  H   UNL     1      53.909   1.714  19.386  0.00  0.00    +0.000 HD
BRANCH  10  13
ATOM     13  C   UNL     1      55.554   0.155  18.022  0.00  0.00    +0.000 C 
ATOM     14  C   UNL     1      54.783  -1.052  17.547  0.00  0.00    +0.000 C 
ATOM     15  C   UNL     1      53.926  -1.442  18.734  0.00  0.00    +0.000 C 
ATOM     16  O   UNL     1      54.427  -0.757  19.888  0.00  0.00    +0.000 OA
ATOM     17  C   UNL     1      55.603  -0.024  19.520  0.00  0.00    +0.000 C 
ENDBRANCH  10  13
ENDBRANCH   8   9
ENDBRANCH   5   8
ENDBRANCH   1   2
BRANCH   1  20
ATOM     18  O   UNL     1      47.508   2.946  14.479  0.00  0.00    +0.000 OA
ATOM     19  C   UNL     1      47.165   4.053  14.884  0.00  0.00    +0.000 C 
ATOM     20  N   UNL     1      47.293   4.414  16.206  0.00  0.00    +0.000 N 
ATOM     21  H   UNL     1      46.814   5.243  16.546  0.00  0.00    +0.000 HD
BRANCH  19  22
ATOM     22  C   UNL     1      46.621   5.066  13.973  0.00  0.00    +0.000 A 
ATOM     23  C   UNL     1      45.371   4.872  13.397  0.00  0.00    +0.000 A 
ATOM     24  S   UNL     1      44.892   6.137  12.359  0.00  0.00    +0.000 S 
ATOM     25  C   UNL     1      46.315   7.012  12.680  0.00  0.00    +0.000 A 
ATOM     26  N   UNL     1      46.525   8.235  12.122  0.00  0.00    +0.000 NA
ATOM     27  C   UNL     1      47.625   8.805  12.485  0.00  0.00    +0.000 A 
ATOM     28  N   UNL     1      48.542   8.257  13.345  0.00  0.00    +0.000 N 
ATOM     29  C   UNL     1      48.392   7.007  13.899  0.00  0.00    +0.000 A 
ATOM     30  O   UNL     1      49.260   6.521  14.616  0.00  0.00    +0.000 OA
ATOM     31  C   UNL     1      47.157   6.336  13.545  0.00  0.00    +0.000 A 
ATOM     32  H   UNL     1      49.392   8.748  13.577  0.00  0.00    +0.000 HD
ENDBRANCH  19  22
ENDBRANCH   1  20
TORSDOF 6
ENDMDL
