MODEL 1
REMARK VINA RESULT:    -8.321      0.000      0.000
REMARK INTER + INTRA:         -12.306
REMARK INTER:                 -11.483
REMARK INTRA:                  -0.823
REMARK UNBOUND:                -0.823
REMARK  Name = 
REMARK  8 active torsions:
REMARK  status: ('A' for Active; 'I' for Inactive)
REMARK    1  A    between atoms: C_1  and  C_2
REMARK    2  A    between atoms: C_2  and  N_3
REMARK    3  A    between atoms: C_2  and  C_19
REMARK    4  A    between atoms: N_3  and  C_4
REMARK    5  A    between atoms: C_7  and  C_8
REMARK    6  A    between atoms: C_8  and  N_9
REMARK    7  A    between atoms: N_9  and  C_10
REMARK    8  A    between atoms: C_13  and  N_14
REMARK                            x       y       z     vdW  Elec       q    Type
REMARK                         _______ _______ _______ _____ _____    ______ ____
ROOT
ATOM      1  C   UNL     1      46.704   5.577  12.753  0.00  0.00    +0.000 A 
ATOM      2  C   UNL     1      45.656   4.704  12.998  0.00  0.00    +0.000 A 
ATOM      3  N   UNL     1      44.689   4.379  12.112  0.00  0.00    +0.000 NA
ATOM      4  C   UNL     1      44.777   4.975  10.907  0.00  0.00    +0.000 A 
ATOM      5  N   UNL     1      45.658   5.949  10.603  0.00  0.00    +0.000 NA
ATOM      6  C   UNL     1      46.589   6.232  11.543  0.00  0.00    +0.000 A 
ENDROOT
BRANCH   1   7
ATOM      7  N   UNL     1      47.821   5.711  13.559  0.00  0.00    +0.000 N 
ATOM      8  H   UNL     1      48.727   5.367  13.247  0.00  0.00    +0.000 HD
BRANCH   7  10
ATOM      9  C   UNL     1      48.071   8.062  14.229  0.00  0.00    +0.000 C 
ATOM     10  C   UNL     1      47.779   6.626  14.689  0.00  0.00    +0.000 C 
BRANCH  10  11
ATOM     11  C   UNL     1      48.636   6.260  15.886  0.00  0.00    +0.000 A 
ATOM     12  C   UNL     1      49.559   7.113  16.470  0.00  0.00    +0.000 A 
ATOM     13  S   UNL     1      50.672   6.285  17.475  0.00  0.00    +0.000 S 
ATOM     14  C   UNL     1      49.865   4.802  17.237  0.00  0.00    +0.000 A 
ATOM     15  N   UNL     1      50.355   3.626  17.706  0.00  0.00    +0.000 NA
ATOM     16  C   UNL     1      49.597   2.605  17.475  0.00  0.00    +0.000 A 
ATOM     17  N   UNL     1      48.366   2.661  16.878  0.00  0.00    +0.000 N 
ATOM     18  C   UNL     1      47.804   3.840  16.423  0.00  0.00    +0.000 A 
ATOM     19  O   UNL     1      46.656   3.896  16.001  0.00  0.00    +0.000 OA
ATOM     20  C   UNL     1      48.695   4.978  16.527  0.00  0.00    +0.000 A 
ATOM     21  H   UNL     1      47.783   1.843  16.816  0.00  0.00    +0.000 HD
ENDBRANCH  10  11
ENDBRANCH   7  10
ENDBRANCH   1   7
BRANCH   4  22
ATOM     22  C   UNL     1      43.975   4.361   9.770  0.00  0.00    +0.000 C 
BRANCH  22  23
ATOM     23  N   UNL     1      44.235   2.941   9.465  0.00  0.00    +0.000 NA
ATOM     24  H   UNL     1      43.497   2.640   8.826  0.00  0.00    +0.000 HD
BRANCH  23  25
ATOM     25  C   UNL     1      45.540   2.695   8.839  0.00  0.00    +0.000 C 
ATOM     26  C   UNL     1      45.714   1.241   8.365  0.00  0.00    +0.000 C 
ATOM     27  C   UNL     1      47.023   1.042   7.611  0.00  0.00    +0.000 C 
ATOM     28  C   UNL     1      47.132   2.001   6.425  0.00  0.00    +0.000 C 
ATOM     29  C   UNL     1      46.974   3.455   6.881  0.00  0.00    +0.000 C 
ATOM     30  C   UNL     1      45.667   3.661   7.646  0.00  0.00    +0.000 C 
BRANCH  28  31
ATOM     31  N   UNL     1      48.415   1.805   5.754  0.00  0.00    +0.000 NA
ATOM     32  H   UNL     1      48.290   1.855   4.744  0.00  0.00    +0.000 HD
ATOM     33  H   UNL     1      48.763   0.869   5.951  0.00  0.00    +0.000 HD
ENDBRANCH  28  31
ENDBRANCH  23  25
ENDBRANCH  22  23
ENDBRANCH   4  22
TORSDOF 7
ENDMDL
MODEL 2
REMARK VINA RESULT:    -8.277      1.800      3.224
REMARK INTER + INTRA:         -12.244
REMARK INTER:                 -11.371
REMARK INTRA:                  -0.874
REMARK UNBOUND:                -0.823
REMARK  Name = 
REMARK  8 active torsions:
REMARK  status: ('A' for Active; 'I' for Inactive)
REMARK    1  A    between atoms: C_1  and  C_2
REMARK    2  A    between atoms: C_2  and  N_3
REMARK    3  A    between atoms: C_2  and  C_19
REMARK    4  A    between atoms: N_3  and  C_4
REMARK    5  A    between atoms: C_7  and  C_8
REMARK    6  A    between atoms: C_8  and  N_9
REMARK    7  A    between atoms: N_9  and  C_10
REMARK    8  A    between atoms: C_13  and  N_14
REMARK                            x       y       z     vdW  Elec       q    Type
REMARK                         _______ _______ _______ _____ _____    ______ ____
ROOT
ATOM      1  C   UNL     1      46.146   4.647  13.573  0.00  0.00    +0.000 A 
ATOM      2  C   UNL     1      46.070   5.682  12.654  0.00  0.00    +0.000 A 
ATOM      3  N   UNL     1      45.599   5.572  11.392  0.00  0.00    +0.000 NA
ATOM      4  C   UNL     1      45.187   4.342  11.029  0.00  0.00    +0.000 A 
ATOM      5  N   UNL     1      45.349   3.233  11.777  0.00  0.00    +0.000 NA
ATOM      6  C   UNL     1      45.839   3.417  13.026  0.00  0.00    +0.000 A 
ENDROOT
BRANCH   1   7
ATOM      7  N   UNL     1      46.384   4.811  14.925  0.00  0.00    +0.000 N 
ATOM      8  H   UNL     1      45.609   4.857  15.584  0.00  0.00    +0.000 HD
BRANCH   7  10
ATOM      9  C   UNL     1      47.767   3.294  16.275  0.00  0.00    +0.000 C 
ATOM     10  C   UNL     1      47.723   4.586  15.446  0.00  0.00    +0.000 C 
BRANCH  10  11
ATOM     11  C   UNL     1      48.352   5.736  16.210  0.00  0.00    +0.000 A 
ATOM     12  C   UNL     1      48.479   5.776  17.590  0.00  0.00    +0.000 A 
ATOM     13  S   UNL     1      48.793   7.355  18.173  0.00  0.00    +0.000 S 
ATOM     14  C   UNL     1      48.883   7.980  16.590  0.00  0.00    +0.000 A 
ATOM     15  N   UNL     1      48.999   9.310  16.341  0.00  0.00    +0.000 NA
ATOM     16  C   UNL     1      49.098   9.608  15.087  0.00  0.00    +0.000 A 
ATOM     17  N   UNL     1      49.155   8.698  14.066  0.00  0.00    +0.000 N 
ATOM     18  C   UNL     1      49.085   7.332  14.271  0.00  0.00    +0.000 A 
ATOM     19  O   UNL     1      49.257   6.525  13.367  0.00  0.00    +0.000 OA
ATOM     20  C   UNL     1      48.819   6.972  15.650  0.00  0.00    +0.000 A 
ATOM     21  H   UNL     1      49.330   8.991  13.120  0.00  0.00    +0.000 HD
ENDBRANCH  10  11
ENDBRANCH   7  10
ENDBRANCH   1   7
BRANCH   4  22
ATOM     22  C   UNL     1      44.301   4.244   9.796  0.00  0.00    +0.000 C 
BRANCH  22  23
ATOM     23  N   UNL     1      44.082   2.896   9.240  0.00  0.00    +0.000 NA
ATOM     24  H   UNL     1      43.104   2.856   8.946  0.00  0.00    +0.000 HD
BRANCH  23  25
ATOM     25  C   UNL     1      44.940   2.576   8.093  0.00  0.00    +0.000 C 
ATOM     26  C   UNL     1      45.769   3.780   7.610  0.00  0.00    +0.000 C 
ATOM     27  C   UNL     1      46.741   3.392   6.501  0.00  0.00    +0.000 C 
ATOM     28  C   UNL     1      47.665   2.258   6.944  0.00  0.00    +0.000 C 
ATOM     29  C   UNL     1      46.856   1.046   7.416  0.00  0.00    +0.000 C 
ATOM     30  C   UNL     1      45.873   1.427   8.522  0.00  0.00    +0.000 C 
BRANCH  28  31
ATOM     31  N   UNL     1      48.552   1.891   5.842  0.00  0.00    +0.000 NA
ATOM     32  H   UNL     1      49.064   1.042   6.077  0.00  0.00    +0.000 HD
ATOM     33  H   UNL     1      49.252   2.618   5.712  0.00  0.00    +0.000 HD
ENDBRANCH  28  31
ENDBRANCH  23  25
ENDBRANCH  22  23
ENDBRANCH   4  22
TORSDOF 7
ENDMDL
MODEL 3
REMARK VINA RESULT:    -8.060      2.702      3.444
REMARK INTER + INTRA:         -11.946
REMARK INTER:                 -11.159
REMARK INTRA:                  -0.787
REMARK UNBOUND:                -0.823
REMARK  Name = 
REMARK  8 active torsions:
REMARK  status: ('A' for Active; 'I' for Inactive)
REMARK    1  A    between atoms: C_1  and  C_2
REMARK    2  A    between atoms: C_2  and  N_3
REMARK    3  A    between atoms: C_2  and  C_19
REMARK    4  A    between atoms: N_3  and  C_4
REMARK    5  A    between atoms: C_7  and  C_8
REMARK    6  A    between atoms: C_8  and  N_9
REMARK    7  A    between atoms: N_9  and  C_10
REMARK    8  A    between atoms: C_13  and  N_14
REMARK                            x       y       z     vdW  Elec       q    Type
REMARK                         _______ _______ _______ _____ _____    ______ ____
ROOT
ATOM      1  C   UNL     1      45.697   5.878  13.111  0.00  0.00    +0.000 A 
ATOM      2  C   UNL     1      45.899   4.537  13.401  0.00  0.00    +0.000 A 
ATOM      3  N   UNL     1      45.291   3.504  12.778  0.00  0.00    +0.000 NA
ATOM      4  C   UNL     1      44.417   3.840  11.809  0.00  0.00    +0.000 A 
ATOM      5  N   UNL     1      44.027   5.101  11.539  0.00  0.00    +0.000 NA
ATOM      6  C   UNL     1      44.670   6.085  12.211  0.00  0.00    +0.000 A 
ENDROOT
BRANCH   1   7
ATOM      7  N   UNL     1      46.497   6.911  13.565  0.00  0.00    +0.000 N 
ATOM      8  H   UNL     1      46.804   6.938  14.535  0.00  0.00    +0.000 HD
BRANCH   7  10
ATOM      9  C   UNL     1      47.878   6.924  11.533  0.00  0.00    +0.000 C 
ATOM     10  C   UNL     1      47.168   7.769  12.601  0.00  0.00    +0.000 C 
BRANCH  10  11
ATOM     11  C   UNL     1      48.107   8.816  13.169  0.00  0.00    +0.000 A 
ATOM     12  C   UNL     1      47.982  10.178  12.940  0.00  0.00    +0.000 A 
ATOM     13  S   UNL     1      49.414  11.039  13.314  0.00  0.00    +0.000 S 
ATOM     14  C   UNL     1      50.174   9.629  13.897  0.00  0.00    +0.000 A 
ATOM     15  N   UNL     1      51.482   9.608  14.261  0.00  0.00    +0.000 NA
ATOM     16  C   UNL     1      51.886   8.469  14.720  0.00  0.00    +0.000 A 
ATOM     17  N   UNL     1      51.090   7.372  14.909  0.00  0.00    +0.000 N 
ATOM     18  C   UNL     1      49.743   7.357  14.595  0.00  0.00    +0.000 A 
ATOM     19  O   UNL     1      49.016   6.413  14.878  0.00  0.00    +0.000 OA
ATOM     20  C   UNL     1      49.294   8.567  13.934  0.00  0.00    +0.000 A 
ATOM     21  H   UNL     1      51.444   6.546  15.362  0.00  0.00    +0.000 HD
ENDBRANCH  10  11
ENDBRANCH   7  10
ENDBRANCH   1   7
BRANCH   4  22
ATOM     22  C   UNL     1      44.016   2.747  10.829  0.00  0.00    +0.000 C 
BRANCH  22  23
ATOM     23  N   UNL     1      44.142   3.063   9.394  0.00  0.00    +0.000 NA
ATOM     24  H   UNL     1      43.966   4.065   9.299  0.00  0.00    +0.000 HD
BRANCH  23  25
ATOM     25  C   UNL     1      45.461   2.752   8.828  0.00  0.00    +0.000 C 
ATOM     26  C   UNL     1      45.592   1.286   8.381  0.00  0.00    +0.000 C 
ATOM     27  C   UNL     1      46.923   1.021   7.685  0.00  0.00    +0.000 C 
ATOM     28  C   UNL     1      47.122   1.956   6.493  0.00  0.00    +0.000 C 
ATOM     29  C   UNL     1      47.008   3.422   6.923  0.00  0.00    +0.000 C 
ATOM     30  C   UNL     1      45.680   3.695   7.629  0.00  0.00    +0.000 C 
BRANCH  28  31
ATOM     31  N   UNL     1      48.423   1.697   5.880  0.00  0.00    +0.000 NA
ATOM     32  H   UNL     1      48.704   0.733   6.056  0.00  0.00    +0.000 HD
ATOM     33  H   UNL     1      49.129   2.283   6.320  0.00  0.00    +0.000 HD
ENDBRANCH  28  31
ENDBRANCH  23  25
ENDBRANCH  22  23
ENDBRANCH   4  22
TORSDOF 7
ENDMDL
MODEL 4
REMARK VINA RESULT:    -7.844      2.332      3.380
REMARK INTER + INTRA:         -11.647
REMARK INTER:                 -11.022
REMARK INTRA:                  -0.625
REMARK UNBOUND:                -0.823
REMARK  Name = 
REMARK  8 active torsions:
REMARK  status: ('A' for Active; 'I' for Inactive)
REMARK    1  A    between atoms: C_1  and  C_2
REMARK    2  A    between atoms: C_2  and  N_3
REMARK    3  A    between atoms: C_2  and  C_19
REMARK    4  A    between atoms: N_3  and  C_4
REMARK    5  A    between atoms: C_7  and  C_8
REMARK    6  A    between atoms: C_8  and  N_9
REMARK    7  A    between atoms: N_9  and  C_10
REMARK    8  A    between atoms: C_13  and  N_14
REMARK                            x       y       z     vdW  Elec       q    Type
REMARK                         _______ _______ _______ _____ _____    ______ ____
ROOT
ATOM      1  C   UNL     1      46.230   5.089  13.409  0.00  0.00    +0.000 A 
ATOM      2  C   UNL     1      45.968   3.811  12.942  0.00  0.00    +0.000 A 
ATOM      3  N   UNL     1      45.225   3.514  11.854  0.00  0.00    +0.000 NA
ATOM      4  C   UNL     1      44.704   4.570  11.198  0.00  0.00    +0.000 A 
ATOM      5  N   UNL     1      44.762   5.842  11.637  0.00  0.00    +0.000 NA
ATOM      6  C   UNL     1      45.514   6.063  12.742  0.00  0.00    +0.000 A 
ENDROOT
BRANCH   1   7
ATOM      7  N   UNL     1      47.187   5.401  14.358  0.00  0.00    +0.000 N 
ATOM      8  H   UNL     1      47.526   4.690  15.002  0.00  0.00    +0.000 HD
BRANCH   7  10
ATOM      9  C   UNL     1      48.868   6.571  13.000  0.00  0.00    +0.000 C 
ATOM     10  C   UNL     1      47.946   6.635  14.226  0.00  0.00    +0.000 C 
BRANCH  10  11
ATOM     11  C   UNL     1      48.715   7.088  15.453  0.00  0.00    +0.000 A 
ATOM     12  C   UNL     1      49.296   6.225  16.369  0.00  0.00    +0.000 A 
ATOM     13  S   UNL     1      49.678   6.999  17.848  0.00  0.00    +0.000 S 
ATOM     14  C   UNL     1      49.185   8.514  17.243  0.00  0.00    +0.000 A 
ATOM     15  N   UNL     1      49.118   9.621  18.028  0.00  0.00    +0.000 NA
ATOM     16  C   UNL     1      48.767  10.695  17.401  0.00  0.00    +0.000 A 
ATOM     17  N   UNL     1      48.540  10.779  16.053  0.00  0.00    +0.000 N 
ATOM     18  C   UNL     1      48.638   9.691  15.205  0.00  0.00    +0.000 A 
ATOM     19  O   UNL     1      48.551   9.799  13.989  0.00  0.00    +0.000 OA
ATOM     20  C   UNL     1      48.878   8.441  15.900  0.00  0.00    +0.000 A 
ATOM     21  H   UNL     1      48.365  11.666  15.611  0.00  0.00    +0.000 HD
ENDBRANCH  10  11
ENDBRANCH   7  10
ENDBRANCH   1   7
BRANCH   4  22
ATOM     22  C   UNL     1      44.209   4.329   9.780  0.00  0.00    +0.000 C 
BRANCH  22  23
ATOM     23  N   UNL     1      44.093   2.923   9.347  0.00  0.00    +0.000 NA
ATOM     24  H   UNL     1      43.111   2.770   9.112  0.00  0.00    +0.000 HD
BRANCH  23  25
ATOM     25  C   UNL     1      44.922   2.587   8.183  0.00  0.00    +0.000 C 
ATOM     26  C   UNL     1      45.749   3.780   7.670  0.00  0.00    +0.000 C 
ATOM     27  C   UNL     1      46.691   3.374   6.542  0.00  0.00    +0.000 C 
ATOM     28  C   UNL     1      47.616   2.236   6.973  0.00  0.00    +0.000 C 
ATOM     29  C   UNL     1      46.809   1.035   7.474  0.00  0.00    +0.000 C 
ATOM     30  C   UNL     1      45.855   1.434   8.600  0.00  0.00    +0.000 C 
BRANCH  28  31
ATOM     31  N   UNL     1      48.474   1.853   5.854  0.00  0.00    +0.000 NA
ATOM     32  H   UNL     1      49.453   1.921   6.127  0.00  0.00    +0.000 HD
ATOM     33  H   UNL     1      48.347   2.510   5.087  0.00  0.00    +0.000 HD
ENDBRANCH  28  31
ENDBRANCH  23  25
ENDBRANCH  22  23
ENDBRANCH   4  22
TORSDOF 7
ENDMDL
MODEL 5
REMARK VINA RESULT:    -7.740      1.770      2.397
REMARK INTER + INTRA:         -11.504
REMARK INTER:                 -10.915
REMARK INTRA:                  -0.589
REMARK UNBOUND:                -0.823
REMARK  Name = 
REMARK  8 active torsions:
REMARK  status: ('A' for Active; 'I' for Inactive)
REMARK    1  A    between atoms: C_1  and  C_2
REMARK    2  A    between atoms: C_2  and  N_3
REMARK    3  A    between atoms: C_2  and  C_19
REMARK    4  A    between atoms: N_3  and  C_4
REMARK    5  A    between atoms: C_7  and  C_8
REMARK    6  A    between atoms: C_8  and  N_9
REMARK    7  A    between atoms: N_9  and  C_10
REMARK    8  A    between atoms: C_13  and  N_14
REMARK                            x       y       z     vdW  Elec       q    Type
REMARK                         _______ _______ _______ _____ _____    ______ ____
ROOT
ATOM      1  C   UNL     1      46.633   5.279  13.306  0.00  0.00    +0.000 A 
ATOM      2  C   UNL     1      46.187   5.811  12.106  0.00  0.00    +0.000 A 
ATOM      3  N   UNL     1      45.457   5.149  11.183  0.00  0.00    +0.000 NA
ATOM      4  C   UNL     1      45.164   3.867  11.479  0.00  0.00    +0.000 A 
ATOM      5  N   UNL     1      45.665   3.198  12.536  0.00  0.00    +0.000 NA
ATOM      6  C   UNL     1      46.399   3.922  13.414  0.00  0.00    +0.000 A 
ENDROOT
BRANCH   1   7
ATOM      7  N   UNL     1      47.153   6.020  14.352  0.00  0.00    +0.000 N 
ATOM      8  H   UNL     1      47.163   5.643  15.297  0.00  0.00    +0.000 HD
BRANCH   7  10
ATOM      9  C   UNL     1      49.104   6.811  13.086  0.00  0.00    +0.000 C 
ATOM     10  C   UNL     1      47.978   7.183  14.061  0.00  0.00    +0.000 C 
BRANCH  10  11
ATOM     11  C   UNL     1      48.528   7.936  15.257  0.00  0.00    +0.000 A 
ATOM     12  C   UNL     1      48.340   9.292  15.474  0.00  0.00    +0.000 A 
ATOM     13  S   UNL     1      49.437   9.930  16.624  0.00  0.00    +0.000 S 
ATOM     14  C   UNL     1      50.093   8.387  16.932  0.00  0.00    +0.000 A 
ATOM     15  N   UNL     1      51.179   8.206  17.728  0.00  0.00    +0.000 NA
ATOM     16  C   UNL     1      51.518   6.970  17.889  0.00  0.00    +0.000 A 
ATOM     17  N   UNL     1      50.836   5.896  17.383  0.00  0.00    +0.000 N 
ATOM     18  C   UNL     1      49.701   6.026  16.603  0.00  0.00    +0.000 A 
ATOM     19  O   UNL     1      49.032   5.061  16.256  0.00  0.00    +0.000 OA
ATOM     20  C   UNL     1      49.384   7.402  16.276  0.00  0.00    +0.000 A 
ATOM     21  H   UNL     1      51.097   4.955  17.626  0.00  0.00    +0.000 HD
ENDBRANCH  10  11
ENDBRANCH   7  10
ENDBRANCH   1   7
BRANCH   4  22
ATOM     22  C   UNL     1      44.040   3.213  10.691  0.00  0.00    +0.000 C 
BRANCH  22  23
ATOM     23  N   UNL     1      44.414   2.092   9.807  0.00  0.00    +0.000 NA
ATOM     24  H   UNL     1      43.611   1.920   9.198  0.00  0.00    +0.000 HD
BRANCH  23  25
ATOM     25  C   UNL     1      45.596   2.354   8.978  0.00  0.00    +0.000 C 
ATOM     26  C   UNL     1      46.100   1.103   8.237  0.00  0.00    +0.000 C 
ATOM     27  C   UNL     1      47.250   1.428   7.290  0.00  0.00    +0.000 C 
ATOM     28  C   UNL     1      46.853   2.511   6.287  0.00  0.00    +0.000 C 
ATOM     29  C   UNL     1      46.361   3.770   7.008  0.00  0.00    +0.000 C 
ATOM     30  C   UNL     1      45.214   3.452   7.967  0.00  0.00    +0.000 C 
BRANCH  28  31
ATOM     31  N   UNL     1      47.992   2.820   5.425  0.00  0.00    +0.000 NA
ATOM     32  H   UNL     1      48.518   3.603   5.813  0.00  0.00    +0.000 HD
ATOM     33  H   UNL     1      47.657   3.127   4.514  0.00  0.00    +0.000 HD
ENDBRANCH  28  31
ENDBRANCH  23  25
ENDBRANCH  22  23
ENDBRANCH   4  22
TORSDOF 7
ENDMDL
MODEL 6
REMARK VINA RESULT:    -7.463      1.654      2.649
REMARK INTER + INTRA:         -11.121
REMARK INTER:                 -10.673
REMARK INTRA:                  -0.448
REMARK UNBOUND:                -0.823
REMARK  Name = 
REMARK  8 active torsions:
REMARK  status: ('A' for Active; 'I' for Inactive)
REMARK    1  A    between atoms: C_1  and  C_2
REMARK    2  A    between atoms: C_2  and  N_3
REMARK    3  A    between atoms: C_2  and  C_19
REMARK    4  A    between atoms: N_3  and  C_4
REMARK    5  A    between atoms: C_7  and  C_8
REMARK    6  A    between atoms: C_8  and  N_9
REMARK    7  A    between atoms: N_9  and  C_10
REMARK    8  A    between atoms: C_13  and  N_14
REMARK                            x       y       z     vdW  Elec       q    Type
REMARK                         _______ _______ _______ _____ _____    ______ ____
ROOT
ATOM      1  C   UNL     1      47.203   5.379  14.267  0.00  0.00    +0.000 A 
ATOM      2  C   UNL     1      47.609   6.252  13.270  0.00  0.00    +0.000 A 
ATOM      3  N   UNL     1      47.085   6.316  12.027  0.00  0.00    +0.000 NA
ATOM      4  C   UNL     1      46.095   5.439  11.767  0.00  0.00    +0.000 A 
ATOM      5  N   UNL     1      45.718   4.449  12.598  0.00  0.00    +0.000 NA
ATOM      6  C   UNL     1      46.295   4.439  13.823  0.00  0.00    +0.000 A 
ENDROOT
BRANCH   1   7
ATOM      7  N   UNL     1      47.558   5.486  15.600  0.00  0.00    +0.000 N 
ATOM      8  H   UNL     1      47.280   6.299  16.145  0.00  0.00    +0.000 HD
BRANCH   7  10
ATOM      9  C   UNL     1      46.851   3.527  16.905  0.00  0.00    +0.000 C 
ATOM     10  C   UNL     1      48.032   4.306  16.308  0.00  0.00    +0.000 C 
BRANCH  10  11
ATOM     11  C   UNL     1      49.110   4.534  17.352  0.00  0.00    +0.000 A 
ATOM     12  C   UNL     1      49.207   5.676  18.131  0.00  0.00    +0.000 A 
ATOM     13  S   UNL     1      50.746   5.839  18.863  0.00  0.00    +0.000 S 
ATOM     14  C   UNL     1      51.258   4.335  18.248  0.00  0.00    +0.000 A 
ATOM     15  N   UNL     1      52.537   3.895  18.378  0.00  0.00    +0.000 NA
ATOM     16  C   UNL     1      52.743   2.715  17.892  0.00  0.00    +0.000 A 
ATOM     17  N   UNL     1      51.779   1.910  17.347  0.00  0.00    +0.000 N 
ATOM     18  C   UNL     1      50.456   2.295  17.232  0.00  0.00    +0.000 A 
ATOM     19  O   UNL     1      49.582   1.525  16.855  0.00  0.00    +0.000 OA
ATOM     20  C   UNL     1      50.221   3.670  17.626  0.00  0.00    +0.000 A 
ATOM     21  H   UNL     1      51.987   0.964  17.076  0.00  0.00    +0.000 HD
ENDBRANCH  10  11
ENDBRANCH   7  10
ENDBRANCH   1   7
BRANCH   4  22
ATOM     22  C   UNL     1      45.219   5.724  10.556  0.00  0.00    +0.000 C 
BRANCH  22  23
ATOM     23  N   UNL     1      44.243   4.683  10.183  0.00  0.00    +0.000 NA
ATOM     24  H   UNL     1      43.376   5.168   9.942  0.00  0.00    +0.000 HD
BRANCH  23  25
ATOM     25  C   UNL     1      44.659   3.854   9.045  0.00  0.00    +0.000 C 
ATOM     26  C   UNL     1      45.846   4.452   8.270  0.00  0.00    +0.000 C 
ATOM     27  C   UNL     1      46.338   3.515   7.172  0.00  0.00    +0.000 C 
ATOM     28  C   UNL     1      46.713   2.145   7.739  0.00  0.00    +0.000 C 
ATOM     29  C   UNL     1      45.538   1.529   8.504  0.00  0.00    +0.000 C 
ATOM     30  C   UNL     1      45.033   2.466   9.600  0.00  0.00    +0.000 C 
BRANCH  28  31
ATOM     31  N   UNL     1      47.141   1.267   6.652  0.00  0.00    +0.000 NA
ATOM     32  H   UNL     1      47.202   1.796   5.782  0.00  0.00    +0.000 HD
ATOM     33  H   UNL     1      46.437   0.548   6.498  0.00  0.00    +0.000 HD
ENDBRANCH  28  31
ENDBRANCH  23  25
ENDBRANCH  22  23
ENDBRANCH   4  22
TORSDOF 7
ENDMDL
MODEL 7
REMARK VINA RESULT:    -7.120      2.908      4.338
REMARK INTER + INTRA:         -10.648
REMARK INTER:                  -9.834
REMARK INTRA:                  -0.814
REMARK UNBOUND:                -0.823
REMARK  Name = 
REMARK  8 active torsions:
REMARK  status: ('A' for Active; 'I' for Inactive)
REMARK    1  A    between atoms: C_1  and  C_2
REMARK    2  A    between atoms: C_2  and  N_3
REMARK    3  A    between atoms: C_2  and  C_19
REMARK    4  A    between atoms: N_3  and  C_4
REMARK    5  A    between atoms: C_7  and  C_8
REMARK    6  A    between atoms: C_8  and  N_9
REMARK    7  A    between atoms: N_9  and  C_10
REMARK    8  A    between atoms: C_13  and  N_14
REMARK                            x       y       z     vdW  Elec       q    Type
REMARK                         _______ _______ _______ _____ _____    ______ ____
ROOT
ATOM      1  C   UNL     1      46.156   6.252  13.270  0.00  0.00    +0.000 A 
ATOM      2  C   UNL     1      46.375   4.891  13.133  0.00  0.00    +0.000 A 
ATOM      3  N   UNL     1      45.604   4.045  12.415  0.00  0.00    +0.000 NA
ATOM      4  C   UNL     1      44.541   4.602  11.802  0.00  0.00    +0.000 A 
ATOM      5  N   UNL     1      44.142   5.877  11.981  0.00  0.00    +0.000 NA
ATOM      6  C   UNL     1      44.956   6.663  12.724  0.00  0.00    +0.000 A 
ENDROOT
BRANCH   1   7
ATOM      7  N   UNL     1      47.074   7.150  13.786  0.00  0.00    +0.000 N 
ATOM      8  H   UNL     1      46.771   7.905  14.396  0.00  0.00    +0.000 HD
BRANCH   7  10
ATOM      9  C   UNL     1      49.057   6.659  15.151  0.00  0.00    +0.000 C 
ATOM     10  C   UNL     1      48.492   6.828  13.733  0.00  0.00    +0.000 C 
BRANCH  10  11
ATOM     11  C   UNL     1      49.365   7.761  12.914  0.00  0.00    +0.000 A 
ATOM     12  C   UNL     1      49.944   7.418  11.702  0.00  0.00    +0.000 A 
ATOM     13  S   UNL     1      51.213   8.479  11.260  0.00  0.00    +0.000 S 
ATOM     14  C   UNL     1      50.927   9.472  12.615  0.00  0.00    +0.000 A 
ATOM     15  N   UNL     1      51.742  10.509  12.939  0.00  0.00    +0.000 NA
ATOM     16  C   UNL     1      51.356  11.185  13.971  0.00  0.00    +0.000 A 
ATOM     17  N   UNL     1      50.200  10.960  14.668  0.00  0.00    +0.000 N 
ATOM     18  C   UNL     1      49.315   9.945  14.351  0.00  0.00    +0.000 A 
ATOM     19  O   UNL     1      48.229   9.828  14.903  0.00  0.00    +0.000 OA
ATOM     20  C   UNL     1      49.796   9.074  13.296  0.00  0.00    +0.000 A 
ATOM     21  H   UNL     1      49.908  11.584  15.402  0.00  0.00    +0.000 HD
ENDBRANCH  10  11
ENDBRANCH   7  10
ENDBRANCH   1   7
BRANCH   4  22
ATOM     22  C   UNL     1      43.887   3.802  10.686  0.00  0.00    +0.000 C 
BRANCH  22  23
ATOM     23  N   UNL     1      43.946   4.381   9.331  0.00  0.00    +0.000 NA
ATOM     24  H   UNL     1      44.421   5.282   9.418  0.00  0.00    +0.000 HD
BRANCH  23  25
ATOM     25  C   UNL     1      44.668   3.552   8.358  0.00  0.00    +0.000 C 
ATOM     26  C   UNL     1      45.863   4.280   7.717  0.00  0.00    +0.000 C 
ATOM     27  C   UNL     1      46.668   3.360   6.807  0.00  0.00    +0.000 C 
ATOM     28  C   UNL     1      47.148   2.118   7.557  0.00  0.00    +0.000 C 
ATOM     29  C   UNL     1      45.969   1.372   8.191  0.00  0.00    +0.000 C 
ATOM     30  C   UNL     1      45.151   2.290   9.099  0.00  0.00    +0.000 C 
BRANCH  28  31
ATOM     31  N   UNL     1      47.879   1.245   6.641  0.00  0.00    +0.000 NA
ATOM     32  H   UNL     1      48.872   1.253   6.873  0.00  0.00    +0.000 HD
ATOM     33  H   UNL     1      47.806   1.609   5.693  0.00  0.00    +0.000 HD
ENDBRANCH  28  31
ENDBRANCH  23  25
ENDBRANCH  22  23
ENDBRANCH   4  22
TORSDOF 7
ENDMDL
MODEL 8
REMARK VINA RESULT:    -7.037      3.729      5.759
REMARK INTER + INTRA:         -10.533
REMARK INTER:                  -9.119
REMARK INTRA:                  -1.414
REMARK UNBOUND:                -0.823
REMARK  Name = 
REMARK  8 active torsions:
REMARK  status: ('A' for Active; 'I' for Inactive)
REMARK    1  A    between atoms: C_1  and  C_2
REMARK    2  A    between atoms: C_2  and  N_3
REMARK    3  A    between atoms: C_2  and  C_19
REMARK    4  A    between atoms: N_3  and  C_4
REMARK    5  A    between atoms: C_7  and  C_8
REMARK    6  A    between atoms: C_8  and  N_9
REMARK    7  A    between atoms: N_9  and  C_10
REMARK    8  A    between atoms: C_13  and  N_14
REMARK                            x       y       z     vdW  Elec       q    Type
REMARK                         _______ _______ _______ _____ _____    ______ ____
ROOT
ATOM      1  C   UNL     1      48.410   3.582  18.228  0.00  0.00    +0.000 A 
ATOM      2  C   UNL     1      49.042   2.841  17.242  0.00  0.00    +0.000 A 
ATOM      3  N   UNL     1      48.629   2.734  15.960  0.00  0.00    +0.000 NA
ATOM      4  C   UNL     1      47.503   3.407  15.652  0.00  0.00    +0.000 A 
ATOM      5  N   UNL     1      46.722   4.035  16.553  0.00  0.00    +0.000 NA
ATOM      6  C   UNL     1      47.193   4.092  17.821  0.00  0.00    +0.000 A 
ENDROOT
BRANCH   1   7
ATOM      7  N   UNL     1      48.965   3.896  19.455  0.00  0.00    +0.000 N 
ATOM      8  H   UNL     1      48.825   3.284  20.257  0.00  0.00    +0.000 HD
BRANCH   7  10
ATOM      9  C   UNL     1      50.665   4.900  20.918  0.00  0.00    +0.000 C 
ATOM     10  C   UNL     1      50.010   4.905  19.529  0.00  0.00    +0.000 C 
BRANCH  10  11
ATOM     11  C   UNL     1      49.618   6.313  19.123  0.00  0.00    +0.000 A 
ATOM     12  C   UNL     1      49.129   7.267  20.003  0.00  0.00    +0.000 A 
ATOM     13  S   UNL     1      48.359   8.567  19.197  0.00  0.00    +0.000 S 
ATOM     14  C   UNL     1      48.772   7.935  17.669  0.00  0.00    +0.000 A 
ATOM     15  N   UNL     1      48.314   8.477  16.511  0.00  0.00    +0.000 NA
ATOM     16  C   UNL     1      48.758   7.901  15.443  0.00  0.00    +0.000 A 
ATOM     17  N   UNL     1      49.667   6.878  15.424  0.00  0.00    +0.000 N 
ATOM     18  C   UNL     1      50.197   6.320  16.573  0.00  0.00    +0.000 A 
ATOM     19  O   UNL     1      51.096   5.490  16.543  0.00  0.00    +0.000 OA
ATOM     20  C   UNL     1      49.602   6.839  17.789  0.00  0.00    +0.000 A 
ATOM     21  H   UNL     1      50.047   6.538  14.556  0.00  0.00    +0.000 HD
ENDBRANCH  10  11
ENDBRANCH   7  10
ENDBRANCH   1   7
BRANCH   4  22
ATOM     22  C   UNL     1      47.220   3.645  14.177  0.00  0.00    +0.000 C 
BRANCH  22  23
ATOM     23  N   UNL     1      47.481   5.002  13.661  0.00  0.00    +0.000 NA
ATOM     24  H   UNL     1      48.089   4.893  12.847  0.00  0.00    +0.000 HD
BRANCH  23  25
ATOM     25  C   UNL     1      46.271   5.731  13.260  0.00  0.00    +0.000 C 
ATOM     26  C   UNL     1      46.388   6.369  11.865  0.00  0.00    +0.000 C 
ATOM     27  C   UNL     1      45.079   7.013  11.423  0.00  0.00    +0.000 C 
ATOM     28  C   UNL     1      43.929   6.006  11.448  0.00  0.00    +0.000 C 
ATOM     29  C   UNL     1      43.789   5.370  12.835  0.00  0.00    +0.000 C 
ATOM     30  C   UNL     1      45.100   4.730  13.290  0.00  0.00    +0.000 C 
BRANCH  28  31
ATOM     31  N   UNL     1      42.688   6.671  11.057  0.00  0.00    +0.000 NA
ATOM     32  H   UNL     1      42.677   6.819  10.048  0.00  0.00    +0.000 HD
ATOM     33  H   UNL     1      42.650   7.596  11.479  0.00  0.00    +0.000 HD
ENDBRANCH  28  31
ENDBRANCH  23  25
ENDBRANCH  22  23
ENDBRANCH   4  22
TORSDOF 7
ENDMDL
MODEL 9
REMARK VINA RESULT:    -6.884      2.808      4.172
REMARK INTER + INTRA:         -10.322
REMARK INTER:                  -9.319
REMARK INTRA:                  -1.003
REMARK UNBOUND:                -0.823
REMARK  Name = 
REMARK  8 active torsions:
REMARK  status: ('A' for Active; 'I' for Inactive)
REMARK    1  A    between atoms: C_1  and  C_2
REMARK    2  A    between atoms: C_2  and  N_3
REMARK    3  A    between atoms: C_2  and  C_19
REMARK    4  A    between atoms: N_3  and  C_4
REMARK    5  A    between atoms: C_7  and  C_8
REMARK    6  A    between atoms: C_8  and  N_9
REMARK    7  A    between atoms: N_9  and  C_10
REMARK    8  A    between atoms: C_13  and  N_14
REMARK                            x       y       z     vdW  Elec       q    Type
REMARK                         _______ _______ _______ _____ _____    ______ ____
ROOT
ATOM      1  C   UNL     1      48.896   8.043  15.184  0.00  0.00    +0.000 A 
ATOM      2  C   UNL     1      47.876   8.780  14.603  0.00  0.00    +0.000 A 
ATOM      3  N   UNL     1      47.292   8.503  13.417  0.00  0.00    +0.000 NA
ATOM      4  C   UNL     1      47.769   7.421  12.770  0.00  0.00    +0.000 A 
ATOM      5  N   UNL     1      48.850   6.718  13.160  0.00  0.00    +0.000 NA
ATOM      6  C   UNL     1      49.393   7.060  14.352  0.00  0.00    +0.000 A 
ENDROOT
BRANCH   1   7
ATOM      7  N   UNL     1      49.313   8.175  16.497  0.00  0.00    +0.000 N 
ATOM      8  H   UNL     1      49.782   9.023  16.807  0.00  0.00    +0.000 HD
BRANCH   7  10
ATOM      9  C   UNL     1      48.560   8.001  18.829  0.00  0.00    +0.000 C 
ATOM     10  C   UNL     1      48.795   7.262  17.504  0.00  0.00    +0.000 C 
BRANCH  10  11
ATOM     11  C   UNL     1      49.589   5.989  17.733  0.00  0.00    +0.000 A 
ATOM     12  C   UNL     1      50.936   5.962  18.058  0.00  0.00    +0.000 A 
ATOM     13  S   UNL     1      51.641   4.422  17.801  0.00  0.00    +0.000 S 
ATOM     14  C   UNL     1      50.137   3.747  17.368  0.00  0.00    +0.000 A 
ATOM     15  N   UNL     1      50.020   2.479  16.895  0.00  0.00    +0.000 NA
ATOM     16  C   UNL     1      48.804   2.112  16.656  0.00  0.00    +0.000 A 
ATOM     17  N   UNL     1      47.692   2.870  16.907  0.00  0.00    +0.000 N 
ATOM     18  C   UNL     1      47.756   4.149  17.428  0.00  0.00    +0.000 A 
ATOM     19  O   UNL     1      46.755   4.771  17.759  0.00  0.00    +0.000 OA
ATOM     20  C   UNL     1      49.110   4.648  17.562  0.00  0.00    +0.000 A 
ATOM     21  H   UNL     1      46.768   2.489  16.789  0.00  0.00    +0.000 HD
ENDBRANCH  10  11
ENDBRANCH   7  10
ENDBRANCH   1   7
BRANCH   4  22
ATOM     22  C   UNL     1      46.906   6.842  11.659  0.00  0.00    +0.000 C 
BRANCH  22  23
ATOM     23  N   UNL     1      45.490   7.256  11.633  0.00  0.00    +0.000 NA
ATOM     24  H   UNL     1      45.383   7.881  10.832  0.00  0.00    +0.000 HD
BRANCH  23  25
ATOM     25  C   UNL     1      44.545   6.141  11.502  0.00  0.00    +0.000 C 
ATOM     26  C   UNL     1      44.987   5.098  10.460  0.00  0.00    +0.000 C 
ATOM     27  C   UNL     1      44.054   3.892  10.432  0.00  0.00    +0.000 C 
ATOM     28  C   UNL     1      43.941   3.246  11.812  0.00  0.00    +0.000 C 
ATOM     29  C   UNL     1      43.489   4.267  12.860  0.00  0.00    +0.000 C 
ATOM     30  C   UNL     1      44.413   5.484  12.889  0.00  0.00    +0.000 C 
BRANCH  28  31
ATOM     31  N   UNL     1      43.010   2.121  11.750  0.00  0.00    +0.000 NA
ATOM     32  H   UNL     1      43.404   1.375  11.178  0.00  0.00    +0.000 HD
ATOM     33  H   UNL     1      42.154   2.414  11.284  0.00  0.00    +0.000 HD
ENDBRANCH  28  31
ENDBRANCH  23  25
ENDBRANCH  22  23
ENDBRANCH   4  22
TORSDOF 7
ENDMDL
