MODEL 1
REMARK VINA RESULT:    -7.881      0.000      0.000
REMARK INTER + INTRA:         -12.096
REMARK INTER:                 -11.106
REMARK INTRA:                  -0.990
REMARK UNBOUND:                -0.990
REMARK  Name = 
REMARK  7 active torsions:
REMARK  status: ('A' for Active; 'I' for Inactive)
REMARK    1  A    between atoms: C_2  and  C_20
REMARK    2  A    between atoms: N_3  and  C_4
REMARK    3  A    between atoms: C_4  and  C_5
REMARK    4  A    between atoms: C_9  and  C_10
REMARK    5  A    between atoms: C_10  and  N_11
REMARK    6  A    between atoms: N_11  and  C_12
REMARK    7  A    between atoms: C_12  and  C_13
REMARK                            x       y       z     vdW  Elec       q    Type
REMARK                         _______ _______ _______ _____ _____    ______ ____
ROOT
ATOM      1  C   UNL     1      45.394   6.891  12.302  0.00  0.00    +0.000 A 
ATOM      2  C   UNL     1      44.477   7.484  11.434  0.00  0.00    +0.000 A 
ATOM      3  C   UNL     1      43.381   6.750  11.027  0.00  0.00    +0.000 A 
ATOM      4  N   UNL     1      43.137   5.487  11.428  0.00  0.00    +0.000 NA
ATOM      5  C   UNL     1      44.018   4.908  12.283  0.00  0.00    +0.000 A 
ATOM      6  C   UNL     1      45.142   5.588  12.754  0.00  0.00    +0.000 A 
ENDROOT
BRANCH   1   7
ATOM      7  C   UNL     1      46.613   7.647  12.752  0.00  0.00    +0.000 C 
BRANCH   7  10
ATOM      8  O   UNL     1      49.184   6.603  13.268  0.00  0.00    +0.000 OA
ATOM      9  C   UNL     1      48.388   6.716  14.193  0.00  0.00    +0.000 C 
ATOM     10  N   UNL     1      47.103   7.167  14.016  0.00  0.00    +0.000 N 
ATOM     11  H   UNL     1      46.552   7.412  14.829  0.00  0.00    +0.000 HD
BRANCH   9  12
ATOM     12  C   UNL     1      48.729   6.304  15.559  0.00  0.00    +0.000 A 
ATOM     13  C   UNL     1      49.611   7.065  16.317  0.00  0.00    +0.000 A 
ATOM     14  S   UNL     1      49.922   6.409  17.862  0.00  0.00    +0.000 S 
ATOM     15  C   UNL     1      48.851   5.114  17.589  0.00  0.00    +0.000 A 
ATOM     16  N   UNL     1      48.634   4.168  18.543  0.00  0.00    +0.000 NA
ATOM     17  C   UNL     1      47.763   3.272  18.215  0.00  0.00    +0.000 A 
ATOM     18  N   UNL     1      47.094   3.232  17.021  0.00  0.00    +0.000 N 
ATOM     19  C   UNL     1      47.335   4.116  16.001  0.00  0.00    +0.000 A 
ATOM     20  O   UNL     1      46.822   3.972  14.898  0.00  0.00    +0.000 OA
ATOM     21  C   UNL     1      48.278   5.172  16.331  0.00  0.00    +0.000 A 
ATOM     22  H   UNL     1      46.444   2.488  16.815  0.00  0.00    +0.000 HD
ENDBRANCH   9  12
ENDBRANCH   7  10
ENDBRANCH   1   7
BRANCH   5  23
ATOM     23  C   UNL     1      43.735   3.479  12.741  0.00  0.00    +0.000 C 
BRANCH  23  24
ATOM     24  N   UNL     1      43.846   2.524  11.635  0.00  0.00    +0.000 NA
ATOM     25  H   UNL     1      42.933   2.482  11.183  0.00  0.00    +0.000 HD
BRANCH  24  26
ATOM     26  C   UNL     1      44.875   2.869  10.663  0.00  0.00    +0.000 C 
BRANCH  26  27
ATOM     27  C   UNL     1      44.333   2.732   9.219  0.00  0.00    +0.000 C 
ATOM     28  C   UNL     1      44.965   1.525   8.504  0.00  0.00    +0.000 C 
ATOM     29  C   UNL     1      46.422   1.793   8.121  0.00  0.00    +0.000 C 
ATOM     30  C   UNL     1      46.584   3.124   7.387  0.00  0.00    +0.000 C 
ATOM     31  N   UNL     1      45.981   4.235   8.123  0.00  0.00    +0.000 NA
ATOM     32  C   UNL     1      44.554   3.985   8.352  0.00  0.00    +0.000 C 
ATOM     33  H   UNL     1      46.084   5.094   7.582  0.00  0.00    +0.000 HD
ENDBRANCH  26  27
ENDBRANCH  24  26
ENDBRANCH  23  24
ENDBRANCH   5  23
TORSDOF 7
ENDMDL
MODEL 2
REMARK VINA RESULT:    -7.757      1.244      1.781
REMARK INTER + INTRA:         -11.921
REMARK INTER:                 -10.797
REMARK INTRA:                  -1.124
REMARK UNBOUND:                -0.990
REMARK  Name = 
REMARK  7 active torsions:
REMARK  status: ('A' for Active; 'I' for Inactive)
REMARK    1  A    between atoms: C_2  and  C_20
REMARK    2  A    between atoms: N_3  and  C_4
REMARK    3  A    between atoms: C_4  and  C_5
REMARK    4  A    between atoms: C_9  and  C_10
REMARK    5  A    between atoms: C_10  and  N_11
REMARK    6  A    between atoms: N_11  and  C_12
REMARK    7  A    between atoms: C_12  and  C_13
REMARK                            x       y       z     vdW  Elec       q    Type
REMARK                         _______ _______ _______ _____ _____    ______ ____
ROOT
ATOM      1  C   UNL     1      45.299   6.406  11.746  0.00  0.00    +0.000 A 
ATOM      2  C   UNL     1      43.956   6.784  11.755  0.00  0.00    +0.000 A 
ATOM      3  C   UNL     1      43.013   5.885  11.299  0.00  0.00    +0.000 A 
ATOM      4  N   UNL     1      43.313   4.650  10.851  0.00  0.00    +0.000 NA
ATOM      5  C   UNL     1      44.617   4.271  10.852  0.00  0.00    +0.000 A 
ATOM      6  C   UNL     1      45.628   5.115  11.311  0.00  0.00    +0.000 A 
ENDROOT
BRANCH   1   7
ATOM      7  C   UNL     1      46.360   7.364  12.212  0.00  0.00    +0.000 C 
BRANCH   7  10
ATOM      8  O   UNL     1      48.695   5.964  12.958  0.00  0.00    +0.000 OA
ATOM      9  C   UNL     1      47.968   6.423  13.832  0.00  0.00    +0.000 C 
ATOM     10  N   UNL     1      46.791   7.072  13.553  0.00  0.00    +0.000 N 
ATOM     11  H   UNL     1      46.327   7.587  14.291  0.00  0.00    +0.000 HD
BRANCH   9  12
ATOM     12  C   UNL     1      48.270   6.249  15.257  0.00  0.00    +0.000 A 
ATOM     13  C   UNL     1      48.808   7.298  15.990  0.00  0.00    +0.000 A 
ATOM     14  S   UNL     1      49.134   6.897  17.617  0.00  0.00    +0.000 S 
ATOM     15  C   UNL     1      48.521   5.323  17.409  0.00  0.00    +0.000 A 
ATOM     16  N   UNL     1      48.490   4.439  18.442  0.00  0.00    +0.000 NA
ATOM     17  C   UNL     1      47.957   3.298  18.151  0.00  0.00    +0.000 A 
ATOM     18  N   UNL     1      47.456   2.960  16.922  0.00  0.00    +0.000 N 
ATOM     19  C   UNL     1      47.534   3.788  15.832  0.00  0.00    +0.000 A 
ATOM     20  O   UNL     1      47.203   3.406  14.717  0.00  0.00    +0.000 OA
ATOM     21  C   UNL     1      48.090   5.101  16.113  0.00  0.00    +0.000 A 
ATOM     22  H   UNL     1      47.075   2.041  16.752  0.00  0.00    +0.000 HD
ENDBRANCH   9  12
ENDBRANCH   7  10
ENDBRANCH   1   7
BRANCH   5  23
ATOM     23  C   UNL     1      44.953   2.868  10.350  0.00  0.00    +0.000 C 
BRANCH  23  24
ATOM     24  N   UNL     1      44.090   2.472   9.234  0.00  0.00    +0.000 NA
ATOM     25  H   UNL     1      43.300   3.116   9.223  0.00  0.00    +0.000 HD
BRANCH  24  26
ATOM     26  C   UNL     1      44.763   2.476   7.941  0.00  0.00    +0.000 C 
BRANCH  26  27
ATOM     27  C   UNL     1      46.294   2.622   8.120  0.00  0.00    +0.000 C 
ATOM     28  C   UNL     1      46.834   3.810   7.306  0.00  0.00    +0.000 C 
ATOM     29  C   UNL     1      46.859   3.506   5.808  0.00  0.00    +0.000 C 
ATOM     30  C   UNL     1      47.537   2.169   5.507  0.00  0.00    +0.000 C 
ATOM     31  N   UNL     1      46.969   1.075   6.296  0.00  0.00    +0.000 NA
ATOM     32  C   UNL     1      47.086   1.361   7.729  0.00  0.00    +0.000 C 
ATOM     33  H   UNL     1      47.472   0.213   6.088  0.00  0.00    +0.000 HD
ENDBRANCH  26  27
ENDBRANCH  24  26
ENDBRANCH  23  24
ENDBRANCH   5  23
TORSDOF 7
ENDMDL
MODEL 3
REMARK VINA RESULT:    -7.631      2.361      3.278
REMARK INTER + INTRA:         -11.743
REMARK INTER:                 -10.868
REMARK INTRA:                  -0.875
REMARK UNBOUND:                -0.990
REMARK  Name = 
REMARK  7 active torsions:
REMARK  status: ('A' for Active; 'I' for Inactive)
REMARK    1  A    between atoms: C_2  and  C_20
REMARK    2  A    between atoms: N_3  and  C_4
REMARK    3  A    between atoms: C_4  and  C_5
REMARK    4  A    between atoms: C_9  and  C_10
REMARK    5  A    between atoms: C_10  and  N_11
REMARK    6  A    between atoms: N_11  and  C_12
REMARK    7  A    between atoms: C_12  and  C_13
REMARK                            x       y       z     vdW  Elec       q    Type
REMARK                         _______ _______ _______ _____ _____    ______ ____
ROOT
ATOM      1  C   UNL     1      46.851   5.176  14.039  0.00  0.00    +0.000 A 
ATOM      2  C   UNL     1      47.880   6.100  13.857  0.00  0.00    +0.000 A 
ATOM      3  C   UNL     1      47.939   6.799  12.668  0.00  0.00    +0.000 A 
ATOM      4  N   UNL     1      47.049   6.647  11.668  0.00  0.00    +0.000 NA
ATOM      5  C   UNL     1      46.037   5.760  11.843  0.00  0.00    +0.000 A 
ATOM      6  C   UNL     1      45.898   5.026  13.021  0.00  0.00    +0.000 A 
ENDROOT
BRANCH   1   7
ATOM      7  C   UNL     1      46.764   4.377  15.310  0.00  0.00    +0.000 C 
BRANCH   7  10
ATOM      8  O   UNL     1      47.297   4.835  18.043  0.00  0.00    +0.000 OA
ATOM      9  C   UNL     1      48.207   4.465  17.311  0.00  0.00    +0.000 C 
ATOM     10  N   UNL     1      48.041   4.269  15.962  0.00  0.00    +0.000 N 
ATOM     11  H   UNL     1      48.768   3.793  15.441  0.00  0.00    +0.000 HD
BRANCH   9  12
ATOM     12  C   UNL     1      49.572   4.272  17.813  0.00  0.00    +0.000 A 
ATOM     13  C   UNL     1      50.166   5.242  18.610  0.00  0.00    +0.000 A 
ATOM     14  S   UNL     1      51.769   4.865  19.062  0.00  0.00    +0.000 S 
ATOM     15  C   UNL     1      51.705   3.370  18.250  0.00  0.00    +0.000 A 
ATOM     16  N   UNL     1      52.769   2.523  18.253  0.00  0.00    +0.000 NA
ATOM     17  C   UNL     1      52.562   1.407  17.636  0.00  0.00    +0.000 A 
ATOM     18  N   UNL     1      51.392   1.064  17.012  0.00  0.00    +0.000 N 
ATOM     19  C   UNL     1      50.321   1.914  16.915  0.00  0.00    +0.000 A 
ATOM     20  O   UNL     1      49.343   1.632  16.234  0.00  0.00    +0.000 OA
ATOM     21  C   UNL     1      50.485   3.170  17.628  0.00  0.00    +0.000 A 
ATOM     22  H   UNL     1      51.304   0.185  16.523  0.00  0.00    +0.000 HD
ENDBRANCH   9  12
ENDBRANCH   7  10
ENDBRANCH   1   7
BRANCH   5  23
ATOM     23  C   UNL     1      45.027   5.595  10.710  0.00  0.00    +0.000 C 
BRANCH  23  24
ATOM     24  N   UNL     1      44.388   4.277  10.742  0.00  0.00    +0.000 NA
ATOM     25  H   UNL     1      43.522   4.351  10.209  0.00  0.00    +0.000 HD
BRANCH  24  26
ATOM     26  C   UNL     1      45.221   3.208  10.207  0.00  0.00    +0.000 C 
BRANCH  26  27
ATOM     27  C   UNL     1      44.621   2.652   8.892  0.00  0.00    +0.000 C 
ATOM     28  C   UNL     1      45.334   1.358   8.464  0.00  0.00    +0.000 C 
ATOM     29  C   UNL     1      46.734   1.637   7.915  0.00  0.00    +0.000 C 
ATOM     30  C   UNL     1      46.723   2.737   6.854  0.00  0.00    +0.000 C 
ATOM     31  N   UNL     1      46.050   3.948   7.326  0.00  0.00    +0.000 NA
ATOM     32  C   UNL     1      44.670   3.648   7.719  0.00  0.00    +0.000 C 
ATOM     33  H   UNL     1      46.038   4.640   6.576  0.00  0.00    +0.000 HD
ENDBRANCH  26  27
ENDBRANCH  24  26
ENDBRANCH  23  24
ENDBRANCH   5  23
TORSDOF 7
ENDMDL
MODEL 4
REMARK VINA RESULT:    -7.465      1.629      2.000
REMARK INTER + INTRA:         -11.510
REMARK INTER:                 -10.695
REMARK INTRA:                  -0.815
REMARK UNBOUND:                -0.990
REMARK  Name = 
REMARK  7 active torsions:
REMARK  status: ('A' for Active; 'I' for Inactive)
REMARK    1  A    between atoms: C_2  and  C_20
REMARK    2  A    between atoms: N_3  and  C_4
REMARK    3  A    between atoms: C_4  and  C_5
REMARK    4  A    between atoms: C_9  and  C_10
REMARK    5  A    between atoms: C_10  and  N_11
REMARK    6  A    between atoms: N_11  and  C_12
REMARK    7  A    between atoms: C_12  and  C_13
REMARK                            x       y       z     vdW  Elec       q    Type
REMARK                         _______ _______ _______ _____ _____    ______ ____
ROOT
ATOM      1  C   UNL     1      46.816   6.359  13.151  0.00  0.00    +0.000 A 
ATOM      2  C   UNL     1      46.377   7.439  12.384  0.00  0.00    +0.000 A 
ATOM      3  C   UNL     1      45.116   7.384  11.825  0.00  0.00    +0.000 A 
ATOM      4  N   UNL     1      44.273   6.345  11.985  0.00  0.00    +0.000 NA
ATOM      5  C   UNL     1      44.687   5.298  12.742  0.00  0.00    +0.000 A 
ATOM      6  C   UNL     1      45.941   5.283  13.354  0.00  0.00    +0.000 A 
ENDROOT
BRANCH   1   7
ATOM      7  C   UNL     1      48.191   6.369  13.758  0.00  0.00    +0.000 C 
BRANCH   7  10
ATOM      8  O   UNL     1      49.733   8.034  15.436  0.00  0.00    +0.000 OA
ATOM      9  C   UNL     1      48.895   7.294  15.937  0.00  0.00    +0.000 C 
ATOM     10  N   UNL     1      48.140   6.418  15.195  0.00  0.00    +0.000 N 
ATOM     11  H   UNL     1      47.343   5.968  15.627  0.00  0.00    +0.000 HD
BRANCH   9  12
ATOM     12  C   UNL     1      48.684   7.236  17.387  0.00  0.00    +0.000 A 
ATOM     13  C   UNL     1      48.283   8.371  18.080  0.00  0.00    +0.000 A 
ATOM     14  S   UNL     1      48.131   8.125  19.762  0.00  0.00    +0.000 S 
ATOM     15  C   UNL     1      48.547   6.481  19.616  0.00  0.00    +0.000 A 
ATOM     16  N   UNL     1      48.592   5.668  20.705  0.00  0.00    +0.000 NA
ATOM     17  C   UNL     1      48.878   4.436  20.438  0.00  0.00    +0.000 A 
ATOM     18  N   UNL     1      49.126   3.946  19.183  0.00  0.00    +0.000 N 
ATOM     19  C   UNL     1      49.169   4.740  18.066  0.00  0.00    +0.000 A 
ATOM     20  O   UNL     1      49.528   4.297  16.983  0.00  0.00    +0.000 OA
ATOM     21  C   UNL     1      48.815   6.129  18.304  0.00  0.00    +0.000 A 
ATOM     22  H   UNL     1      49.370   2.976  19.045  0.00  0.00    +0.000 HD
ENDBRANCH   9  12
ENDBRANCH   7  10
ENDBRANCH   1   7
BRANCH   5  23
ATOM     23  C   UNL     1      43.727   4.125  12.927  0.00  0.00    +0.000 C 
BRANCH  23  24
ATOM     24  N   UNL     1      44.302   2.871  12.431  0.00  0.00    +0.000 NA
ATOM     25  H   UNL     1      43.524   2.235  12.257  0.00  0.00    +0.000 HD
BRANCH  24  26
ATOM     26  C   UNL     1      45.105   3.030  11.226  0.00  0.00    +0.000 C 
BRANCH  26  27
ATOM     27  C   UNL     1      44.216   2.952   9.961  0.00  0.00    +0.000 C 
ATOM     28  C   UNL     1      44.730   1.875   8.990  0.00  0.00    +0.000 C 
ATOM     29  C   UNL     1      46.010   2.316   8.280  0.00  0.00    +0.000 C 
ATOM     30  C   UNL     1      45.873   3.710   7.668  0.00  0.00    +0.000 C 
ATOM     31  N   UNL     1      45.400   4.694   8.642  0.00  0.00    +0.000 NA
ATOM     32  C   UNL     1      44.107   4.285   9.198  0.00  0.00    +0.000 C 
ATOM     33  H   UNL     1      45.292   5.599   8.182  0.00  0.00    +0.000 HD
ENDBRANCH  26  27
ENDBRANCH  24  26
ENDBRANCH  23  24
ENDBRANCH   5  23
TORSDOF 7
ENDMDL
MODEL 5
REMARK VINA RESULT:    -7.336      2.849      7.677
REMARK INTER + INTRA:         -11.328
REMARK INTER:                  -9.951
REMARK INTRA:                  -1.377
REMARK UNBOUND:                -0.990
REMARK  Name = 
REMARK  7 active torsions:
REMARK  status: ('A' for Active; 'I' for Inactive)
REMARK    1  A    between atoms: C_2  and  C_20
REMARK    2  A    between atoms: N_3  and  C_4
REMARK    3  A    between atoms: C_4  and  C_5
REMARK    4  A    between atoms: C_9  and  C_10
REMARK    5  A    between atoms: C_10  and  N_11
REMARK    6  A    between atoms: N_11  and  C_12
REMARK    7  A    between atoms: C_12  and  C_13
REMARK                            x       y       z     vdW  Elec       q    Type
REMARK                         _______ _______ _______ _____ _____    ______ ____
ROOT
ATOM      1  C   UNL     1      47.947   8.115  12.605  0.00  0.00    +0.000 A 
ATOM      2  C   UNL     1      49.009   8.726  11.937  0.00  0.00    +0.000 A 
ATOM      3  C   UNL     1      50.260   8.699  12.519  0.00  0.00    +0.000 A 
ATOM      4  N   UNL     1      50.522   8.105  13.700  0.00  0.00    +0.000 NA
ATOM      5  C   UNL     1      49.497   7.497  14.349  0.00  0.00    +0.000 A 
ATOM      6  C   UNL     1      48.206   7.466  13.820  0.00  0.00    +0.000 A 
ENDROOT
BRANCH   1   7
ATOM      7  C   UNL     1      46.564   8.142  12.016  0.00  0.00    +0.000 C 
BRANCH   7  10
ATOM      8  O   UNL     1      43.910   7.460  11.338  0.00  0.00    +0.000 OA
ATOM      9  C   UNL     1      44.751   6.573  11.427  0.00  0.00    +0.000 C 
ATOM     10  N   UNL     1      46.050   6.816  11.800  0.00  0.00    +0.000 N 
ATOM     11  H   UNL     1      46.741   6.085  11.681  0.00  0.00    +0.000 HD
BRANCH   9  12
ATOM     12  C   UNL     1      44.411   5.163  11.208  0.00  0.00    +0.000 A 
ATOM     13  C   UNL     1      43.596   4.493  12.111  0.00  0.00    +0.000 A 
ATOM     14  S   UNL     1      43.346   2.851  11.716  0.00  0.00    +0.000 S 
ATOM     15  C   UNL     1      44.278   2.992  10.299  0.00  0.00    +0.000 A 
ATOM     16  N   UNL     1      44.460   1.931   9.468  0.00  0.00    +0.000 NA
ATOM     17  C   UNL     1      45.151   2.196   8.409  0.00  0.00    +0.000 A 
ATOM     18  N   UNL     1      45.679   3.423   8.107  0.00  0.00    +0.000 N 
ATOM     19  C   UNL     1      45.589   4.502   8.949  0.00  0.00    +0.000 A 
ATOM     20  O   UNL     1      46.188   5.544   8.715  0.00  0.00    +0.000 OA
ATOM     21  C   UNL     1      44.787   4.269  10.138  0.00  0.00    +0.000 A 
ATOM     22  H   UNL     1      46.233   3.558   7.274  0.00  0.00    +0.000 HD
ENDBRANCH   9  12
ENDBRANCH   7  10
ENDBRANCH   1   7
BRANCH   5  23
ATOM     23  C   UNL     1      49.797   6.819  15.684  0.00  0.00    +0.000 C 
BRANCH  23  24
ATOM     24  N   UNL     1      48.572   6.539  16.437  0.00  0.00    +0.000 NA
ATOM     25  H   UNL     1      47.987   5.947  15.848  0.00  0.00    +0.000 HD
BRANCH  24  26
ATOM     26  C   UNL     1      48.807   5.896  17.723  0.00  0.00    +0.000 C 
BRANCH  26  27
ATOM     27  C   UNL     1      47.791   4.751  17.956  0.00  0.00    +0.000 C 
ATOM     28  C   UNL     1      48.446   3.575  18.701  0.00  0.00    +0.000 C 
ATOM     29  C   UNL     1      49.394   2.788  17.795  0.00  0.00    +0.000 C 
ATOM     30  C   UNL     1      48.736   2.412  16.468  0.00  0.00    +0.000 C 
ATOM     31  N   UNL     1      48.149   3.573  15.798  0.00  0.00    +0.000 NA
ATOM     32  C   UNL     1      47.153   4.215  16.662  0.00  0.00    +0.000 C 
ATOM     33  H   UNL     1      47.694   3.270  14.936  0.00  0.00    +0.000 HD
ENDBRANCH  26  27
ENDBRANCH  24  26
ENDBRANCH  23  24
ENDBRANCH   5  23
TORSDOF 7
ENDMDL
MODEL 6
REMARK VINA RESULT:    -7.179      3.061      8.304
REMARK INTER + INTRA:         -11.107
REMARK INTER:                  -9.100
REMARK INTRA:                  -2.007
REMARK UNBOUND:                -0.990
REMARK  Name = 
REMARK  7 active torsions:
REMARK  status: ('A' for Active; 'I' for Inactive)
REMARK    1  A    between atoms: C_2  and  C_20
REMARK    2  A    between atoms: N_3  and  C_4
REMARK    3  A    between atoms: C_4  and  C_5
REMARK    4  A    between atoms: C_9  and  C_10
REMARK    5  A    between atoms: C_10  and  N_11
REMARK    6  A    between atoms: N_11  and  C_12
REMARK    7  A    between atoms: C_12  and  C_13
REMARK                            x       y       z     vdW  Elec       q    Type
REMARK                         _______ _______ _______ _____ _____    ______ ____
ROOT
ATOM      1  C   UNL     1      48.098   4.231  17.658  0.00  0.00    +0.000 A 
ATOM      2  C   UNL     1      49.433   3.888  17.871  0.00  0.00    +0.000 A 
ATOM      3  C   UNL     1      50.144   4.567  18.840  0.00  0.00    +0.000 A 
ATOM      4  N   UNL     1      49.619   5.544  19.605  0.00  0.00    +0.000 NA
ATOM      5  C   UNL     1      48.317   5.874  19.412  0.00  0.00    +0.000 A 
ATOM      6  C   UNL     1      47.525   5.225  18.464  0.00  0.00    +0.000 A 
ENDROOT
BRANCH   1   7
ATOM      7  C   UNL     1      47.294   3.532  16.597  0.00  0.00    +0.000 C 
BRANCH   7  10
ATOM      8  O   UNL     1      47.312   3.246  13.789  0.00  0.00    +0.000 OA
ATOM      9  C   UNL     1      46.762   4.222  14.287  0.00  0.00    +0.000 C 
ATOM     10  N   UNL     1      46.754   4.459  15.639  0.00  0.00    +0.000 N 
ATOM     11  H   UNL     1      46.136   5.171  16.009  0.00  0.00    +0.000 HD
BRANCH   9  12
ATOM     12  C   UNL     1      46.128   5.256  13.461  0.00  0.00    +0.000 A 
ATOM     13  C   UNL     1      46.796   6.444  13.196  0.00  0.00    +0.000 A 
ATOM     14  S   UNL     1      45.887   7.542  12.257  0.00  0.00    +0.000 S 
ATOM     15  C   UNL     1      44.590   6.447  12.132  0.00  0.00    +0.000 A 
ATOM     16  N   UNL     1      43.469   6.764  11.430  0.00  0.00    +0.000 NA
ATOM     17  C   UNL     1      42.587   5.820  11.381  0.00  0.00    +0.000 A 
ATOM     18  N   UNL     1      42.723   4.593  11.974  0.00  0.00    +0.000 N 
ATOM     19  C   UNL     1      43.798   4.256  12.755  0.00  0.00    +0.000 A 
ATOM     20  O   UNL     1      43.826   3.204  13.382  0.00  0.00    +0.000 OA
ATOM     21  C   UNL     1      44.840   5.268  12.810  0.00  0.00    +0.000 A 
ATOM     22  H   UNL     1      41.984   3.907  11.921  0.00  0.00    +0.000 HD
ENDBRANCH   9  12
ENDBRANCH   7  10
ENDBRANCH   1   7
BRANCH   5  23
ATOM     23  C   UNL     1      47.723   6.977  20.285  0.00  0.00    +0.000 C 
BRANCH  23  24
ATOM     24  N   UNL     1      48.155   8.307  19.846  0.00  0.00    +0.000 NA
ATOM     25  H   UNL     1      49.152   8.244  19.639  0.00  0.00    +0.000 HD
BRANCH  24  26
ATOM     26  C   UNL     1      47.429   8.807  18.686  0.00  0.00    +0.000 C 
BRANCH  26  27
ATOM     27  C   UNL     1      48.373   9.601  17.750  0.00  0.00    +0.000 C 
ATOM     28  C   UNL     1      48.200   9.157  16.287  0.00  0.00    +0.000 C 
ATOM     29  C   UNL     1      48.818   7.781  16.035  0.00  0.00    +0.000 C 
ATOM     30  C   UNL     1      50.251   7.692  16.561  0.00  0.00    +0.000 C 
ATOM     31  N   UNL     1      50.348   8.108  17.961  0.00  0.00    +0.000 NA
ATOM     32  C   UNL     1      49.862   9.481  18.124  0.00  0.00    +0.000 C 
ATOM     33  H   UNL     1      51.324   8.065  18.258  0.00  0.00    +0.000 HD
ENDBRANCH  26  27
ENDBRANCH  24  26
ENDBRANCH  23  24
ENDBRANCH   5  23
TORSDOF 7
ENDMDL
MODEL 7
REMARK VINA RESULT:    -7.054      3.158      8.647
REMARK INTER + INTRA:         -10.931
REMARK INTER:                  -9.568
REMARK INTRA:                  -1.363
REMARK UNBOUND:                -0.990
REMARK  Name = 
REMARK  7 active torsions:
REMARK  status: ('A' for Active; 'I' for Inactive)
REMARK    1  A    between atoms: C_2  and  C_20
REMARK    2  A    between atoms: N_3  and  C_4
REMARK    3  A    between atoms: C_4  and  C_5
REMARK    4  A    between atoms: C_9  and  C_10
REMARK    5  A    between atoms: C_10  and  N_11
REMARK    6  A    between atoms: N_11  and  C_12
REMARK    7  A    between atoms: C_12  and  C_13
REMARK                            x       y       z     vdW  Elec       q    Type
REMARK                         _______ _______ _______ _____ _____    ______ ____
ROOT
ATOM      1  C   UNL     1      48.629   5.335  16.802  0.00  0.00    +0.000 A 
ATOM      2  C   UNL     1      47.884   4.159  16.716  0.00  0.00    +0.000 A 
ATOM      3  C   UNL     1      47.845   3.318  17.810  0.00  0.00    +0.000 A 
ATOM      4  N   UNL     1      48.482   3.572  18.970  0.00  0.00    +0.000 NA
ATOM      5  C   UNL     1      49.198   4.721  19.066  0.00  0.00    +0.000 A 
ATOM      6  C   UNL     1      49.274   5.631  18.011  0.00  0.00    +0.000 A 
ENDROOT
BRANCH   1   7
ATOM      7  C   UNL     1      48.716   6.267  15.626  0.00  0.00    +0.000 C 
BRANCH   7  10
ATOM      8  O   UNL     1      48.683   6.302  12.804  0.00  0.00    +0.000 OA
ATOM      9  C   UNL     1      47.630   6.151  13.412  0.00  0.00    +0.000 C 
ATOM     10  N   UNL     1      47.555   6.173  14.783  0.00  0.00    +0.000 N 
ATOM     11  H   UNL     1      46.702   5.863  15.233  0.00  0.00    +0.000 HD
BRANCH   9  12
ATOM     12  C   UNL     1      46.349   6.007  12.712  0.00  0.00    +0.000 A 
ATOM     13  C   UNL     1      45.741   7.114  12.134  0.00  0.00    +0.000 A 
ATOM     14  S   UNL     1      44.238   6.763  11.404  0.00  0.00    +0.000 S 
ATOM     15  C   UNL     1      44.373   5.111  11.791  0.00  0.00    +0.000 A 
ATOM     16  N   UNL     1      43.407   4.223  11.432  0.00  0.00    +0.000 NA
ATOM     17  C   UNL     1      43.665   2.998  11.751  0.00  0.00    +0.000 A 
ATOM     18  N   UNL     1      44.796   2.581  12.401  0.00  0.00    +0.000 N 
ATOM     19  C   UNL     1      45.760   3.446  12.851  0.00  0.00    +0.000 A 
ATOM     20  O   UNL     1      46.689   3.058  13.548  0.00  0.00    +0.000 OA
ATOM     21  C   UNL     1      45.539   4.834  12.483  0.00  0.00    +0.000 A 
ATOM     22  H   UNL     1      44.925   1.610  12.645  0.00  0.00    +0.000 HD
ENDBRANCH   9  12
ENDBRANCH   7  10
ENDBRANCH   1   7
BRANCH   5  23
ATOM     23  C   UNL     1      49.913   5.009  20.384  0.00  0.00    +0.000 C 
BRANCH  23  24
ATOM     24  N   UNL     1      51.284   5.477  20.165  0.00  0.00    +0.000 NA
ATOM     25  H   UNL     1      51.451   6.236  20.825  0.00  0.00    +0.000 HD
BRANCH  24  26
ATOM     26  C   UNL     1      52.292   4.438  20.326  0.00  0.00    +0.000 C 
BRANCH  26  27
ATOM     27  C   UNL     1      53.233   4.392  19.097  0.00  0.00    +0.000 C 
ATOM     28  C   UNL     1      52.448   4.081  17.811  0.00  0.00    +0.000 C 
ATOM     29  C   UNL     1      52.011   2.616  17.754  0.00  0.00    +0.000 C 
ATOM     30  C   UNL     1      53.172   1.662  18.037  0.00  0.00    +0.000 C 
ATOM     31  N   UNL     1      53.867   1.996  19.280  0.00  0.00    +0.000 NA
ATOM     32  C   UNL     1      54.377   3.370  19.230  0.00  0.00    +0.000 C 
ATOM     33  H   UNL     1      54.651   1.356  19.410  0.00  0.00    +0.000 HD
ENDBRANCH  26  27
ENDBRANCH  24  26
ENDBRANCH  23  24
ENDBRANCH   5  23
TORSDOF 7
ENDMDL
MODEL 8
REMARK VINA RESULT:    -7.027      3.240      8.324
REMARK INTER + INTRA:         -10.893
REMARK INTER:                  -9.833
REMARK INTRA:                  -1.059
REMARK UNBOUND:                -0.990
REMARK  Name = 
REMARK  7 active torsions:
REMARK  status: ('A' for Active; 'I' for Inactive)
REMARK    1  A    between atoms: C_2  and  C_20
REMARK    2  A    between atoms: N_3  and  C_4
REMARK    3  A    between atoms: C_4  and  C_5
REMARK    4  A    between atoms: C_9  and  C_10
REMARK    5  A    between atoms: C_10  and  N_11
REMARK    6  A    between atoms: N_11  and  C_12
REMARK    7  A    between atoms: C_12  and  C_13
REMARK                            x       y       z     vdW  Elec       q    Type
REMARK                         _______ _______ _______ _____ _____    ______ ____
ROOT
ATOM      1  C   UNL     1      45.204   4.970  12.174  0.00  0.00    +0.000 A 
ATOM      2  C   UNL     1      44.636   6.093  11.571  0.00  0.00    +0.000 A 
ATOM      3  C   UNL     1      45.245   7.319  11.752  0.00  0.00    +0.000 A 
ATOM      4  N   UNL     1      46.369   7.496  12.474  0.00  0.00    +0.000 NA
ATOM      5  C   UNL     1      46.934   6.406  13.052  0.00  0.00    +0.000 A 
ATOM      6  C   UNL     1      46.390   5.129  12.905  0.00  0.00    +0.000 A 
ENDROOT
BRANCH   1   7
ATOM      7  C   UNL     1      44.560   3.620  12.022  0.00  0.00    +0.000 C 
BRANCH   7  10
ATOM      8  O   UNL     1      43.776   3.524   9.312  0.00  0.00    +0.000 OA
ATOM      9  C   UNL     1      44.763   2.893   9.671  0.00  0.00    +0.000 C 
ATOM     10  N   UNL     1      45.179   2.847  10.979  0.00  0.00    +0.000 N 
ATOM     11  H   UNL     1      46.094   2.467  11.190  0.00  0.00    +0.000 HD
BRANCH   9  12
ATOM     12  C   UNL     1      45.538   2.073   8.733  0.00  0.00    +0.000 A 
ATOM     13  C   UNL     1      45.459   0.688   8.788  0.00  0.00    +0.000 A 
ATOM     14  S   UNL     1      46.462  -0.097   7.651  0.00  0.00    +0.000 S 
ATOM     15  C   UNL     1      46.997   1.388   7.015  0.00  0.00    +0.000 A 
ATOM     16  N   UNL     1      47.879   1.432   5.981  0.00  0.00    +0.000 NA
ATOM     17  C   UNL     1      48.161   2.625   5.572  0.00  0.00    +0.000 A 
ATOM     18  N   UNL     1      47.645   3.776   6.105  0.00  0.00    +0.000 N 
ATOM     19  C   UNL     1      46.813   3.786   7.196  0.00  0.00    +0.000 A 
ATOM     20  O   UNL     1      46.479   4.834   7.733  0.00  0.00    +0.000 OA
ATOM     21  C   UNL     1      46.432   2.467   7.671  0.00  0.00    +0.000 A 
ATOM     22  H   UNL     1      47.926   4.681   5.756  0.00  0.00    +0.000 HD
ENDBRANCH   9  12
ENDBRANCH   7  10
ENDBRANCH   1   7
BRANCH   5  23
ATOM     23  C   UNL     1      48.211   6.609  13.864  0.00  0.00    +0.000 C 
BRANCH  23  24
ATOM     24  N   UNL     1      47.931   6.699  15.299  0.00  0.00    +0.000 NA
ATOM     25  H   UNL     1      46.950   6.452  15.428  0.00  0.00    +0.000 HD
BRANCH  24  26
ATOM     26  C   UNL     1      48.779   5.842  16.118  0.00  0.00    +0.000 C 
BRANCH  26  27
ATOM     27  C   UNL     1      47.920   4.902  16.998  0.00  0.00    +0.000 C 
ATOM     28  C   UNL     1      48.702   4.443  18.241  0.00  0.00    +0.000 C 
ATOM     29  C   UNL     1      49.780   3.418  17.887  0.00  0.00    +0.000 C 
ATOM     30  C   UNL     1      49.227   2.280  17.029  0.00  0.00    +0.000 C 
ATOM     31  N   UNL     1      48.512   2.777  15.853  0.00  0.00    +0.000 NA
ATOM     32  C   UNL     1      47.408   3.654  16.255  0.00  0.00    +0.000 C 
ATOM     33  H   UNL     1      48.133   1.987  15.330  0.00  0.00    +0.000 HD
ENDBRANCH  26  27
ENDBRANCH  24  26
ENDBRANCH  23  24
ENDBRANCH   5  23
TORSDOF 7
ENDMDL
MODEL 9
REMARK VINA RESULT:    -6.814      2.111      3.359
REMARK INTER + INTRA:         -10.592
REMARK INTER:                  -9.746
REMARK INTRA:                  -0.846
REMARK UNBOUND:                -0.990
REMARK  Name = 
REMARK  7 active torsions:
REMARK  status: ('A' for Active; 'I' for Inactive)
REMARK    1  A    between atoms: C_2  and  C_20
REMARK    2  A    between atoms: N_3  and  C_4
REMARK    3  A    between atoms: C_4  and  C_5
REMARK    4  A    between atoms: C_9  and  C_10
REMARK    5  A    between atoms: C_10  and  N_11
REMARK    6  A    between atoms: N_11  and  C_12
REMARK    7  A    between atoms: C_12  and  C_13
REMARK                            x       y       z     vdW  Elec       q    Type
REMARK                         _______ _______ _______ _____ _____    ______ ____
ROOT
ATOM      1  C   UNL     1      46.251   4.462  13.098  0.00  0.00    +0.000 A 
ATOM      2  C   UNL     1      46.717   5.741  12.792  0.00  0.00    +0.000 A 
ATOM      3  C   UNL     1      46.210   6.380  11.680  0.00  0.00    +0.000 A 
ATOM      4  N   UNL     1      45.278   5.843  10.869  0.00  0.00    +0.000 NA
ATOM      5  C   UNL     1      44.809   4.605  11.167  0.00  0.00    +0.000 A 
ATOM      6  C   UNL     1      45.259   3.898  12.283  0.00  0.00    +0.000 A 
ENDROOT
BRANCH   1   7
ATOM      7  C   UNL     1      46.793   3.720  14.288  0.00  0.00    +0.000 C 
BRANCH   7  10
ATOM      8  O   UNL     1      48.619   3.301  16.400  0.00  0.00    +0.000 OA
ATOM      9  C   UNL     1      47.971   4.341  16.368  0.00  0.00    +0.000 C 
ATOM     10  N   UNL     1      47.028   4.598  15.403  0.00  0.00    +0.000 N 
ATOM     11  H   UNL     1      46.658   5.536  15.316  0.00  0.00    +0.000 HD
BRANCH   9  12
ATOM     12  C   UNL     1      48.105   5.366  17.408  0.00  0.00    +0.000 A 
ATOM     13  C   UNL     1      47.389   5.256  18.593  0.00  0.00    +0.000 A 
ATOM     14  S   UNL     1      47.638   6.562  19.664  0.00  0.00    +0.000 S 
ATOM     15  C   UNL     1      48.749   7.294  18.601  0.00  0.00    +0.000 A 
ATOM     16  N   UNL     1      49.363   8.463  18.924  0.00  0.00    +0.000 NA
ATOM     17  C   UNL     1      50.215   8.877  18.044  0.00  0.00    +0.000 A 
ATOM     18  N   UNL     1      50.503   8.231  16.871  0.00  0.00    +0.000 N 
ATOM     19  C   UNL     1      49.854   7.093  16.467  0.00  0.00    +0.000 A 
ATOM     20  O   UNL     1      50.036   6.617  15.354  0.00  0.00    +0.000 OA
ATOM     21  C   UNL     1      48.914   6.561  17.439  0.00  0.00    +0.000 A 
ATOM     22  H   UNL     1      51.160   8.622  16.212  0.00  0.00    +0.000 HD
ENDBRANCH   9  12
ENDBRANCH   7  10
ENDBRANCH   1   7
BRANCH   5  23
ATOM     23  C   UNL     1      43.748   4.001  10.251  0.00  0.00    +0.000 C 
BRANCH  23  24
ATOM     24  N   UNL     1      43.906   4.457   8.867  0.00  0.00    +0.000 NA
ATOM     25  H   UNL     1      44.484   5.297   8.893  0.00  0.00    +0.000 HD
BRANCH  24  26
ATOM     26  C   UNL     1      44.500   3.461   7.985  0.00  0.00    +0.000 C 
BRANCH  26  27
ATOM     27  C   UNL     1      46.009   3.290   8.291  0.00  0.00    +0.000 C 
ATOM     28  C   UNL     1      46.870   4.039   7.259  0.00  0.00    +0.000 C 
ATOM     29  C   UNL     1      46.881   3.326   5.906  0.00  0.00    +0.000 C 
ATOM     30  C   UNL     1      47.207   1.839   6.045  0.00  0.00    +0.000 C 
ATOM     31  N   UNL     1      46.344   1.178   7.024  0.00  0.00    +0.000 NA
ATOM     32  C   UNL     1      46.468   1.821   8.336  0.00  0.00    +0.000 C 
ATOM     33  H   UNL     1      46.618   0.198   7.108  0.00  0.00    +0.000 HD
ENDBRANCH  26  27
ENDBRANCH  24  26
ENDBRANCH  23  24
ENDBRANCH   5  23
TORSDOF 7
ENDMDL
