MODEL 1
REMARK VINA RESULT:    -8.649      0.000      0.000
REMARK INTER + INTRA:         -10.374
REMARK INTER:                 -10.419
REMARK INTRA:                   0.045
REMARK UNBOUND:                 0.045
REMARK  Name = 
REMARK  6 active torsions:
REMARK  status: ('A' for Active; 'I' for Inactive)
REMARK    1  A    between atoms: C_1  and  C_2
REMARK    2  A    between atoms: C_2  and  C_3
REMARK    3  A    between atoms: C_2  and  N_4
REMARK    4  A    between atoms: C_2  and  C_15
REMARK    5  A    between atoms: C_8  and  C_9
REMARK    6  A    between atoms: C_12  and  N_13
REMARK                            x       y       z     vdW  Elec       q    Type
REMARK                         _______ _______ _______ _____ _____    ______ ____
ROOT
ATOM      1  N   UNL     1      44.148   5.073   9.561  0.00  0.00    +0.000 N 
ATOM      2  C   UNL     1      44.850   4.033   8.967  0.00  0.00    +0.000 A 
ATOM      3  N   UNL     1      44.832   2.825   9.526  0.00  0.00    +0.000 NA
ATOM      4  C   UNL     1      45.566   1.851   8.967  0.00  0.00    +0.000 A 
ATOM      5  C   UNL     1      46.282   2.023   7.824  0.00  0.00    +0.000 A 
ATOM      6  C   UNL     1      46.240   3.298   7.276  0.00  0.00    +0.000 A 
ATOM      7  N   UNL     1      45.533   4.306   7.844  0.00  0.00    +0.000 NA
ATOM      8  H   UNL     1      44.541   5.917   9.157  0.00  0.00    +0.000 HD
ENDROOT
BRANCH   5   9
ATOM      9  C   UNL     1      47.134   0.939   7.282  0.00  0.00    +0.000 C 
ATOM     10  N   UNL     1      46.787  -0.353   7.565  0.00  0.00    +0.000 N 
ATOM     11  O   UNL     1      48.137   1.192   6.628  0.00  0.00    +0.000 OA
ATOM     12  H   UNL     1      45.926  -0.642   8.008  0.00  0.00    +0.000 HD
ATOM     13  H   UNL     1      47.361  -1.075   7.147  0.00  0.00    +0.000 HD
ENDBRANCH   5   9
BRANCH   1  15
ATOM     14  C   UNL     1      43.312   6.426  11.515  0.00  0.00    +0.000 C 
ATOM     15  C   UNL     1      43.975   5.108  11.033  0.00  0.00    +0.000 C 
ATOM     16  C   UNL     1      43.090   3.919  11.468  0.00  0.00    +0.000 C 
BRANCH  15  17
ATOM     17  C   UNL     1      45.408   4.997  11.716  0.00  0.00    +0.000 C 
ATOM     18  C   UNL     1      45.424   4.034  12.931  0.00  0.00    +0.000 C 
ATOM     19  C   UNL     1      46.775   3.976  13.645  0.00  0.00    +0.000 C 
ATOM     20  C   UNL     1      47.236   5.365  14.058  0.00  0.00    +0.000 C 
ATOM     21  C   UNL     1      47.339   6.269  12.840  0.00  0.00    +0.000 C 
ATOM     22  C   UNL     1      46.006   6.370  12.105  0.00  0.00    +0.000 C 
ENDBRANCH  15  17
ENDBRANCH   1  15
BRANCH   6  23
ATOM     23  N   UNL     1      46.818   3.586   6.037  0.00  0.00    +0.000 N 
ATOM     24  H   UNL     1      46.321   3.146   5.262  0.00  0.00    +0.000 HD
ATOM     25  H   UNL     1      47.816   3.417   6.056  0.00  0.00    +0.000 HD
ENDBRANCH   6  23
TORSDOF 4
ENDMDL
MODEL 2
REMARK VINA RESULT:    -6.671      3.795      6.235
REMARK INTER + INTRA:          -7.992
REMARK INTER:                  -8.371
REMARK INTRA:                   0.379
REMARK UNBOUND:                 0.045
REMARK  Name = 
REMARK  6 active torsions:
REMARK  status: ('A' for Active; 'I' for Inactive)
REMARK    1  A    between atoms: C_1  and  C_2
REMARK    2  A    between atoms: C_2  and  C_3
REMARK    3  A    between atoms: C_2  and  N_4
REMARK    4  A    between atoms: C_2  and  C_15
REMARK    5  A    between atoms: C_8  and  C_9
REMARK    6  A    between atoms: C_12  and  N_13
REMARK                            x       y       z     vdW  Elec       q    Type
REMARK                         _______ _______ _______ _____ _____    ______ ____
ROOT
ATOM      1  N   UNL     1      45.379   5.500  11.617  0.00  0.00    +0.000 N 
ATOM      2  C   UNL     1      46.052   5.087  12.759  0.00  0.00    +0.000 A 
ATOM      3  N   UNL     1      45.976   3.815  13.142  0.00  0.00    +0.000 NA
ATOM      4  C   UNL     1      46.585   3.452  14.281  0.00  0.00    +0.000 A 
ATOM      5  C   UNL     1      47.324   4.309  15.034  0.00  0.00    +0.000 A 
ATOM      6  C   UNL     1      47.386   5.616  14.568  0.00  0.00    +0.000 A 
ATOM      7  N   UNL     1      46.748   6.011  13.438  0.00  0.00    +0.000 NA
ATOM      8  H   UNL     1      45.329   6.510  11.695  0.00  0.00    +0.000 HD
ENDROOT
BRANCH   5   9
ATOM      9  C   UNL     1      47.920   3.882  16.321  0.00  0.00    +0.000 C 
ATOM     10  N   UNL     1      47.138   3.163  17.182  0.00  0.00    +0.000 N 
ATOM     11  O   UNL     1      49.066   4.191  16.620  0.00  0.00    +0.000 OA
ATOM     12  H   UNL     1      46.226   2.787  16.967  0.00  0.00    +0.000 HD
ATOM     13  H   UNL     1      47.583   2.847  18.035  0.00  0.00    +0.000 HD
ENDBRANCH   5   9
BRANCH   1  15
ATOM     14  C   UNL     1      43.618   3.828  12.289  0.00  0.00    +0.000 C 
ATOM     15  C   UNL     1      44.112   4.840  11.221  0.00  0.00    +0.000 C 
ATOM     16  C   UNL     1      43.023   5.916  11.017  0.00  0.00    +0.000 C 
BRANCH  15  17
ATOM     17  C   UNL     1      44.354   4.048   9.863  0.00  0.00    +0.000 C 
ATOM     18  C   UNL     1      44.529   2.522  10.078  0.00  0.00    +0.000 C 
ATOM     19  C   UNL     1      44.839   1.757   8.791  0.00  0.00    +0.000 C 
ATOM     20  C   UNL     1      46.054   2.340   8.087  0.00  0.00    +0.000 C 
ATOM     21  C   UNL     1      45.822   3.808   7.767  0.00  0.00    +0.000 C 
ATOM     22  C   UNL     1      45.526   4.615   9.026  0.00  0.00    +0.000 C 
ENDBRANCH  15  17
ENDBRANCH   1  15
BRANCH   6  23
ATOM     23  N   UNL     1      48.213   6.571  15.164  0.00  0.00    +0.000 N 
ATOM     24  H   UNL     1      49.204   6.369  15.030  0.00  0.00    +0.000 HD
ATOM     25  H   UNL     1      47.936   6.740  16.123  0.00  0.00    +0.000 HD
ENDBRANCH   6  23
TORSDOF 4
ENDMDL
MODEL 3
REMARK VINA RESULT:    -6.524      3.636      6.560
REMARK INTER + INTRA:          -7.814
REMARK INTER:                  -8.450
REMARK INTRA:                   0.635
REMARK UNBOUND:                 0.045
REMARK  Name = 
REMARK  6 active torsions:
REMARK  status: ('A' for Active; 'I' for Inactive)
REMARK    1  A    between atoms: C_1  and  C_2
REMARK    2  A    between atoms: C_2  and  C_3
REMARK    3  A    between atoms: C_2  and  N_4
REMARK    4  A    between atoms: C_2  and  C_15
REMARK    5  A    between atoms: C_8  and  C_9
REMARK    6  A    between atoms: C_12  and  N_13
REMARK                            x       y       z     vdW  Elec       q    Type
REMARK                         _______ _______ _______ _____ _____    ______ ____
ROOT
ATOM      1  N   UNL     1      44.274   5.773  10.623  0.00  0.00    +0.000 N 
ATOM      2  C   UNL     1      45.086   6.633  11.349  0.00  0.00    +0.000 A 
ATOM      3  N   UNL     1      46.299   6.233  11.720  0.00  0.00    +0.000 NA
ATOM      4  C   UNL     1      47.042   7.059  12.472  0.00  0.00    +0.000 A 
ATOM      5  C   UNL     1      46.639   8.308  12.825  0.00  0.00    +0.000 A 
ATOM      6  C   UNL     1      45.374   8.676  12.386  0.00  0.00    +0.000 A 
ATOM      7  N   UNL     1      44.592   7.843  11.655  0.00  0.00    +0.000 NA
ATOM      8  H   UNL     1      43.338   6.154  10.720  0.00  0.00    +0.000 HD
ENDROOT
BRANCH   5   9
ATOM      9  C   UNL     1      47.463   9.158  13.716  0.00  0.00    +0.000 C 
ATOM     10  N   UNL     1      47.459   8.878  15.054  0.00  0.00    +0.000 N 
ATOM     11  O   UNL     1      48.103  10.102  13.273  0.00  0.00    +0.000 OA
ATOM     12  H   UNL     1      47.040   8.062  15.479  0.00  0.00    +0.000 HD
ATOM     13  H   UNL     1      48.064   9.446  15.635  0.00  0.00    +0.000 HD
ENDBRANCH   5   9
BRANCH   1  15
ATOM     14  C   UNL     1      45.483   3.930  11.843  0.00  0.00    +0.000 C 
ATOM     15  C   UNL     1      44.374   4.307  10.824  0.00  0.00    +0.000 C 
ATOM     16  C   UNL     1      43.021   3.772  11.341  0.00  0.00    +0.000 C 
BRANCH  15  17
ATOM     17  C   UNL     1      44.731   3.627   9.431  0.00  0.00    +0.000 C 
ATOM     18  C   UNL     1      45.227   2.165   9.583  0.00  0.00    +0.000 C 
ATOM     19  C   UNL     1      45.647   1.523   8.261  0.00  0.00    +0.000 C 
ATOM     20  C   UNL     1      46.690   2.369   7.548  0.00  0.00    +0.000 C 
ATOM     21  C   UNL     1      46.147   3.766   7.290  0.00  0.00    +0.000 C 
ATOM     22  C   UNL     1      45.731   4.453   8.587  0.00  0.00    +0.000 C 
ENDBRANCH  15  17
ENDBRANCH   1  15
BRANCH   6  23
ATOM     23  N   UNL     1      44.883   9.972  12.560  0.00  0.00    +0.000 N 
ATOM     24  H   UNL     1      44.624  10.414  11.678  0.00  0.00    +0.000 HD
ATOM     25  H   UNL     1      45.503  10.517  13.146  0.00  0.00    +0.000 HD
ENDBRANCH   6  23
TORSDOF 4
ENDMDL
MODEL 4
REMARK VINA RESULT:    -6.343      3.866      6.396
REMARK INTER + INTRA:          -7.596
REMARK INTER:                  -8.128
REMARK INTRA:                   0.532
REMARK UNBOUND:                 0.045
REMARK  Name = 
REMARK  6 active torsions:
REMARK  status: ('A' for Active; 'I' for Inactive)
REMARK    1  A    between atoms: C_1  and  C_2
REMARK    2  A    between atoms: C_2  and  C_3
REMARK    3  A    between atoms: C_2  and  N_4
REMARK    4  A    between atoms: C_2  and  C_15
REMARK    5  A    between atoms: C_8  and  C_9
REMARK    6  A    between atoms: C_12  and  N_13
REMARK                            x       y       z     vdW  Elec       q    Type
REMARK                         _______ _______ _______ _____ _____    ______ ____
ROOT
ATOM      1  N   UNL     1      44.762   6.379  11.003  0.00  0.00    +0.000 N 
ATOM      2  C   UNL     1      45.828   6.734  11.818  0.00  0.00    +0.000 A 
ATOM      3  N   UNL     1      46.640   5.789  12.285  0.00  0.00    +0.000 NA
ATOM      4  C   UNL     1      47.627   6.150  13.119  0.00  0.00    +0.000 A 
ATOM      5  C   UNL     1      47.873   7.441  13.465  0.00  0.00    +0.000 A 
ATOM      6  C   UNL     1      47.007   8.382  12.925  0.00  0.00    +0.000 A 
ATOM      7  N   UNL     1      45.981   8.035  12.108  0.00  0.00    +0.000 NA
ATOM      8  H   UNL     1      44.138   7.179  11.026  0.00  0.00    +0.000 HD
ENDROOT
BRANCH   5   9
ATOM      9  C   UNL     1      48.930   7.785  14.445  0.00  0.00    +0.000 C 
ATOM     10  N   UNL     1      50.196   7.326  14.211  0.00  0.00    +0.000 N 
ATOM     11  O   UNL     1      48.672   8.434  15.450  0.00  0.00    +0.000 OA
ATOM     12  H   UNL     1      50.506   6.875  13.362  0.00  0.00    +0.000 HD
ATOM     13  H   UNL     1      50.908   7.611  14.873  0.00  0.00    +0.000 HD
ENDBRANCH   5   9
BRANCH   1  15
ATOM     14  C   UNL     1      44.685   4.264  12.370  0.00  0.00    +0.000 C 
ATOM     15  C   UNL     1      44.098   5.065  11.177  0.00  0.00    +0.000 C 
ATOM     16  C   UNL     1      42.590   5.287  11.422  0.00  0.00    +0.000 C 
BRANCH  15  17
ATOM     17  C   UNL     1      44.313   4.208   9.854  0.00  0.00    +0.000 C 
ATOM     18  C   UNL     1      44.439   2.688  10.133  0.00  0.00    +0.000 C 
ATOM     19  C   UNL     1      44.723   1.860   8.879  0.00  0.00    +0.000 C 
ATOM     20  C   UNL     1      45.954   2.373   8.151  0.00  0.00    +0.000 C 
ATOM     21  C   UNL     1      45.769   3.833   7.769  0.00  0.00    +0.000 C 
ATOM     22  C   UNL     1      45.501   4.702   8.993  0.00  0.00    +0.000 C 
ENDBRANCH  15  17
ENDBRANCH   1  15
BRANCH   6  23
ATOM     23  N   UNL     1      47.216   9.754  13.087  0.00  0.00    +0.000 N 
ATOM     24  H   UNL     1      47.296  10.245  12.196  0.00  0.00    +0.000 HD
ATOM     25  H   UNL     1      47.969   9.929  13.741  0.00  0.00    +0.000 HD
ENDBRANCH   6  23
TORSDOF 4
ENDMDL
MODEL 5
REMARK VINA RESULT:    -6.285      3.473      5.440
REMARK INTER + INTRA:          -7.526
REMARK INTER:                  -7.691
REMARK INTRA:                   0.165
REMARK UNBOUND:                 0.045
REMARK  Name = 
REMARK  6 active torsions:
REMARK  status: ('A' for Active; 'I' for Inactive)
REMARK    1  A    between atoms: C_1  and  C_2
REMARK    2  A    between atoms: C_2  and  C_3
REMARK    3  A    between atoms: C_2  and  N_4
REMARK    4  A    between atoms: C_2  and  C_15
REMARK    5  A    between atoms: C_8  and  C_9
REMARK    6  A    between atoms: C_12  and  N_13
REMARK                            x       y       z     vdW  Elec       q    Type
REMARK                         _______ _______ _______ _____ _____    ______ ____
ROOT
ATOM      1  N   UNL     1      47.350   6.748  13.609  0.00  0.00    +0.000 N 
ATOM      2  C   UNL     1      46.600   6.001  12.711  0.00  0.00    +0.000 A 
ATOM      3  N   UNL     1      46.432   6.443  11.468  0.00  0.00    +0.000 NA
ATOM      4  C   UNL     1      45.653   5.735  10.637  0.00  0.00    +0.000 A 
ATOM      5  C   UNL     1      45.073   4.556  10.986  0.00  0.00    +0.000 A 
ATOM      6  C   UNL     1      45.306   4.135  12.289  0.00  0.00    +0.000 A 
ATOM      7  N   UNL     1      46.062   4.855  13.156  0.00  0.00    +0.000 NA
ATOM      8  H   UNL     1      47.093   6.393  14.524  0.00  0.00    +0.000 HD
ENDROOT
BRANCH   5   9
ATOM      9  C   UNL     1      44.163   3.844  10.059  0.00  0.00    +0.000 C 
ATOM     10  N   UNL     1      44.126   4.253   8.755  0.00  0.00    +0.000 N 
ATOM     11  O   UNL     1      43.442   2.937  10.454  0.00  0.00    +0.000 OA
ATOM     12  H   UNL     1      44.758   4.920   8.335  0.00  0.00    +0.000 HD
ATOM     13  H   UNL     1      43.529   3.722   8.133  0.00  0.00    +0.000 HD
ENDBRANCH   5   9
BRANCH   1  15
ATOM     14  C   UNL     1      45.986   8.824  13.190  0.00  0.00    +0.000 C 
ATOM     15  C   UNL     1      47.384   8.226  13.500  0.00  0.00    +0.000 C 
ATOM     16  C   UNL     1      47.895   8.821  14.831  0.00  0.00    +0.000 C 
BRANCH  15  17
ATOM     17  C   UNL     1      48.367   8.626  12.314  0.00  0.00    +0.000 C 
ATOM     18  C   UNL     1      49.758   7.951  12.429  0.00  0.00    +0.000 C 
ATOM     19  C   UNL     1      50.738   8.385  11.339  0.00  0.00    +0.000 C 
ATOM     20  C   UNL     1      50.881   9.898  11.303  0.00  0.00    +0.000 C 
ATOM     21  C   UNL     1      49.528  10.549  11.064  0.00  0.00    +0.000 C 
ATOM     22  C   UNL     1      48.521  10.157  12.140  0.00  0.00    +0.000 C 
ENDBRANCH  15  17
ENDBRANCH   1  15
BRANCH   6  23
ATOM     23  N   UNL     1      44.885   2.884  12.745  0.00  0.00    +0.000 N 
ATOM     24  H   UNL     1      45.256   2.659  13.668  0.00  0.00    +0.000 HD
ATOM     25  H   UNL     1      45.034   2.174  12.039  0.00  0.00    +0.000 HD
ENDBRANCH   6  23
TORSDOF 4
ENDMDL
MODEL 6
REMARK VINA RESULT:    -6.241      3.613      6.484
REMARK INTER + INTRA:          -7.473
REMARK INTER:                  -7.831
REMARK INTRA:                   0.358
REMARK UNBOUND:                 0.045
REMARK  Name = 
REMARK  6 active torsions:
REMARK  status: ('A' for Active; 'I' for Inactive)
REMARK    1  A    between atoms: C_1  and  C_2
REMARK    2  A    between atoms: C_2  and  C_3
REMARK    3  A    between atoms: C_2  and  N_4
REMARK    4  A    between atoms: C_2  and  C_15
REMARK    5  A    between atoms: C_8  and  C_9
REMARK    6  A    between atoms: C_12  and  N_13
REMARK                            x       y       z     vdW  Elec       q    Type
REMARK                         _______ _______ _______ _____ _____    ______ ____
ROOT
ATOM      1  N   UNL     1      45.048   4.191  12.673  0.00  0.00    +0.000 N 
ATOM      2  C   UNL     1      45.694   5.418  12.741  0.00  0.00    +0.000 A 
ATOM      3  N   UNL     1      45.160   6.475  12.135  0.00  0.00    +0.000 NA
ATOM      4  C   UNL     1      45.832   7.636  12.164  0.00  0.00    +0.000 A 
ATOM      5  C   UNL     1      47.006   7.799  12.831  0.00  0.00    +0.000 A 
ATOM      6  C   UNL     1      47.497   6.665  13.465  0.00  0.00    +0.000 A 
ATOM      7  N   UNL     1      46.851   5.473  13.418  0.00  0.00    +0.000 NA
ATOM      8  H   UNL     1      45.756   3.509  12.925  0.00  0.00    +0.000 HD
ENDROOT
BRANCH   5   9
ATOM      9  C   UNL     1      47.748   9.079  12.777  0.00  0.00    +0.000 C 
ATOM     10  N   UNL     1      47.055  10.234  13.014  0.00  0.00    +0.000 N 
ATOM     11  O   UNL     1      48.939   9.107  12.497  0.00  0.00    +0.000 OA
ATOM     12  H   UNL     1      46.103  10.285  13.347  0.00  0.00    +0.000 HD
ATOM     13  H   UNL     1      47.595  11.091  13.013  0.00  0.00    +0.000 HD
ENDBRANCH   5   9
BRANCH   1  15
ATOM     14  C   UNL     1      43.389   2.562  11.702  0.00  0.00    +0.000 C 
ATOM     15  C   UNL     1      44.241   3.841  11.480  0.00  0.00    +0.000 C 
ATOM     16  C   UNL     1      43.297   5.015  11.142  0.00  0.00    +0.000 C 
BRANCH  15  17
ATOM     17  C   UNL     1      45.228   3.571  10.261  0.00  0.00    +0.000 C 
ATOM     18  C   UNL     1      45.261   4.739   9.241  0.00  0.00    +0.000 C 
ATOM     19  C   UNL     1      46.146   4.461   8.025  0.00  0.00    +0.000 C 
ATOM     20  C   UNL     1      45.744   3.165   7.340  0.00  0.00    +0.000 C 
ATOM     21  C   UNL     1      45.835   2.003   8.316  0.00  0.00    +0.000 C 
ATOM     22  C   UNL     1      44.953   2.229   9.539  0.00  0.00    +0.000 C 
ENDBRANCH  15  17
ENDBRANCH   1  15
BRANCH   6  23
ATOM     23  N   UNL     1      48.620   6.715  14.295  0.00  0.00    +0.000 N 
ATOM     24  H   UNL     1      48.600   5.999  15.021  0.00  0.00    +0.000 HD
ATOM     25  H   UNL     1      48.782   7.657  14.627  0.00  0.00    +0.000 HD
ENDBRANCH   6  23
TORSDOF 4
ENDMDL
MODEL 7
REMARK VINA RESULT:    -5.771      3.607      5.538
REMARK INTER + INTRA:          -6.906
REMARK INTER:                  -7.005
REMARK INTRA:                   0.099
REMARK UNBOUND:                 0.045
REMARK  Name = 
REMARK  6 active torsions:
REMARK  status: ('A' for Active; 'I' for Inactive)
REMARK    1  A    between atoms: C_1  and  C_2
REMARK    2  A    between atoms: C_2  and  C_3
REMARK    3  A    between atoms: C_2  and  N_4
REMARK    4  A    between atoms: C_2  and  C_15
REMARK    5  A    between atoms: C_8  and  C_9
REMARK    6  A    between atoms: C_12  and  N_13
REMARK                            x       y       z     vdW  Elec       q    Type
REMARK                         _______ _______ _______ _____ _____    ______ ____
ROOT
ATOM      1  N   UNL     1      47.944   6.590  13.313  0.00  0.00    +0.000 N 
ATOM      2  C   UNL     1      46.989   5.964  12.524  0.00  0.00    +0.000 A 
ATOM      3  N   UNL     1      46.630   6.513  11.367  0.00  0.00    +0.000 NA
ATOM      4  C   UNL     1      45.663   5.921  10.651  0.00  0.00    +0.000 A 
ATOM      5  C   UNL     1      45.070   4.755  11.023  0.00  0.00    +0.000 A 
ATOM      6  C   UNL     1      45.505   4.219  12.227  0.00  0.00    +0.000 A 
ATOM      7  N   UNL     1      46.457   4.820  12.984  0.00  0.00    +0.000 NA
ATOM      8  H   UNL     1      47.831   6.180  14.235  0.00  0.00    +0.000 HD
ENDROOT
BRANCH   5   9
ATOM      9  C   UNL     1      43.957   4.176  10.236  0.00  0.00    +0.000 C 
ATOM     10  N   UNL     1      43.971   4.349   8.880  0.00  0.00    +0.000 N 
ATOM     11  O   UNL     1      43.035   3.587  10.786  0.00  0.00    +0.000 OA
ATOM     12  H   UNL     1      44.739   4.731   8.348  0.00  0.00    +0.000 HD
ATOM     13  H   UNL     1      43.221   3.906   8.362  0.00  0.00    +0.000 HD
ENDBRANCH   5   9
BRANCH   1  15
ATOM     14  C   UNL     1      48.701   8.592  11.984  0.00  0.00    +0.000 C 
ATOM     15  C   UNL     1      48.067   8.068  13.300  0.00  0.00    +0.000 C 
ATOM     16  C   UNL     1      46.665   8.695  13.460  0.00  0.00    +0.000 C 
BRANCH  15  17
ATOM     17  C   UNL     1      49.001   8.511  14.509  0.00  0.00    +0.000 C 
ATOM     18  C   UNL     1      50.050   7.433  14.888  0.00  0.00    +0.000 C 
ATOM     19  C   UNL     1      50.904   7.813  16.098  0.00  0.00    +0.000 C 
ATOM     20  C   UNL     1      50.034   8.156  17.296  0.00  0.00    +0.000 C 
ATOM     21  C   UNL     1      49.094   9.300  16.954  0.00  0.00    +0.000 C 
ATOM     22  C   UNL     1      48.208   8.958  15.760  0.00  0.00    +0.000 C 
ENDBRANCH  15  17
ENDBRANCH   1  15
BRANCH   6  23
ATOM     23  N   UNL     1      45.082   2.964  12.669  0.00  0.00    +0.000 N 
ATOM     24  H   UNL     1      45.634   2.203  12.271  0.00  0.00    +0.000 HD
ATOM     25  H   UNL     1      44.080   2.864  12.567  0.00  0.00    +0.000 HD
ENDBRANCH   6  23
TORSDOF 4
ENDMDL
