MODEL 1
REMARK VINA RESULT:    -7.862      0.000      0.000
REMARK INTER + INTRA:          -9.906
REMARK INTER:                  -9.930
REMARK INTRA:                   0.025
REMARK UNBOUND:                 0.025
REMARK  Name = 
REMARK  5 active torsions:
REMARK  status: ('A' for Active; 'I' for Inactive)
REMARK    1  A    between atoms: N_1  and  C_2
REMARK    2  A    between atoms: C_2  and  C_3
REMARK    3  A    between atoms: C_6  and  C_7
REMARK    4  A    between atoms: C_7  and  N_8
REMARK    5  A    between atoms: C_13  and  C_14
REMARK                            x       y       z     vdW  Elec       q    Type
REMARK                         _______ _______ _______ _____ _____    ______ ____
ROOT
ATOM      1  N   UNL     1      43.947   4.398  10.498  0.00  0.00    +0.000 N 
ATOM      2  C   UNL     1      43.379   3.277  11.039  0.00  0.00    +0.000 A 
ATOM      3  N   UNL     1      43.895   2.181  10.535  0.00  0.00    +0.000 NA
ATOM      4  C   UNL     1      44.801   2.611   9.602  0.00  0.00    +0.000 A 
ATOM      5  C   UNL     1      45.623   1.848   8.758  0.00  0.00    +0.000 A 
ATOM      6  C   UNL     1      46.443   2.514   7.836  0.00  0.00    +0.000 A 
ATOM      7  C   UNL     1      46.464   3.917   7.797  0.00  0.00    +0.000 A 
ATOM      8  C   UNL     1      45.676   4.693   8.656  0.00  0.00    +0.000 A 
ATOM      9  C   UNL     1      44.844   4.000   9.539  0.00  0.00    +0.000 A 
ENDROOT
BRANCH   6  10
ATOM     10  C   UNL     1      47.292   1.779   6.857  0.00  0.00    +0.000 C 
ATOM     11  N   UNL     1      48.325   2.441   6.263  0.00  0.00    +0.000 N 
ATOM     12  O   UNL     1      47.084   0.597   6.592  0.00  0.00    +0.000 OA
ATOM     13  H   UNL     1      48.590   3.397   6.436  0.00  0.00    +0.000 HD
ATOM     14  H   UNL     1      48.903   1.901   5.626  0.00  0.00    +0.000 HD
ENDBRANCH   6  10
BRANCH   1  15
ATOM     15  C   UNL     1      43.668   5.765  10.901  0.00  0.00    +0.000 C 
BRANCH  15  19
ATOM     16  C   UNL     1      47.176   6.121  12.588  0.00  0.00    +0.000 C 
ATOM     17  C   UNL     1      46.383   4.809  12.503  0.00  0.00    +0.000 C 
ATOM     18  C   UNL     1      44.934   4.935  12.970  0.00  0.00    +0.000 C 
ATOM     19  C   UNL     1      44.157   6.098  12.324  0.00  0.00    +0.000 C 
ATOM     20  C   UNL     1      44.968   7.403  12.322  0.00  0.00    +0.000 C 
ATOM     21  C   UNL     1      46.413   7.235  11.853  0.00  0.00    +0.000 C 
BRANCH  16  22
ATOM     22  C   UNL     1      47.541   6.536  14.031  0.00  0.00    +0.000 C 
BRANCH  22  23
ATOM     23  N   UNL     1      47.820   5.385  14.887  0.00  0.00    +0.000 NA
ATOM     24  H   UNL     1      46.965   5.103  15.363  0.00  0.00    +0.000 HD
ATOM     25  H   UNL     1      48.481   5.642  15.618  0.00  0.00    +0.000 HD
ENDBRANCH  22  23
ENDBRANCH  16  22
ENDBRANCH  15  19
ENDBRANCH   1  15
TORSDOF 5
ENDMDL
MODEL 2
REMARK VINA RESULT:    -7.489      1.338      1.500
REMARK INTER + INTRA:          -9.435
REMARK INTER:                  -8.804
REMARK INTRA:                  -0.631
REMARK UNBOUND:                 0.025
REMARK  Name = 
REMARK  5 active torsions:
REMARK  status: ('A' for Active; 'I' for Inactive)
REMARK    1  A    between atoms: N_1  and  C_2
REMARK    2  A    between atoms: C_2  and  C_3
REMARK    3  A    between atoms: C_6  and  C_7
REMARK    4  A    between atoms: C_7  and  N_8
REMARK    5  A    between atoms: C_13  and  C_14
REMARK                            x       y       z     vdW  Elec       q    Type
REMARK                         _______ _______ _______ _____ _____    ______ ____
ROOT
ATOM      1  N   UNL     1      44.260   4.950  10.692  0.00  0.00    +0.000 N 
ATOM      2  C   UNL     1      43.536   3.927  11.242  0.00  0.00    +0.000 A 
ATOM      3  N   UNL     1      43.809   2.778  10.671  0.00  0.00    +0.000 NA
ATOM      4  C   UNL     1      44.713   3.076   9.686  0.00  0.00    +0.000 A 
ATOM      5  C   UNL     1      45.323   2.215   8.762  0.00  0.00    +0.000 A 
ATOM      6  C   UNL     1      46.185   2.760   7.801  0.00  0.00    +0.000 A 
ATOM      7  C   UNL     1      46.458   4.137   7.799  0.00  0.00    +0.000 A 
ATOM      8  C   UNL     1      45.884   5.005   8.735  0.00  0.00    +0.000 A 
ATOM      9  C   UNL     1      45.002   4.437   9.658  0.00  0.00    +0.000 A 
ENDROOT
BRANCH   6  10
ATOM     10  C   UNL     1      46.819   1.925   6.741  0.00  0.00    +0.000 C 
ATOM     11  N   UNL     1      47.009   2.471   5.507  0.00  0.00    +0.000 N 
ATOM     12  O   UNL     1      47.179   0.772   6.967  0.00  0.00    +0.000 OA
ATOM     13  H   UNL     1      46.773   3.412   5.236  0.00  0.00    +0.000 HD
ATOM     14  H   UNL     1      47.472   1.887   4.818  0.00  0.00    +0.000 HD
ENDBRANCH   6  10
BRANCH   1  15
ATOM     15  C   UNL     1      44.261   6.327  11.152  0.00  0.00    +0.000 C 
BRANCH  15  19
ATOM     16  C   UNL     1      47.536   8.200  12.172  0.00  0.00    +0.000 C 
ATOM     17  C   UNL     1      47.480   6.734  11.717  0.00  0.00    +0.000 C 
ATOM     18  C   UNL     1      46.431   5.902  12.451  0.00  0.00    +0.000 C 
ATOM     19  C   UNL     1      45.024   6.532  12.475  0.00  0.00    +0.000 C 
ATOM     20  C   UNL     1      45.065   8.022  12.846  0.00  0.00    +0.000 C 
ATOM     21  C   UNL     1      46.131   8.820  12.095  0.00  0.00    +0.000 C 
BRANCH  16  22
ATOM     22  C   UNL     1      48.170   8.394  13.568  0.00  0.00    +0.000 C 
BRANCH  22  23
ATOM     23  N   UNL     1      47.931   9.730  14.107  0.00  0.00    +0.000 NA
ATOM     24  H   UNL     1      47.759  10.378  13.339  0.00  0.00    +0.000 HD
ATOM     25  H   UNL     1      48.762  10.071  14.585  0.00  0.00    +0.000 HD
ENDBRANCH  22  23
ENDBRANCH  16  22
ENDBRANCH  15  19
ENDBRANCH   1  15
TORSDOF 5
ENDMDL
MODEL 3
REMARK VINA RESULT:    -6.323      4.340      8.258
REMARK INTER + INTRA:          -7.962
REMARK INTER:                  -7.486
REMARK INTRA:                  -0.476
REMARK UNBOUND:                 0.025
REMARK  Name = 
REMARK  5 active torsions:
REMARK  status: ('A' for Active; 'I' for Inactive)
REMARK    1  A    between atoms: N_1  and  C_2
REMARK    2  A    between atoms: C_2  and  C_3
REMARK    3  A    between atoms: C_6  and  C_7
REMARK    4  A    between atoms: C_7  and  N_8
REMARK    5  A    between atoms: C_13  and  C_14
REMARK                            x       y       z     vdW  Elec       q    Type
REMARK                         _______ _______ _______ _____ _____    ______ ____
ROOT
ATOM      1  N   UNL     1      48.212   6.373  14.435  0.00  0.00    +0.000 N 
ATOM      2  C   UNL     1      48.871   7.559  14.607  0.00  0.00    +0.000 A 
ATOM      3  N   UNL     1      49.337   7.682  15.828  0.00  0.00    +0.000 NA
ATOM      4  C   UNL     1      48.925   6.551  16.481  0.00  0.00    +0.000 A 
ATOM      5  C   UNL     1      49.138   6.180  17.818  0.00  0.00    +0.000 A 
ATOM      6  C   UNL     1      48.571   4.986  18.283  0.00  0.00    +0.000 A 
ATOM      7  C   UNL     1      47.841   4.164  17.409  0.00  0.00    +0.000 A 
ATOM      8  C   UNL     1      47.649   4.503  16.064  0.00  0.00    +0.000 A 
ATOM      9  C   UNL     1      48.197   5.715  15.639  0.00  0.00    +0.000 A 
ENDROOT
BRANCH   6  10
ATOM     10  C   UNL     1      48.689   4.555  19.705  0.00  0.00    +0.000 C 
ATOM     11  N   UNL     1      48.418   3.256  20.018  0.00  0.00    +0.000 N 
ATOM     12  O   UNL     1      49.037   5.341  20.583  0.00  0.00    +0.000 OA
ATOM     13  H   UNL     1      48.154   2.536  19.366  0.00  0.00    +0.000 HD
ATOM     14  H   UNL     1      48.540   2.989  20.990  0.00  0.00    +0.000 HD
ENDBRANCH   6  10
BRANCH   1  15
ATOM     15  C   UNL     1      47.657   5.888  13.183  0.00  0.00    +0.000 C 
BRANCH  15  19
ATOM     16  C   UNL     1      44.884   4.421  10.853  0.00  0.00    +0.000 C 
ATOM     17  C   UNL     1      45.658   5.717  10.572  0.00  0.00    +0.000 C 
ATOM     18  C   UNL     1      45.685   6.685  11.753  0.00  0.00    +0.000 C 
ATOM     19  C   UNL     1      46.128   6.050  13.085  0.00  0.00    +0.000 C 
ATOM     20  C   UNL     1      45.428   4.707  13.345  0.00  0.00    +0.000 C 
ATOM     21  C   UNL     1      45.418   3.769  12.139  0.00  0.00    +0.000 C 
BRANCH  16  22
ATOM     22  C   UNL     1      43.351   4.609  10.902  0.00  0.00    +0.000 C 
BRANCH  22  23
ATOM     23  N   UNL     1      42.669   3.469  11.510  0.00  0.00    +0.000 NA
ATOM     24  H   UNL     1      43.170   2.613  11.277  0.00  0.00    +0.000 HD
ATOM     25  H   UNL     1      41.735   3.367  11.119  0.00  0.00    +0.000 HD
ENDBRANCH  22  23
ENDBRANCH  16  22
ENDBRANCH  15  19
ENDBRANCH   1  15
TORSDOF 5
ENDMDL
MODEL 4
REMARK VINA RESULT:    -6.212      3.475      5.800
REMARK INTER + INTRA:          -7.822
REMARK INTER:                  -7.273
REMARK INTRA:                  -0.549
REMARK UNBOUND:                 0.025
REMARK  Name = 
REMARK  5 active torsions:
REMARK  status: ('A' for Active; 'I' for Inactive)
REMARK    1  A    between atoms: N_1  and  C_2
REMARK    2  A    between atoms: C_2  and  C_3
REMARK    3  A    between atoms: C_6  and  C_7
REMARK    4  A    between atoms: C_7  and  N_8
REMARK    5  A    between atoms: C_13  and  C_14
REMARK                            x       y       z     vdW  Elec       q    Type
REMARK                         _______ _______ _______ _____ _____    ______ ____
ROOT
ATOM      1  N   UNL     1      47.701   6.272  14.032  0.00  0.00    +0.000 N 
ATOM      2  C   UNL     1      47.564   7.557  13.582  0.00  0.00    +0.000 A 
ATOM      3  N   UNL     1      46.605   7.661  12.693  0.00  0.00    +0.000 NA
ATOM      4  C   UNL     1      46.132   6.385  12.531  0.00  0.00    +0.000 A 
ATOM      5  C   UNL     1      45.112   5.927  11.683  0.00  0.00    +0.000 A 
ATOM      6  C   UNL     1      44.833   4.555  11.648  0.00  0.00    +0.000 A 
ATOM      7  C   UNL     1      45.537   3.670  12.479  0.00  0.00    +0.000 A 
ATOM      8  C   UNL     1      46.534   4.116  13.356  0.00  0.00    +0.000 A 
ATOM      9  C   UNL     1      46.814   5.484  13.343  0.00  0.00    +0.000 A 
ENDROOT
BRANCH   6  10
ATOM     10  C   UNL     1      43.815   3.978  10.725  0.00  0.00    +0.000 C 
ATOM     11  N   UNL     1      43.773   4.423   9.437  0.00  0.00    +0.000 N 
ATOM     12  O   UNL     1      43.032   3.108  11.101  0.00  0.00    +0.000 OA
ATOM     13  H   UNL     1      44.388   5.110   9.031  0.00  0.00    +0.000 HD
ATOM     14  H   UNL     1      43.090   3.986   8.827  0.00  0.00    +0.000 HD
ENDBRANCH   6  10
BRANCH   1  15
ATOM     15  C   UNL     1      48.606   5.836  15.080  0.00  0.00    +0.000 C 
BRANCH  15  19
ATOM     16  C   UNL     1      49.693   4.426  18.560  0.00  0.00    +0.000 C 
ATOM     17  C   UNL     1      48.976   3.608  17.477  0.00  0.00    +0.000 C 
ATOM     18  C   UNL     1      47.725   4.284  16.922  0.00  0.00    +0.000 C 
ATOM     19  C   UNL     1      47.940   5.741  16.467  0.00  0.00    +0.000 C 
ATOM     20  C   UNL     1      48.731   6.558  17.500  0.00  0.00    +0.000 C 
ATOM     21  C   UNL     1      49.972   5.845  18.035  0.00  0.00    +0.000 C 
BRANCH  16  22
ATOM     22  C   UNL     1      48.949   4.455  19.914  0.00  0.00    +0.000 C 
BRANCH  22  23
ATOM     23  N   UNL     1      48.338   3.169  20.241  0.00  0.00    +0.000 NA
ATOM     24  H   UNL     1      48.838   2.747  21.022  0.00  0.00    +0.000 HD
ATOM     25  H   UNL     1      48.435   2.524  19.459  0.00  0.00    +0.000 HD
ENDBRANCH  22  23
ENDBRANCH  16  22
ENDBRANCH  15  19
ENDBRANCH   1  15
TORSDOF 5
ENDMDL
MODEL 5
REMARK VINA RESULT:    -6.118      3.376      5.313
REMARK INTER + INTRA:          -7.703
REMARK INTER:                  -7.156
REMARK INTRA:                  -0.546
REMARK UNBOUND:                 0.025
REMARK  Name = 
REMARK  5 active torsions:
REMARK  status: ('A' for Active; 'I' for Inactive)
REMARK    1  A    between atoms: N_1  and  C_2
REMARK    2  A    between atoms: C_2  and  C_3
REMARK    3  A    between atoms: C_6  and  C_7
REMARK    4  A    between atoms: C_7  and  N_8
REMARK    5  A    between atoms: C_13  and  C_14
REMARK                            x       y       z     vdW  Elec       q    Type
REMARK                         _______ _______ _______ _____ _____    ______ ____
ROOT
ATOM      1  N   UNL     1      47.442   6.109  13.977  0.00  0.00    +0.000 N 
ATOM      2  C   UNL     1      47.539   5.155  14.952  0.00  0.00    +0.000 A 
ATOM      3  N   UNL     1      46.871   4.070  14.637  0.00  0.00    +0.000 NA
ATOM      4  C   UNL     1      46.287   4.350  13.430  0.00  0.00    +0.000 A 
ATOM      5  C   UNL     1      45.450   3.539  12.650  0.00  0.00    +0.000 A 
ATOM      6  C   UNL     1      44.922   4.063  11.462  0.00  0.00    +0.000 A 
ATOM      7  C   UNL     1      45.265   5.361  11.050  0.00  0.00    +0.000 A 
ATOM      8  C   UNL     1      46.127   6.170  11.800  0.00  0.00    +0.000 A 
ATOM      9  C   UNL     1      46.609   5.632  12.996  0.00  0.00    +0.000 A 
ENDROOT
BRANCH   6  10
ATOM     10  C   UNL     1      43.970   3.294  10.611  0.00  0.00    +0.000 C 
ATOM     11  N   UNL     1      44.136   3.320   9.258  0.00  0.00    +0.000 N 
ATOM     12  O   UNL     1      43.059   2.636  11.108  0.00  0.00    +0.000 OA
ATOM     13  H   UNL     1      44.866   3.806   8.763  0.00  0.00    +0.000 HD
ATOM     14  H   UNL     1      43.490   2.760   8.711  0.00  0.00    +0.000 HD
ENDBRANCH   6  10
BRANCH   1  15
ATOM     15  C   UNL     1      48.133   7.386  13.973  0.00  0.00    +0.000 C 
BRANCH  15  19
ATOM     16  C   UNL     1      50.399  10.126  12.348  0.00  0.00    +0.000 C 
ATOM     17  C   UNL     1      49.239   9.420  11.630  0.00  0.00    +0.000 C 
ATOM     18  C   UNL     1      49.283   7.898  11.739  0.00  0.00    +0.000 C 
ATOM     19  C   UNL     1      49.453   7.369  13.177  0.00  0.00    +0.000 C 
ATOM     20  C   UNL     1      50.552   8.120  13.943  0.00  0.00    +0.000 C 
ATOM     21  C   UNL     1      50.477   9.640  13.805  0.00  0.00    +0.000 C 
BRANCH  16  22
ATOM     22  C   UNL     1      51.757   9.984  11.625  0.00  0.00    +0.000 C 
BRANCH  22  23
ATOM     23  N   UNL     1      51.662  10.280  10.198  0.00  0.00    +0.000 NA
ATOM     24  H   UNL     1      52.599  10.335   9.802  0.00  0.00    +0.000 HD
ATOM     25  H   UNL     1      51.238  11.194  10.055  0.00  0.00    +0.000 HD
ENDBRANCH  22  23
ENDBRANCH  16  22
ENDBRANCH  15  19
ENDBRANCH   1  15
TORSDOF 5
ENDMDL
MODEL 6
REMARK VINA RESULT:    -5.899      3.269      5.234
REMARK INTER + INTRA:          -7.426
REMARK INTER:                  -6.955
REMARK INTRA:                  -0.471
REMARK UNBOUND:                 0.025
REMARK  Name = 
REMARK  5 active torsions:
REMARK  status: ('A' for Active; 'I' for Inactive)
REMARK    1  A    between atoms: N_1  and  C_2
REMARK    2  A    between atoms: C_2  and  C_3
REMARK    3  A    between atoms: C_6  and  C_7
REMARK    4  A    between atoms: C_7  and  N_8
REMARK    5  A    between atoms: C_13  and  C_14
REMARK                            x       y       z     vdW  Elec       q    Type
REMARK                         _______ _______ _______ _____ _____    ______ ____
ROOT
ATOM      1  N   UNL     1      46.540   7.342  12.951  0.00  0.00    +0.000 N 
ATOM      2  C   UNL     1      45.847   8.248  12.196  0.00  0.00    +0.000 A 
ATOM      3  N   UNL     1      44.908   7.670  11.485  0.00  0.00    +0.000 NA
ATOM      4  C   UNL     1      45.027   6.333  11.760  0.00  0.00    +0.000 A 
ATOM      5  C   UNL     1      44.277   5.261  11.253  0.00  0.00    +0.000 A 
ATOM      6  C   UNL     1      44.616   3.959  11.643  0.00  0.00    +0.000 A 
ATOM      7  C   UNL     1      45.661   3.746  12.556  0.00  0.00    +0.000 A 
ATOM      8  C   UNL     1      46.397   4.807  13.098  0.00  0.00    +0.000 A 
ATOM      9  C   UNL     1      46.057   6.090  12.663  0.00  0.00    +0.000 A 
ENDROOT
BRANCH   6  10
ATOM     10  C   UNL     1      43.916   2.761  11.097  0.00  0.00    +0.000 C 
ATOM     11  N   UNL     1      44.407   2.177   9.968  0.00  0.00    +0.000 N 
ATOM     12  O   UNL     1      42.925   2.293  11.653  0.00  0.00    +0.000 OA
ATOM     13  H   UNL     1      45.225   2.470   9.460  0.00  0.00    +0.000 HD
ATOM     14  H   UNL     1      43.926   1.344   9.642  0.00  0.00    +0.000 HD
ENDBRANCH   6  10
BRANCH   1  15
ATOM     15  C   UNL     1      47.579   7.663  13.913  0.00  0.00    +0.000 C 
BRANCH  15  19
ATOM     16  C   UNL     1      50.919   9.311  12.726  0.00  0.00    +0.000 C 
ATOM     17  C   UNL     1      49.794   8.853  11.786  0.00  0.00    +0.000 C 
ATOM     18  C   UNL     1      49.319   7.426  12.045  0.00  0.00    +0.000 C 
ATOM     19  C   UNL     1      48.970   7.130  13.516  0.00  0.00    +0.000 C 
ATOM     20  C   UNL     1      50.042   7.656  14.482  0.00  0.00    +0.000 C 
ATOM     21  C   UNL     1      50.495   9.085  14.187  0.00  0.00    +0.000 C 
BRANCH  16  22
ATOM     22  C   UNL     1      52.287   8.662  12.421  0.00  0.00    +0.000 C 
BRANCH  22  23
ATOM     23  N   UNL     1      52.598   8.660  10.994  0.00  0.00    +0.000 NA
ATOM     24  H   UNL     1      53.435   9.216  10.830  0.00  0.00    +0.000 HD
ATOM     25  H   UNL     1      51.850   9.111  10.470  0.00  0.00    +0.000 HD
ENDBRANCH  22  23
ENDBRANCH  16  22
ENDBRANCH  15  19
ENDBRANCH   1  15
TORSDOF 5
ENDMDL
MODEL 7
REMARK VINA RESULT:    -5.725      3.350      5.576
REMARK INTER + INTRA:          -7.206
REMARK INTER:                  -6.816
REMARK INTRA:                  -0.390
REMARK UNBOUND:                 0.025
REMARK  Name = 
REMARK  5 active torsions:
REMARK  status: ('A' for Active; 'I' for Inactive)
REMARK    1  A    between atoms: N_1  and  C_2
REMARK    2  A    between atoms: C_2  and  C_3
REMARK    3  A    between atoms: C_6  and  C_7
REMARK    4  A    between atoms: C_7  and  N_8
REMARK    5  A    between atoms: C_13  and  C_14
REMARK                            x       y       z     vdW  Elec       q    Type
REMARK                         _______ _______ _______ _____ _____    ______ ____
ROOT
ATOM      1  N   UNL     1      47.600   5.782  14.285  0.00  0.00    +0.000 N 
ATOM      2  C   UNL     1      47.502   4.711  15.131  0.00  0.00    +0.000 A 
ATOM      3  N   UNL     1      46.723   3.776  14.641  0.00  0.00    +0.000 NA
ATOM      4  C   UNL     1      46.267   4.280  13.451  0.00  0.00    +0.000 A 
ATOM      5  C   UNL     1      45.389   3.694  12.527  0.00  0.00    +0.000 A 
ATOM      6  C   UNL     1      45.020   4.428  11.392  0.00  0.00    +0.000 A 
ATOM      7  C   UNL     1      45.557   5.706  11.173  0.00  0.00    +0.000 A 
ATOM      8  C   UNL     1      46.462   6.291  12.068  0.00  0.00    +0.000 A 
ATOM      9  C   UNL     1      46.783   5.549  13.207  0.00  0.00    +0.000 A 
ENDROOT
BRANCH   6  10
ATOM     10  C   UNL     1      44.038   3.908  10.398  0.00  0.00    +0.000 C 
ATOM     11  N   UNL     1      44.091   4.380   9.120  0.00  0.00    +0.000 N 
ATOM     12  O   UNL     1      43.203   3.061  10.708  0.00  0.00    +0.000 OA
ATOM     13  H   UNL     1      44.753   5.051   8.767  0.00  0.00    +0.000 HD
ATOM     14  H   UNL     1      43.429   3.982   8.461  0.00  0.00    +0.000 HD
ENDBRANCH   6  10
BRANCH   1  15
ATOM     15  C   UNL     1      48.450   6.942  14.485  0.00  0.00    +0.000 C 
BRANCH  15  19
ATOM     16  C   UNL     1      50.604   9.479  16.534  0.00  0.00    +0.000 C 
ATOM     17  C   UNL     1      51.125   8.661  15.344  0.00  0.00    +0.000 C 
ATOM     18  C   UNL     1      50.817   7.168  15.443  0.00  0.00    +0.000 C 
ATOM     19  C   UNL     1      49.340   6.843  15.739  0.00  0.00    +0.000 C 
ATOM     20  C   UNL     1      48.773   7.712  16.872  0.00  0.00    +0.000 C 
ATOM     21  C   UNL     1      49.106   9.197  16.740  0.00  0.00    +0.000 C 
BRANCH  16  22
ATOM     22  C   UNL     1      51.409   9.267  17.836  0.00  0.00    +0.000 C 
BRANCH  22  23
ATOM     23  N   UNL     1      50.778   9.900  18.991  0.00  0.00    +0.000 NA
ATOM     24  H   UNL     1      51.490  10.363  19.553  0.00  0.00    +0.000 HD
ATOM     25  H   UNL     1      50.355   9.195  19.591  0.00  0.00    +0.000 HD
ENDBRANCH  22  23
ENDBRANCH  16  22
ENDBRANCH  15  19
ENDBRANCH   1  15
TORSDOF 5
ENDMDL
MODEL 8
REMARK VINA RESULT:    -5.486      4.230      6.799
REMARK INTER + INTRA:          -6.904
REMARK INTER:                  -6.376
REMARK INTRA:                  -0.528
REMARK UNBOUND:                 0.025
REMARK  Name = 
REMARK  5 active torsions:
REMARK  status: ('A' for Active; 'I' for Inactive)
REMARK    1  A    between atoms: N_1  and  C_2
REMARK    2  A    between atoms: C_2  and  C_3
REMARK    3  A    between atoms: C_6  and  C_7
REMARK    4  A    between atoms: C_7  and  N_8
REMARK    5  A    between atoms: C_13  and  C_14
REMARK                            x       y       z     vdW  Elec       q    Type
REMARK                         _______ _______ _______ _____ _____    ______ ____
ROOT
ATOM      1  N   UNL     1      45.610   8.607  12.356  0.00  0.00    +0.000 N 
ATOM      2  C   UNL     1      45.004   9.823  12.197  0.00  0.00    +0.000 A 
ATOM      3  N   UNL     1      45.860  10.748  11.831  0.00  0.00    +0.000 NA
ATOM      4  C   UNL     1      47.074  10.113  11.792  0.00  0.00    +0.000 A 
ATOM      5  C   UNL     1      48.333  10.643  11.474  0.00  0.00    +0.000 A 
ATOM      6  C   UNL     1      49.455   9.806  11.552  0.00  0.00    +0.000 A 
ATOM      7  C   UNL     1      49.303   8.455  11.903  0.00  0.00    +0.000 A 
ATOM      8  C   UNL     1      48.049   7.903  12.190  0.00  0.00    +0.000 A 
ATOM      9  C   UNL     1      46.955   8.770  12.137  0.00  0.00    +0.000 A 
ENDROOT
BRANCH   6  10
ATOM     10  C   UNL     1      50.835  10.307  11.299  0.00  0.00    +0.000 C 
ATOM     11  N   UNL     1      51.084  10.978  10.139  0.00  0.00    +0.000 N 
ATOM     12  O   UNL     1      51.736  10.136  12.118  0.00  0.00    +0.000 OA
ATOM     13  H   UNL     1      50.407  11.189   9.424  0.00  0.00    +0.000 HD
ATOM     14  H   UNL     1      52.027  11.333  10.013  0.00  0.00    +0.000 HD
ENDBRANCH   6  10
BRANCH   1  15
ATOM     15  C   UNL     1      44.934   7.360  12.667  0.00  0.00    +0.000 C 
BRANCH  15  19
ATOM     16  C   UNL     1      44.270   3.576  11.950  0.00  0.00    +0.000 C 
ATOM     17  C   UNL     1      45.642   4.255  11.831  0.00  0.00    +0.000 C 
ATOM     18  C   UNL     1      45.625   5.537  11.003  0.00  0.00    +0.000 C 
ATOM     19  C   UNL     1      44.538   6.547  11.419  0.00  0.00    +0.000 C 
ATOM     20  C   UNL     1      43.173   5.875  11.627  0.00  0.00    +0.000 C 
ATOM     21  C   UNL     1      43.233   4.593  12.456  0.00  0.00    +0.000 C 
BRANCH  16  22
ATOM     22  C   UNL     1      43.803   2.884  10.650  0.00  0.00    +0.000 C 
BRANCH  22  23
ATOM     23  N   UNL     1      44.901   2.230   9.942  0.00  0.00    +0.000 NA
ATOM     24  H   UNL     1      44.562   1.369   9.516  0.00  0.00    +0.000 HD
ATOM     25  H   UNL     1      45.629   1.955  10.599  0.00  0.00    +0.000 HD
ENDBRANCH  22  23
ENDBRANCH  16  22
ENDBRANCH  15  19
ENDBRANCH   1  15
TORSDOF 5
ENDMDL
MODEL 9
REMARK VINA RESULT:    -5.445      3.970      7.461
REMARK INTER + INTRA:          -6.853
REMARK INTER:                  -6.322
REMARK INTRA:                  -0.531
REMARK UNBOUND:                 0.025
REMARK  Name = 
REMARK  5 active torsions:
REMARK  status: ('A' for Active; 'I' for Inactive)
REMARK    1  A    between atoms: N_1  and  C_2
REMARK    2  A    between atoms: C_2  and  C_3
REMARK    3  A    between atoms: C_6  and  C_7
REMARK    4  A    between atoms: C_7  and  N_8
REMARK    5  A    between atoms: C_13  and  C_14
REMARK                            x       y       z     vdW  Elec       q    Type
REMARK                         _______ _______ _______ _____ _____    ______ ____
ROOT
ATOM      1  N   UNL     1      47.228   7.793  12.742  0.00  0.00    +0.000 N 
ATOM      2  C   UNL     1      47.685   8.785  11.918  0.00  0.00    +0.000 A 
ATOM      3  N   UNL     1      48.910   9.142  12.222  0.00  0.00    +0.000 NA
ATOM      4  C   UNL     1      49.243   8.381  13.311  0.00  0.00    +0.000 A 
ATOM      5  C   UNL     1      50.437   8.374  14.048  0.00  0.00    +0.000 A 
ATOM      6  C   UNL     1      50.532   7.538  15.168  0.00  0.00    +0.000 A 
ATOM      7  C   UNL     1      49.462   6.697  15.512  0.00  0.00    +0.000 A 
ATOM      8  C   UNL     1      48.276   6.666  14.768  0.00  0.00    +0.000 A 
ATOM      9  C   UNL     1      48.199   7.536  13.677  0.00  0.00    +0.000 A 
ENDROOT
BRANCH   6  10
ATOM     10  C   UNL     1      51.737   7.522  16.044  0.00  0.00    +0.000 C 
ATOM     11  N   UNL     1      51.877   8.504  16.980  0.00  0.00    +0.000 N 
ATOM     12  O   UNL     1      52.587   6.641  15.945  0.00  0.00    +0.000 OA
ATOM     13  H   UNL     1      51.223   9.250  17.153  0.00  0.00    +0.000 HD
ATOM     14  H   UNL     1      52.693   8.446  17.581  0.00  0.00    +0.000 HD
ENDBRANCH   6  10
BRANCH   1  15
ATOM     15  C   UNL     1      45.951   7.113  12.620  0.00  0.00    +0.000 C 
BRANCH  15  19
ATOM     16  C   UNL     1      43.390   4.307  11.700  0.00  0.00    +0.000 C 
ATOM     17  C   UNL     1      44.068   4.449  13.071  0.00  0.00    +0.000 C 
ATOM     18  C   UNL     1      45.585   4.603  12.994  0.00  0.00    +0.000 C 
ATOM     19  C   UNL     1      46.063   5.698  12.020  0.00  0.00    +0.000 C 
ATOM     20  C   UNL     1      45.335   5.628  10.669  0.00  0.00    +0.000 C 
ATOM     21  C   UNL     1      43.820   5.469  10.788  0.00  0.00    +0.000 C 
BRANCH  16  22
ATOM     22  C   UNL     1      43.625   2.936  11.029  0.00  0.00    +0.000 C 
BRANCH  22  23
ATOM     23  N   UNL     1      42.998   1.841  11.764  0.00  0.00    +0.000 NA
ATOM     24  H   UNL     1      43.267   0.954  11.342  0.00  0.00    +0.000 HD
ATOM     25  H   UNL     1      41.984   1.897  11.684  0.00  0.00    +0.000 HD
ENDBRANCH  22  23
ENDBRANCH  16  22
ENDBRANCH  15  19
ENDBRANCH   1  15
TORSDOF 5
ENDMDL
