MODEL 1
REMARK VINA RESULT:    -7.886      0.000      0.000
REMARK INTER + INTRA:         -11.650
REMARK INTER:                 -10.652
REMARK INTRA:                  -0.998
REMARK UNBOUND:                -0.998
REMARK  Name = 
REMARK  7 active torsions:
REMARK  status: ('A' for Active; 'I' for Inactive)
REMARK    1  A    between atoms: C_1  and  C_2
REMARK    2  A    between atoms: C_2  and  C_3
REMARK    3  A    between atoms: C_2  and  C_24
REMARK    4  A    between atoms: C_3  and  C_4
REMARK    5  A    between atoms: C_7  and  C_8
REMARK    6  A    between atoms: C_8  and  N_9
REMARK    7  A    between atoms: C_10  and  C_12
REMARK                            x       y       z     vdW  Elec       q    Type
REMARK                         _______ _______ _______ _____ _____    ______ ____
ROOT
ATOM      1  C   UNL     1      47.090   8.203  13.459  0.00  0.00    +0.000 C 
ENDROOT
BRANCH   1   5
ATOM      2  C   UNL     1      44.802   5.752  10.828  0.00  0.00    +0.000 A 
ATOM      3  C   UNL     1      46.143   6.001  10.533  0.00  0.00    +0.000 A 
ATOM      4  C   UNL     1      46.903   6.793  11.386  0.00  0.00    +0.000 A 
ATOM      5  C   UNL     1      46.304   7.316  12.527  0.00  0.00    +0.000 A 
ATOM      6  N   UNL     1      45.017   7.051  12.864  0.00  0.00    +0.000 NA
ATOM      7  C   UNL     1      44.299   6.290  12.009  0.00  0.00    +0.000 A 
BRANCH   2   8
ATOM      8  C   UNL     1      43.920   4.994   9.873  0.00  0.00    +0.000 C 
BRANCH   8  10
ATOM      9  C   UNL     1      44.525   2.891  11.209  0.00  0.00    +0.000 C 
ATOM     10  C   UNL     1      44.151   3.466   9.834  0.00  0.00    +0.000 C 
BRANCH  10  11
ATOM     11  C   UNL     1      45.157   3.055   8.780  0.00  0.00    +0.000 A 
ATOM     12  C   UNL     1      45.680   1.765   8.747  0.00  0.00    +0.000 A 
ATOM     13  N   UNL     1      46.572   1.355   7.814  0.00  0.00    +0.000 NA
ATOM     14  C   UNL     1      46.922   2.287   6.900  0.00  0.00    +0.000 A 
ATOM     15  C   UNL     1      46.400   3.564   6.909  0.00  0.00    +0.000 A 
ATOM     16  N   UNL     1      45.512   3.971   7.844  0.00  0.00    +0.000 NA
ENDBRANCH  10  11
ENDBRANCH   8  10
ENDBRANCH   2   8
ENDBRANCH   1   5
BRANCH   1  17
ATOM     17  N   UNL     1      47.517   7.500  14.646  0.00  0.00    +0.000 N 
ATOM     18  C   UNL     1      48.729   6.868  14.724  0.00  0.00    +0.000 C 
ATOM     19  O   UNL     1      49.535   6.880  13.798  0.00  0.00    +0.000 OA
ATOM     20  H   UNL     1      46.779   7.262  15.302  0.00  0.00    +0.000 HD
BRANCH  18  21
ATOM     21  C   UNL     1      49.051   6.237  16.010  0.00  0.00    +0.000 A 
ATOM     22  C   UNL     1      50.055   6.778  16.804  0.00  0.00    +0.000 A 
ATOM     23  S   UNL     1      50.282   5.950  18.277  0.00  0.00    +0.000 S 
ATOM     24  C   UNL     1      49.079   4.811  17.885  0.00  0.00    +0.000 A 
ATOM     25  N   UNL     1      48.792   3.779  18.725  0.00  0.00    +0.000 NA
ATOM     26  C   UNL     1      47.886   2.973  18.288  0.00  0.00    +0.000 A 
ATOM     27  N   UNL     1      47.227   3.111  17.092  0.00  0.00    +0.000 N 
ATOM     28  C   UNL     1      47.438   4.171  16.243  0.00  0.00    +0.000 A 
ATOM     29  O   UNL     1      46.758   4.323  15.237  0.00  0.00    +0.000 OA
ATOM     30  C   UNL     1      48.485   5.080  16.667  0.00  0.00    +0.000 A 
ATOM     31  H   UNL     1      46.507   2.459  16.818  0.00  0.00    +0.000 HD
ENDBRANCH  18  21
ENDBRANCH   1  17
TORSDOF 6
ENDMDL
MODEL 2
REMARK VINA RESULT:    -7.570      2.665      3.377
REMARK INTER + INTRA:         -11.224
REMARK INTER:                 -10.382
REMARK INTRA:                  -0.842
REMARK UNBOUND:                -0.998
REMARK  Name = 
REMARK  7 active torsions:
REMARK  status: ('A' for Active; 'I' for Inactive)
REMARK    1  A    between atoms: C_1  and  C_2
REMARK    2  A    between atoms: C_2  and  C_3
REMARK    3  A    between atoms: C_2  and  C_24
REMARK    4  A    between atoms: C_3  and  C_4
REMARK    5  A    between atoms: C_7  and  C_8
REMARK    6  A    between atoms: C_8  and  N_9
REMARK    7  A    between atoms: C_10  and  C_12
REMARK                            x       y       z     vdW  Elec       q    Type
REMARK                         _______ _______ _______ _____ _____    ______ ____
ROOT
ATOM      1  C   UNL     1      49.187   7.110  15.615  0.00  0.00    +0.000 C 
ENDROOT
BRANCH   1   5
ATOM      2  C   UNL     1      46.290   4.897  13.407  0.00  0.00    +0.000 A 
ATOM      3  C   UNL     1      46.694   6.147  12.938  0.00  0.00    +0.000 A 
ATOM      4  C   UNL     1      47.643   6.877  13.644  0.00  0.00    +0.000 A 
ATOM      5  C   UNL     1      48.177   6.334  14.808  0.00  0.00    +0.000 A 
ATOM      6  N   UNL     1      47.839   5.100  15.261  0.00  0.00    +0.000 NA
ATOM      7  C   UNL     1      46.903   4.421  14.562  0.00  0.00    +0.000 A 
BRANCH   2   8
ATOM      8  C   UNL     1      45.185   4.129  12.732  0.00  0.00    +0.000 C 
BRANCH   8  10
ATOM      9  C   UNL     1      43.021   4.956  11.632  0.00  0.00    +0.000 C 
ATOM     10  C   UNL     1      44.546   4.831  11.511  0.00  0.00    +0.000 C 
BRANCH  10  11
ATOM     11  C   UNL     1      44.938   4.186  10.198  0.00  0.00    +0.000 A 
ATOM     12  C   UNL     1      45.505   4.933   9.169  0.00  0.00    +0.000 A 
ATOM     13  N   UNL     1      45.879   4.393   7.985  0.00  0.00    +0.000 NA
ATOM     14  C   UNL     1      45.671   3.063   7.866  0.00  0.00    +0.000 A 
ATOM     15  C   UNL     1      45.125   2.305   8.882  0.00  0.00    +0.000 A 
ATOM     16  N   UNL     1      44.750   2.849  10.062  0.00  0.00    +0.000 NA
ENDBRANCH  10  11
ENDBRANCH   8  10
ENDBRANCH   2   8
ENDBRANCH   1   5
BRANCH   1  17
ATOM     17  N   UNL     1      50.216   6.256  16.162  0.00  0.00    +0.000 N 
ATOM     18  C   UNL     1      50.203   5.840  17.465  0.00  0.00    +0.000 C 
ATOM     19  O   UNL     1      49.304   6.149  18.243  0.00  0.00    +0.000 OA
ATOM     20  H   UNL     1      51.076   6.211  15.624  0.00  0.00    +0.000 HD
BRANCH  18  21
ATOM     21  C   UNL     1      51.284   4.933  17.868  0.00  0.00    +0.000 A 
ATOM     22  C   UNL     1      52.424   5.453  18.468  0.00  0.00    +0.000 A 
ATOM     23  S   UNL     1      53.569   4.267  18.904  0.00  0.00    +0.000 S 
ATOM     24  C   UNL     1      52.603   3.021  18.264  0.00  0.00    +0.000 A 
ATOM     25  N   UNL     1      53.027   1.728  18.280  0.00  0.00    +0.000 NA
ATOM     26  C   UNL     1      52.212   0.893  17.731  0.00  0.00    +0.000 A 
ATOM     27  N   UNL     1      51.001   1.229  17.178  0.00  0.00    +0.000 N 
ATOM     28  C   UNL     1      50.505   2.511  17.197  0.00  0.00    +0.000 A 
ATOM     29  O   UNL     1      49.376   2.760  16.793  0.00  0.00    +0.000 OA
ATOM     30  C   UNL     1      51.407   3.496  17.760  0.00  0.00    +0.000 A 
ATOM     31  H   UNL     1      50.396   0.523  16.786  0.00  0.00    +0.000 HD
ENDBRANCH  18  21
ENDBRANCH   1  17
TORSDOF 6
ENDMDL
MODEL 3
REMARK VINA RESULT:    -7.411      3.002      4.594
REMARK INTER + INTRA:         -11.008
REMARK INTER:                 -10.202
REMARK INTRA:                  -0.806
REMARK UNBOUND:                -0.998
REMARK  Name = 
REMARK  7 active torsions:
REMARK  status: ('A' for Active; 'I' for Inactive)
REMARK    1  A    between atoms: C_1  and  C_2
REMARK    2  A    between atoms: C_2  and  C_3
REMARK    3  A    between atoms: C_2  and  C_24
REMARK    4  A    between atoms: C_3  and  C_4
REMARK    5  A    between atoms: C_7  and  C_8
REMARK    6  A    between atoms: C_8  and  N_9
REMARK    7  A    between atoms: C_10  and  C_12
REMARK                            x       y       z     vdW  Elec       q    Type
REMARK                         _______ _______ _______ _____ _____    ______ ____
ROOT
ATOM      1  C   UNL     1      47.668   3.173  16.988  0.00  0.00    +0.000 C 
ENDROOT
BRANCH   1   5
ATOM      2  C   UNL     1      47.135   5.332  13.352  0.00  0.00    +0.000 A 
ATOM      3  C   UNL     1      47.526   6.020  14.500  0.00  0.00    +0.000 A 
ATOM      4  C   UNL     1      47.710   5.327  15.693  0.00  0.00    +0.000 A 
ATOM      5  C   UNL     1      47.506   3.951  15.707  0.00  0.00    +0.000 A 
ATOM      6  N   UNL     1      47.173   3.250  14.594  0.00  0.00    +0.000 NA
ATOM      7  C   UNL     1      46.987   3.952  13.454  0.00  0.00    +0.000 A 
BRANCH   2   8
ATOM      8  C   UNL     1      46.818   6.062  12.074  0.00  0.00    +0.000 C 
BRANCH   8  10
ATOM      9  C   UNL     1      44.369   5.904  12.819  0.00  0.00    +0.000 C 
ATOM     10  C   UNL     1      45.337   5.999  11.631  0.00  0.00    +0.000 C 
BRANCH  10  11
ATOM     11  C   UNL     1      45.076   4.898  10.625  0.00  0.00    +0.000 A 
ATOM     12  C   UNL     1      44.277   3.804  10.946  0.00  0.00    +0.000 A 
ATOM     13  N   UNL     1      44.010   2.804  10.072  0.00  0.00    +0.000 NA
ATOM     14  C   UNL     1      44.571   2.941   8.850  0.00  0.00    +0.000 A 
ATOM     15  C   UNL     1      45.352   4.027   8.511  0.00  0.00    +0.000 A 
ATOM     16  N   UNL     1      45.619   5.021   9.387  0.00  0.00    +0.000 NA
ENDBRANCH  10  11
ENDBRANCH   8  10
ENDBRANCH   2   8
ENDBRANCH   1   5
BRANCH   1  17
ATOM     17  N   UNL     1      49.045   3.124  17.422  0.00  0.00    +0.000 N 
ATOM     18  C   UNL     1      49.953   2.258  16.874  0.00  0.00    +0.000 C 
ATOM     19  O   UNL     1      49.658   1.487  15.966  0.00  0.00    +0.000 OA
ATOM     20  H   UNL     1      49.234   3.553  18.323  0.00  0.00    +0.000 HD
BRANCH  18  21
ATOM     21  C   UNL     1      51.329   2.356  17.378  0.00  0.00    +0.000 A 
ATOM     22  C   UNL     1      52.017   1.197  17.714  0.00  0.00    +0.000 A 
ATOM     23  S   UNL     1      53.610   1.480  18.250  0.00  0.00    +0.000 S 
ATOM     24  C   UNL     1      53.421   3.164  18.099  0.00  0.00    +0.000 A 
ATOM     25  N   UNL     1      54.425   4.015  18.442  0.00  0.00    +0.000 NA
ATOM     26  C   UNL     1      54.134   5.265  18.311  0.00  0.00    +0.000 A 
ATOM     27  N   UNL     1      52.932   5.743  17.852  0.00  0.00    +0.000 N 
ATOM     28  C   UNL     1      51.913   4.921  17.434  0.00  0.00    +0.000 A 
ATOM     29  O   UNL     1      50.896   5.377  16.929  0.00  0.00    +0.000 OA
ATOM     30  C   UNL     1      52.174   3.505  17.609  0.00  0.00    +0.000 A 
ATOM     31  H   UNL     1      52.775   6.735  17.747  0.00  0.00    +0.000 HD
ENDBRANCH  18  21
ENDBRANCH   1  17
TORSDOF 6
ENDMDL
MODEL 4
REMARK VINA RESULT:    -7.026      3.191      8.029
REMARK INTER + INTRA:         -10.489
REMARK INTER:                  -9.571
REMARK INTRA:                  -0.919
REMARK UNBOUND:                -0.998
REMARK  Name = 
REMARK  7 active torsions:
REMARK  status: ('A' for Active; 'I' for Inactive)
REMARK    1  A    between atoms: C_1  and  C_2
REMARK    2  A    between atoms: C_2  and  C_3
REMARK    3  A    between atoms: C_2  and  C_24
REMARK    4  A    between atoms: C_3  and  C_4
REMARK    5  A    between atoms: C_7  and  C_8
REMARK    6  A    between atoms: C_8  and  N_9
REMARK    7  A    between atoms: C_10  and  C_12
REMARK                            x       y       z     vdW  Elec       q    Type
REMARK                         _______ _______ _______ _____ _____    ______ ____
ROOT
ATOM      1  C   UNL     1      48.303   7.668  12.561  0.00  0.00    +0.000 C 
ENDROOT
BRANCH   1   5
ATOM      2  C   UNL     1      49.824   6.386  16.330  0.00  0.00    +0.000 A 
ATOM      3  C   UNL     1      50.495   7.390  15.631  0.00  0.00    +0.000 A 
ATOM      4  C   UNL     1      50.006   7.823  14.403  0.00  0.00    +0.000 A 
ATOM      5  C   UNL     1      48.845   7.244  13.902  0.00  0.00    +0.000 A 
ATOM      6  N   UNL     1      48.145   6.301  14.582  0.00  0.00    +0.000 NA
ATOM      7  C   UNL     1      48.652   5.890  15.765  0.00  0.00    +0.000 A 
BRANCH   2   8
ATOM      8  C   UNL     1      50.383   5.814  17.605  0.00  0.00    +0.000 C 
BRANCH   8  10
ATOM      9  C   UNL     1      49.201   4.487  19.454  0.00  0.00    +0.000 C 
ATOM     10  C   UNL     1      49.786   4.453  18.034  0.00  0.00    +0.000 C 
BRANCH  10  11
ATOM     11  C   UNL     1      50.766   3.310  17.874  0.00  0.00    +0.000 A 
ATOM     12  C   UNL     1      50.377   2.103  17.301  0.00  0.00    +0.000 A 
ATOM     13  N   UNL     1      51.225   1.061  17.131  0.00  0.00    +0.000 NA
ATOM     14  C   UNL     1      52.492   1.272  17.551  0.00  0.00    +0.000 A 
ATOM     15  C   UNL     1      52.897   2.469  18.106  0.00  0.00    +0.000 A 
ATOM     16  N   UNL     1      52.047   3.506  18.278  0.00  0.00    +0.000 NA
ENDBRANCH  10  11
ENDBRANCH   8  10
ENDBRANCH   2   8
ENDBRANCH   1   5
BRANCH   1  17
ATOM     17  N   UNL     1      47.552   6.613  11.921  0.00  0.00    +0.000 N 
ATOM     18  C   UNL     1      46.235   6.759  11.578  0.00  0.00    +0.000 C 
ATOM     19  O   UNL     1      45.619   7.803  11.772  0.00  0.00    +0.000 OA
ATOM     20  H   UNL     1      47.956   5.684  11.993  0.00  0.00    +0.000 HD
BRANCH  18  21
ATOM     21  C   UNL     1      45.614   5.621  10.888  0.00  0.00    +0.000 A 
ATOM     22  C   UNL     1      45.695   5.535   9.504  0.00  0.00    +0.000 A 
ATOM     23  S   UNL     1      44.953   4.141   8.862  0.00  0.00    +0.000 S 
ATOM     24  C   UNL     1      44.456   3.627  10.406  0.00  0.00    +0.000 A 
ATOM     25  N   UNL     1      43.723   2.491  10.564  0.00  0.00    +0.000 NA
ATOM     26  C   UNL     1      43.385   2.240  11.783  0.00  0.00    +0.000 A 
ATOM     27  N   UNL     1      43.726   3.014  12.864  0.00  0.00    +0.000 N 
ATOM     28  C   UNL     1      44.517   4.132  12.760  0.00  0.00    +0.000 A 
ATOM     29  O   UNL     1      44.893   4.739  13.755  0.00  0.00    +0.000 OA
ATOM     30  C   UNL     1      44.883   4.485  11.402  0.00  0.00    +0.000 A 
ATOM     31  H   UNL     1      43.452   2.748  13.799  0.00  0.00    +0.000 HD
ENDBRANCH  18  21
ENDBRANCH   1  17
TORSDOF 6
ENDMDL
MODEL 5
REMARK VINA RESULT:    -7.021      2.497      3.581
REMARK INTER + INTRA:         -10.482
REMARK INTER:                 -10.536
REMARK INTRA:                   0.053
REMARK UNBOUND:                -0.998
REMARK  Name = 
REMARK  7 active torsions:
REMARK  status: ('A' for Active; 'I' for Inactive)
REMARK    1  A    between atoms: C_1  and  C_2
REMARK    2  A    between atoms: C_2  and  C_3
REMARK    3  A    between atoms: C_2  and  C_24
REMARK    4  A    between atoms: C_3  and  C_4
REMARK    5  A    between atoms: C_7  and  C_8
REMARK    6  A    between atoms: C_8  and  N_9
REMARK    7  A    between atoms: C_10  and  C_12
REMARK                            x       y       z     vdW  Elec       q    Type
REMARK                         _______ _______ _______ _____ _____    ______ ____
ROOT
ATOM      1  C   UNL     1      47.555   4.177  15.649  0.00  0.00    +0.000 C 
ENDROOT
BRANCH   1   5
ATOM      2  C   UNL     1      45.736   5.384  11.989  0.00  0.00    +0.000 A 
ATOM      3  C   UNL     1      46.870   6.059  12.440  0.00  0.00    +0.000 A 
ATOM      4  C   UNL     1      47.478   5.672  13.629  0.00  0.00    +0.000 A 
ATOM      5  C   UNL     1      46.939   4.605  14.341  0.00  0.00    +0.000 A 
ATOM      6  N   UNL     1      45.866   3.900  13.902  0.00  0.00    +0.000 NA
ATOM      7  C   UNL     1      45.288   4.309  12.751  0.00  0.00    +0.000 A 
BRANCH   2   8
ATOM      8  C   UNL     1      44.986   5.847  10.768  0.00  0.00    +0.000 C 
BRANCH   8  10
ATOM      9  C   UNL     1      43.304   3.926  11.007  0.00  0.00    +0.000 C 
ATOM     10  C   UNL     1      44.170   4.751  10.043  0.00  0.00    +0.000 C 
BRANCH  10  11
ATOM     11  C   UNL     1      45.033   3.855   9.181  0.00  0.00    +0.000 A 
ATOM     12  C   UNL     1      45.089   2.481   9.400  0.00  0.00    +0.000 A 
ATOM     13  N   UNL     1      45.839   1.644   8.645  0.00  0.00    +0.000 NA
ATOM     14  C   UNL     1      46.535   2.233   7.647  0.00  0.00    +0.000 A 
ATOM     15  C   UNL     1      46.478   3.591   7.407  0.00  0.00    +0.000 A 
ATOM     16  N   UNL     1      45.730   4.424   8.165  0.00  0.00    +0.000 NA
ENDBRANCH  10  11
ENDBRANCH   8  10
ENDBRANCH   2   8
ENDBRANCH   1   5
BRANCH   1  17
ATOM     17  N   UNL     1      47.511   5.228  16.639  0.00  0.00    +0.000 N 
ATOM     18  C   UNL     1      48.640   5.861  17.083  0.00  0.00    +0.000 C 
ATOM     19  O   UNL     1      49.756   5.589  16.650  0.00  0.00    +0.000 OA
ATOM     20  H   UNL     1      46.654   5.280  17.182  0.00  0.00    +0.000 HD
BRANCH  18  21
ATOM     21  C   UNL     1      48.439   6.945  18.052  0.00  0.00    +0.000 A 
ATOM     22  C   UNL     1      48.422   6.653  19.410  0.00  0.00    +0.000 A 
ATOM     23  S   UNL     1      48.211   8.025  20.401  0.00  0.00    +0.000 S 
ATOM     24  C   UNL     1      48.086   9.050  19.049  0.00  0.00    +0.000 A 
ATOM     25  N   UNL     1      47.855  10.383  19.200  0.00  0.00    +0.000 NA
ATOM     26  C   UNL     1      47.747  11.034  18.092  0.00  0.00    +0.000 A 
ATOM     27  N   UNL     1      47.864  10.478  16.843  0.00  0.00    +0.000 N 
ATOM     28  C   UNL     1      48.159   9.150  16.644  0.00  0.00    +0.000 A 
ATOM     29  O   UNL     1      48.364   8.708  15.521  0.00  0.00    +0.000 OA
ATOM     30  C   UNL     1      48.242   8.364  17.859  0.00  0.00    +0.000 A 
ATOM     31  H   UNL     1      47.795  11.048  16.013  0.00  0.00    +0.000 HD
ENDBRANCH  18  21
ENDBRANCH   1  17
TORSDOF 6
ENDMDL
MODEL 6
REMARK VINA RESULT:    -6.798      2.778      8.260
REMARK INTER + INTRA:         -10.180
REMARK INTER:                  -9.026
REMARK INTRA:                  -1.155
REMARK UNBOUND:                -0.998
REMARK  Name = 
REMARK  7 active torsions:
REMARK  status: ('A' for Active; 'I' for Inactive)
REMARK    1  A    between atoms: C_1  and  C_2
REMARK    2  A    between atoms: C_2  and  C_3
REMARK    3  A    between atoms: C_2  and  C_24
REMARK    4  A    between atoms: C_3  and  C_4
REMARK    5  A    between atoms: C_7  and  C_8
REMARK    6  A    between atoms: C_8  and  N_9
REMARK    7  A    between atoms: C_10  and  C_12
REMARK                            x       y       z     vdW  Elec       q    Type
REMARK                         _______ _______ _______ _____ _____    ______ ____
ROOT
ATOM      1  C   UNL     1      47.626   7.676  11.987  0.00  0.00    +0.000 C 
ENDROOT
BRANCH   1   5
ATOM      2  C   UNL     1      49.205   7.891  15.940  0.00  0.00    +0.000 A 
ATOM      3  C   UNL     1      48.214   8.793  15.554  0.00  0.00    +0.000 A 
ATOM      4  C   UNL     1      47.685   8.731  14.269  0.00  0.00    +0.000 A 
ATOM      5  C   UNL     1      48.156   7.755  13.397  0.00  0.00    +0.000 A 
ATOM      6  N   UNL     1      49.083   6.834  13.761  0.00  0.00    +0.000 NA
ATOM      7  C   UNL     1      49.589   6.929  15.011  0.00  0.00    +0.000 A 
BRANCH   2   8
ATOM      8  C   UNL     1      49.880   8.000  17.282  0.00  0.00    +0.000 C 
BRANCH   8  10
ATOM      9  C   UNL     1      49.833   7.537  19.803  0.00  0.00    +0.000 C 
ATOM     10  C   UNL     1      49.103   7.372  18.462  0.00  0.00    +0.000 C 
BRANCH  10  11
ATOM     11  C   UNL     1      48.737   5.924  18.215  0.00  0.00    +0.000 A 
ATOM     12  C   UNL     1      47.407   5.524  18.113  0.00  0.00    +0.000 A 
ATOM     13  N   UNL     1      47.039   4.242  17.881  0.00  0.00    +0.000 NA
ATOM     14  C   UNL     1      48.057   3.363  17.747  0.00  0.00    +0.000 A 
ATOM     15  C   UNL     1      49.380   3.747  17.828  0.00  0.00    +0.000 A 
ATOM     16  N   UNL     1      49.744   5.027  18.063  0.00  0.00    +0.000 NA
ENDBRANCH  10  11
ENDBRANCH   8  10
ENDBRANCH   2   8
ENDBRANCH   1   5
BRANCH   1  17
ATOM     17  N   UNL     1      46.889   6.456  11.752  0.00  0.00    +0.000 N 
ATOM     18  C   UNL     1      45.525   6.397  11.845  0.00  0.00    +0.000 C 
ATOM     19  O   UNL     1      44.844   7.383  12.112  0.00  0.00    +0.000 OA
ATOM     20  H   UNL     1      47.437   5.602  11.791  0.00  0.00    +0.000 HD
BRANCH  18  21
ATOM     21  C   UNL     1      44.908   5.103  11.529  0.00  0.00    +0.000 A 
ATOM     22  C   UNL     1      44.152   4.452  12.496  0.00  0.00    +0.000 A 
ATOM     23  S   UNL     1      43.480   2.980  11.960  0.00  0.00    +0.000 S 
ATOM     24  C   UNL     1      44.215   3.137  10.433  0.00  0.00    +0.000 A 
ATOM     25  N   UNL     1      44.070   2.171   9.484  0.00  0.00    +0.000 NA
ATOM     26  C   UNL     1      44.709   2.402   8.388  0.00  0.00    +0.000 A 
ATOM     27  N   UNL     1      45.469   3.519   8.145  0.00  0.00    +0.000 N 
ATOM     28  C   UNL     1      45.591   4.547   9.049  0.00  0.00    +0.000 A 
ATOM     29  O   UNL     1      46.186   5.578   8.761  0.00  0.00    +0.000 OA
ATOM     30  C   UNL     1      44.931   4.313  10.318  0.00  0.00    +0.000 A 
ATOM     31  H   UNL     1      45.924   3.653   7.255  0.00  0.00    +0.000 HD
ENDBRANCH  18  21
ENDBRANCH   1  17
TORSDOF 6
ENDMDL
MODEL 7
REMARK VINA RESULT:    -6.589      2.952      7.766
REMARK INTER + INTRA:          -9.898
REMARK INTER:                  -8.730
REMARK INTRA:                  -1.169
REMARK UNBOUND:                -0.998
REMARK  Name = 
REMARK  7 active torsions:
REMARK  status: ('A' for Active; 'I' for Inactive)
REMARK    1  A    between atoms: C_1  and  C_2
REMARK    2  A    between atoms: C_2  and  C_3
REMARK    3  A    between atoms: C_2  and  C_24
REMARK    4  A    between atoms: C_3  and  C_4
REMARK    5  A    between atoms: C_7  and  C_8
REMARK    6  A    between atoms: C_8  and  N_9
REMARK    7  A    between atoms: C_10  and  C_12
REMARK                            x       y       z     vdW  Elec       q    Type
REMARK                         _______ _______ _______ _____ _____    ______ ____
ROOT
ATOM      1  C   UNL     1      48.120   8.264  12.022  0.00  0.00    +0.000 C 
ENDROOT
BRANCH   1   5
ATOM      2  C   UNL     1      49.242   7.696  16.095  0.00  0.00    +0.000 A 
ATOM      3  C   UNL     1      50.048   7.167  15.087  0.00  0.00    +0.000 A 
ATOM      4  C   UNL     1      49.698   7.351  13.753  0.00  0.00    +0.000 A 
ATOM      5  C   UNL     1      48.546   8.071  13.456  0.00  0.00    +0.000 A 
ATOM      6  N   UNL     1      47.770   8.637  14.414  0.00  0.00    +0.000 NA
ATOM      7  C   UNL     1      48.127   8.429  15.700  0.00  0.00    +0.000 A 
BRANCH   2   8
ATOM      8  C   UNL     1      49.527   7.421  17.547  0.00  0.00    +0.000 C 
BRANCH   8  10
ATOM      9  C   UNL     1      48.435   7.244  19.861  0.00  0.00    +0.000 C 
ATOM     10  C   UNL     1      48.323   6.902  18.368  0.00  0.00    +0.000 C 
BRANCH  10  11
ATOM     11  C   UNL     1      48.073   5.423  18.163  0.00  0.00    +0.000 A 
ATOM     12  C   UNL     1      47.127   4.972  17.247  0.00  0.00    +0.000 A 
ATOM     13  N   UNL     1      46.881   3.659  17.027  0.00  0.00    +0.000 NA
ATOM     14  C   UNL     1      47.627   2.801  17.758  0.00  0.00    +0.000 A 
ATOM     15  C   UNL     1      48.580   3.232  18.658  0.00  0.00    +0.000 A 
ATOM     16  N   UNL     1      48.820   4.544  18.878  0.00  0.00    +0.000 NA
ENDBRANCH  10  11
ENDBRANCH   8  10
ENDBRANCH   2   8
ENDBRANCH   1   5
BRANCH   1  17
ATOM     17  N   UNL     1      47.465   7.093  11.489  0.00  0.00    +0.000 N 
ATOM     18  C   UNL     1      46.102   6.976  11.444  0.00  0.00    +0.000 C 
ATOM     19  O   UNL     1      45.354   7.868  11.833  0.00  0.00    +0.000 OA
ATOM     20  H   UNL     1      48.047   6.265  11.411  0.00  0.00    +0.000 HD
BRANCH  18  21
ATOM     21  C   UNL     1      45.576   5.752  10.827  0.00  0.00    +0.000 A 
ATOM     22  C   UNL     1      45.789   5.522   9.474  0.00  0.00    +0.000 A 
ATOM     23  S   UNL     1      45.144   4.043   8.922  0.00  0.00    +0.000 S 
ATOM     24  C   UNL     1      44.515   3.680  10.461  0.00  0.00    +0.000 A 
ATOM     25  N   UNL     1      43.796   2.544  10.673  0.00  0.00    +0.000 NA
ATOM     26  C   UNL     1      43.350   2.413  11.876  0.00  0.00    +0.000 A 
ATOM     27  N   UNL     1      43.569   3.307  12.894  0.00  0.00    +0.000 N 
ATOM     28  C   UNL     1      44.341   4.434  12.741  0.00  0.00    +0.000 A 
ATOM     29  O   UNL     1      44.607   5.154  13.695  0.00  0.00    +0.000 OA
ATOM     30  C   UNL     1      44.825   4.653  11.393  0.00  0.00    +0.000 A 
ATOM     31  H   UNL     1      43.214   3.133  13.822  0.00  0.00    +0.000 HD
ENDBRANCH  18  21
ENDBRANCH   1  17
TORSDOF 6
ENDMDL
MODEL 8
REMARK VINA RESULT:    -6.299      3.227      7.720
REMARK INTER + INTRA:          -9.507
REMARK INTER:                  -8.083
REMARK INTRA:                  -1.424
REMARK UNBOUND:                -0.998
REMARK  Name = 
REMARK  7 active torsions:
REMARK  status: ('A' for Active; 'I' for Inactive)
REMARK    1  A    between atoms: C_1  and  C_2
REMARK    2  A    between atoms: C_2  and  C_3
REMARK    3  A    between atoms: C_2  and  C_24
REMARK    4  A    between atoms: C_3  and  C_4
REMARK    5  A    between atoms: C_7  and  C_8
REMARK    6  A    between atoms: C_8  and  N_9
REMARK    7  A    between atoms: C_10  and  C_12
REMARK                            x       y       z     vdW  Elec       q    Type
REMARK                         _______ _______ _______ _____ _____    ______ ____
ROOT
ATOM      1  C   UNL     1      47.972   9.081  14.767  0.00  0.00    +0.000 C 
ENDROOT
BRANCH   1   5
ATOM      2  C   UNL     1      50.791   7.047  17.232  0.00  0.00    +0.000 A 
ATOM      3  C   UNL     1      50.911   6.959  15.845  0.00  0.00    +0.000 A 
ATOM      4  C   UNL     1      50.002   7.623  15.029  0.00  0.00    +0.000 A 
ATOM      5  C   UNL     1      48.992   8.372  15.621  0.00  0.00    +0.000 A 
ATOM      6  N   UNL     1      48.880   8.516  16.966  0.00  0.00    +0.000 NA
ATOM      7  C   UNL     1      49.769   7.847  17.734  0.00  0.00    +0.000 A 
BRANCH   2   8
ATOM      8  C   UNL     1      51.686   6.253  18.146  0.00  0.00    +0.000 C 
BRANCH   8  10
ATOM      9  C   UNL     1      51.912   4.516  20.019  0.00  0.00    +0.000 C 
ATOM     10  C   UNL     1      50.964   5.205  19.026  0.00  0.00    +0.000 C 
BRANCH  10  11
ATOM     11  C   UNL     1      50.196   4.188  18.209  0.00  0.00    +0.000 A 
ATOM     12  C   UNL     1      50.856   3.205  17.477  0.00  0.00    +0.000 A 
ATOM     13  N   UNL     1      50.205   2.271  16.743  0.00  0.00    +0.000 NA
ATOM     14  C   UNL     1      48.856   2.350  16.772  0.00  0.00    +0.000 A 
ATOM     15  C   UNL     1      48.187   3.308  17.506  0.00  0.00    +0.000 A 
ATOM     16  N   UNL     1      48.840   4.241  18.235  0.00  0.00    +0.000 NA
ENDBRANCH  10  11
ENDBRANCH   8  10
ENDBRANCH   2   8
ENDBRANCH   1   5
BRANCH   1  17
ATOM     17  N   UNL     1      47.025   8.162  14.178  0.00  0.00    +0.000 N 
ATOM     18  C   UNL     1      46.810   8.101  12.828  0.00  0.00    +0.000 C 
ATOM     19  O   UNL     1      47.425   8.807  12.034  0.00  0.00    +0.000 OA
ATOM     20  H   UNL     1      46.340   7.772  14.818  0.00  0.00    +0.000 HD
BRANCH  18  21
ATOM     21  C   UNL     1      45.857   7.083  12.368  0.00  0.00    +0.000 A 
ATOM     22  C   UNL     1      44.751   7.470  11.623  0.00  0.00    +0.000 A 
ATOM     23  S   UNL     1      43.763   6.168  11.140  0.00  0.00    +0.000 S 
ATOM     24  C   UNL     1      44.752   5.045  11.949  0.00  0.00    +0.000 A 
ATOM     25  N   UNL     1      44.441   3.720  11.964  0.00  0.00    +0.000 NA
ATOM     26  C   UNL     1      45.257   2.989  12.644  0.00  0.00    +0.000 A 
ATOM     27  N   UNL     1      46.368   3.458  13.299  0.00  0.00    +0.000 N 
ATOM     28  C   UNL     1      46.756   4.776  13.258  0.00  0.00    +0.000 A 
ATOM     29  O   UNL     1      47.810   5.143  13.762  0.00  0.00    +0.000 OA
ATOM     30  C   UNL     1      45.843   5.649  12.547  0.00  0.00    +0.000 A 
ATOM     31  H   UNL     1      46.983   2.828  13.793  0.00  0.00    +0.000 HD
ENDBRANCH  18  21
ENDBRANCH   1  17
TORSDOF 6
ENDMDL
MODEL 9
REMARK VINA RESULT:    -6.174      3.277      8.108
REMARK INTER + INTRA:          -9.339
REMARK INTER:                  -8.166
REMARK INTRA:                  -1.172
REMARK UNBOUND:                -0.998
REMARK  Name = 
REMARK  7 active torsions:
REMARK  status: ('A' for Active; 'I' for Inactive)
REMARK    1  A    between atoms: C_1  and  C_2
REMARK    2  A    between atoms: C_2  and  C_3
REMARK    3  A    between atoms: C_2  and  C_24
REMARK    4  A    between atoms: C_3  and  C_4
REMARK    5  A    between atoms: C_7  and  C_8
REMARK    6  A    between atoms: C_8  and  N_9
REMARK    7  A    between atoms: C_10  and  C_12
REMARK                            x       y       z     vdW  Elec       q    Type
REMARK                         _______ _______ _______ _____ _____    ______ ____
ROOT
ATOM      1  C   UNL     1      48.472   8.600  14.383  0.00  0.00    +0.000 C 
ENDROOT
BRANCH   1   5
ATOM      2  C   UNL     1      50.782   7.110  17.639  0.00  0.00    +0.000 A 
ATOM      3  C   UNL     1      51.281   6.994  16.342  0.00  0.00    +0.000 A 
ATOM      4  C   UNL     1      50.541   7.482  15.270  0.00  0.00    +0.000 A 
ATOM      5  C   UNL     1      49.314   8.087  15.523  0.00  0.00    +0.000 A 
ATOM      6  N   UNL     1      48.827   8.256  16.778  0.00  0.00    +0.000 NA
ATOM      7  C   UNL     1      49.562   7.759  17.797  0.00  0.00    +0.000 A 
BRANCH   2   8
ATOM      8  C   UNL     1      51.501   6.494  18.810  0.00  0.00    +0.000 C 
BRANCH   8  10
ATOM      9  C   UNL     1      51.534   4.748  20.688  0.00  0.00    +0.000 C 
ATOM     10  C   UNL     1      50.716   5.392  19.559  0.00  0.00    +0.000 C 
BRANCH  10  11
ATOM     11  C   UNL     1      50.151   4.342  18.626  0.00  0.00    +0.000 A 
ATOM     12  C   UNL     1      50.987   3.549  17.845  0.00  0.00    +0.000 A 
ATOM     13  N   UNL     1      50.524   2.591  17.007  0.00  0.00    +0.000 NA
ATOM     14  C   UNL     1      49.180   2.448  16.981  0.00  0.00    +0.000 A 
ATOM     15  C   UNL     1      48.339   3.215  17.761  0.00  0.00    +0.000 A 
ATOM     16  N   UNL     1      48.805   4.172  18.594  0.00  0.00    +0.000 NA
ENDBRANCH  10  11
ENDBRANCH   8  10
ENDBRANCH   2   8
ENDBRANCH   1   5
BRANCH   1  17
ATOM     17  N   UNL     1      47.454   7.653  13.992  0.00  0.00    +0.000 N 
ATOM     18  C   UNL     1      47.672   6.700  13.034  0.00  0.00    +0.000 C 
ATOM     19  O   UNL     1      48.753   6.577  12.466  0.00  0.00    +0.000 OA
ATOM     20  H   UNL     1      46.504   7.902  14.251  0.00  0.00    +0.000 HD
BRANCH  18  21
ATOM     21  C   UNL     1      46.563   5.773  12.777  0.00  0.00    +0.000 A 
ATOM     22  C   UNL     1      46.721   4.422  13.061  0.00  0.00    +0.000 A 
ATOM     23  S   UNL     1      45.332   3.489  12.737  0.00  0.00    +0.000 S 
ATOM     24  C   UNL     1      44.486   4.848  12.159  0.00  0.00    +0.000 A 
ATOM     25  N   UNL     1      43.219   4.730  11.678  0.00  0.00    +0.000 NA
ATOM     26  C   UNL     1      42.711   5.832  11.240  0.00  0.00    +0.000 A 
ATOM     27  N   UNL     1      43.349   7.047  11.254  0.00  0.00    +0.000 N 
ATOM     28  C   UNL     1      44.603   7.224  11.789  0.00  0.00    +0.000 A 
ATOM     29  O   UNL     1      45.100   8.339  11.885  0.00  0.00    +0.000 OA
ATOM     30  C   UNL     1      45.237   6.004  12.249  0.00  0.00    +0.000 A 
ATOM     31  H   UNL     1      42.886   7.880  10.921  0.00  0.00    +0.000 HD
ENDBRANCH  18  21
ENDBRANCH   1  17
TORSDOF 6
ENDMDL
