MODEL 1
REMARK VINA RESULT:    -7.571      0.000      0.000
REMARK INTER + INTRA:         -11.234
REMARK INTER:                 -10.226
REMARK INTRA:                  -1.007
REMARK UNBOUND:                -1.007
REMARK  Name = 
REMARK  6 active torsions:
REMARK  status: ('A' for Active; 'I' for Inactive)
REMARK    1  A    between atoms: C_2  and  C_20
REMARK    2  A    between atoms: N_3  and  C_4
REMARK    3  A    between atoms: C_4  and  C_5
REMARK    4  A    between atoms: C_8  and  C_9
REMARK    5  A    between atoms: C_9  and  N_10
REMARK    6  A    between atoms: C_11  and  C_13
REMARK                            x       y       z     vdW  Elec       q    Type
REMARK                         _______ _______ _______ _____ _____    ______ ____
ROOT
ATOM      1  C   UNL     1      46.784   4.108  14.014  0.00  0.00    +0.000 A 
ATOM      2  C   UNL     1      46.876   5.475  13.771  0.00  0.00    +0.000 A 
ATOM      3  C   UNL     1      46.155   6.022  12.709  0.00  0.00    +0.000 A 
ATOM      4  C   UNL     1      45.352   5.200  11.915  0.00  0.00    +0.000 A 
ATOM      5  C   UNL     1      45.297   3.854  12.253  0.00  0.00    +0.000 A 
ATOM      6  N   UNL     1      45.990   3.294  13.272  0.00  0.00    +0.000 NA
ENDROOT
BRANCH   1   7
ATOM      7  C   UNL     1      47.560   3.480  15.150  0.00  0.00    +0.000 C 
BRANCH   7  10
ATOM      8  O   UNL     1      46.749   3.463  17.846  0.00  0.00    +0.000 OA
ATOM      9  C   UNL     1      47.512   4.348  17.464  0.00  0.00    +0.000 C 
ATOM     10  N   UNL     1      47.919   4.448  16.161  0.00  0.00    +0.000 N 
ATOM     11  H   UNL     1      48.708   5.041  15.926  0.00  0.00    +0.000 HD
BRANCH   9  12
ATOM     12  C   UNL     1      47.995   5.392  18.378  0.00  0.00    +0.000 A 
ATOM     13  C   UNL     1      47.101   6.052  19.211  0.00  0.00    +0.000 A 
ATOM     14  S   UNL     1      47.832   7.245  20.188  0.00  0.00    +0.000 S 
ATOM     15  C   UNL     1      49.375   6.892  19.562  0.00  0.00    +0.000 A 
ATOM     16  N   UNL     1      50.481   7.551  20.006  0.00  0.00    +0.000 NA
ATOM     17  C   UNL     1      51.585   7.160  19.467  0.00  0.00    +0.000 A 
ATOM     18  N   UNL     1      51.688   6.176  18.518  0.00  0.00    +0.000 N 
ATOM     19  C   UNL     1      50.596   5.525  18.001  0.00  0.00    +0.000 A 
ATOM     20  O   UNL     1      50.714   4.720  17.084  0.00  0.00    +0.000 OA
ATOM     21  C   UNL     1      49.329   5.898  18.600  0.00  0.00    +0.000 A 
ATOM     22  H   UNL     1      52.581   5.932  18.114  0.00  0.00    +0.000 HD
ENDBRANCH   9  12
ENDBRANCH   7  10
ENDBRANCH   1   7
BRANCH   4  23
ATOM     23  C   UNL     1      44.565   5.742  10.757  0.00  0.00    +0.000 C 
BRANCH  23  24
ATOM     24  N   UNL     1      44.401   4.759   9.709  0.00  0.00    +0.000 N 
ATOM     25  C   UNL     1      45.335   4.641   8.695  0.00  0.00    +0.000 C 
ATOM     26  O   UNL     1      46.365   5.307   8.652  0.00  0.00    +0.000 OA
ATOM     27  H   UNL     1      43.506   4.298   9.603  0.00  0.00    +0.000 HD
BRANCH  25  28
ATOM     28  C   UNL     1      44.936   3.590   7.631  0.00  0.00    +0.000 C 
ATOM     29  C   UNL     1      46.076   3.115   6.748  0.00  0.00    +0.000 C 
ATOM     30  C   UNL     1      46.755   2.042   7.579  0.00  0.00    +0.000 C 
ATOM     31  C   UNL     1      45.664   1.511   8.496  0.00  0.00    +0.000 C 
ATOM     32  N   UNL     1      44.475   2.346   8.286  0.00  0.00    +0.000 NA
ATOM     33  H   UNL     1      44.039   2.555   9.183  0.00  0.00    +0.000 HD
ENDBRANCH  25  28
ENDBRANCH  23  24
ENDBRANCH   4  23
TORSDOF 6
ENDMDL
MODEL 2
REMARK VINA RESULT:    -7.454      2.701      3.375
REMARK INTER + INTRA:         -11.077
REMARK INTER:                 -10.234
REMARK INTRA:                  -0.842
REMARK UNBOUND:                -1.007
REMARK  Name = 
REMARK  6 active torsions:
REMARK  status: ('A' for Active; 'I' for Inactive)
REMARK    1  A    between atoms: C_2  and  C_20
REMARK    2  A    between atoms: N_3  and  C_4
REMARK    3  A    between atoms: C_4  and  C_5
REMARK    4  A    between atoms: C_8  and  C_9
REMARK    5  A    between atoms: C_9  and  N_10
REMARK    6  A    between atoms: C_11  and  C_13
REMARK                            x       y       z     vdW  Elec       q    Type
REMARK                         _______ _______ _______ _____ _____    ______ ____
ROOT
ATOM      1  C   UNL     1      47.191   4.716  15.222  0.00  0.00    +0.000 A 
ATOM      2  C   UNL     1      47.854   5.870  14.813  0.00  0.00    +0.000 A 
ATOM      3  C   UNL     1      47.583   6.391  13.547  0.00  0.00    +0.000 A 
ATOM      4  C   UNL     1      46.653   5.759  12.718  0.00  0.00    +0.000 A 
ATOM      5  C   UNL     1      46.018   4.632  13.224  0.00  0.00    +0.000 A 
ATOM      6  N   UNL     1      46.265   4.100  14.444  0.00  0.00    +0.000 NA
ENDROOT
BRANCH   1   7
ATOM      7  C   UNL     1      47.469   4.118  16.583  0.00  0.00    +0.000 C 
BRANCH   7  10
ATOM      8  O   UNL     1      48.980   5.213  18.691  0.00  0.00    +0.000 OA
ATOM      9  C   UNL     1      49.539   4.469  17.889  0.00  0.00    +0.000 C 
ATOM     10  N   UNL     1      48.883   3.931  16.814  0.00  0.00    +0.000 N 
ATOM     11  H   UNL     1      49.302   3.159  16.305  0.00  0.00    +0.000 HD
BRANCH   9  12
ATOM     12  C   UNL     1      50.969   4.152  18.002  0.00  0.00    +0.000 A 
ATOM     13  C   UNL     1      51.865   5.129  18.412  0.00  0.00    +0.000 A 
ATOM     14  S   UNL     1      53.484   4.592  18.468  0.00  0.00    +0.000 S 
ATOM     15  C   UNL     1      53.038   3.022  17.985  0.00  0.00    +0.000 A 
ATOM     16  N   UNL     1      53.967   2.034  17.861  0.00  0.00    +0.000 NA
ATOM     17  C   UNL     1      53.484   0.889  17.520  0.00  0.00    +0.000 A 
ATOM     18  N   UNL     1      52.157   0.638  17.280  0.00  0.00    +0.000 N 
ATOM     19  C   UNL     1      51.194   1.616  17.338  0.00  0.00    +0.000 A 
ATOM     20  O   UNL     1      50.033   1.379  17.023  0.00  0.00    +0.000 OA
ATOM     21  C   UNL     1      51.677   2.918  17.757  0.00  0.00    +0.000 A 
ATOM     22  H   UNL     1      51.843  -0.276  16.989  0.00  0.00    +0.000 HD
ENDBRANCH   9  12
ENDBRANCH   7  10
ENDBRANCH   1   7
BRANCH   4  23
ATOM     23  C   UNL     1      46.335   6.278  11.345  0.00  0.00    +0.000 C 
BRANCH  23  24
ATOM     24  N   UNL     1      45.411   5.416  10.643  0.00  0.00    +0.000 N 
ATOM     25  C   UNL     1      45.605   5.107   9.307  0.00  0.00    +0.000 C 
ATOM     26  O   UNL     1      46.579   5.489   8.666  0.00  0.00    +0.000 OA
ATOM     27  H   UNL     1      44.517   5.203  11.066  0.00  0.00    +0.000 HD
BRANCH  25  28
ATOM     28  C   UNL     1      44.465   4.239   8.720  0.00  0.00    +0.000 C 
ATOM     29  C   UNL     1      44.926   3.132   7.788  0.00  0.00    +0.000 C 
ATOM     30  C   UNL     1      45.321   2.008   8.728  0.00  0.00    +0.000 C 
ATOM     31  C   UNL     1      44.488   2.236   9.980  0.00  0.00    +0.000 C 
ATOM     32  N   UNL     1      43.772   3.505   9.800  0.00  0.00    +0.000 NA
ATOM     33  H   UNL     1      43.796   4.038  10.668  0.00  0.00    +0.000 HD
ENDBRANCH  25  28
ENDBRANCH  23  24
ENDBRANCH   4  23
TORSDOF 6
ENDMDL
MODEL 3
REMARK VINA RESULT:    -7.306      1.514      1.769
REMARK INTER + INTRA:         -10.876
REMARK INTER:                  -9.786
REMARK INTRA:                  -1.090
REMARK UNBOUND:                -1.007
REMARK  Name = 
REMARK  6 active torsions:
REMARK  status: ('A' for Active; 'I' for Inactive)
REMARK    1  A    between atoms: C_2  and  C_20
REMARK    2  A    between atoms: N_3  and  C_4
REMARK    3  A    between atoms: C_4  and  C_5
REMARK    4  A    between atoms: C_8  and  C_9
REMARK    5  A    between atoms: C_9  and  N_10
REMARK    6  A    between atoms: C_11  and  C_13
REMARK                            x       y       z     vdW  Elec       q    Type
REMARK                         _______ _______ _______ _____ _____    ______ ____
ROOT
ATOM      1  C   UNL     1      46.726   4.430  14.031  0.00  0.00    +0.000 A 
ATOM      2  C   UNL     1      46.984   5.711  13.552  0.00  0.00    +0.000 A 
ATOM      3  C   UNL     1      46.242   6.191  12.472  0.00  0.00    +0.000 A 
ATOM      4  C   UNL     1      45.252   5.390  11.896  0.00  0.00    +0.000 A 
ATOM      5  C   UNL     1      45.043   4.139  12.461  0.00  0.00    +0.000 A 
ATOM      6  N   UNL     1      45.752   3.644  13.503  0.00  0.00    +0.000 NA
ENDROOT
BRANCH   1   7
ATOM      7  C   UNL     1      47.518   3.875  15.192  0.00  0.00    +0.000 C 
BRANCH   7  10
ATOM      8  O   UNL     1      49.496   4.006  17.192  0.00  0.00    +0.000 OA
ATOM      9  C   UNL     1      48.569   4.812  17.224  0.00  0.00    +0.000 C 
ATOM     10  N   UNL     1      47.548   4.786  16.313  0.00  0.00    +0.000 N 
ATOM     11  H   UNL     1      46.928   5.585  16.232  0.00  0.00    +0.000 HD
BRANCH   9  12
ATOM     12  C   UNL     1      48.469   5.825  18.283  0.00  0.00    +0.000 A 
ATOM     13  C   UNL     1      48.322   5.433  19.607  0.00  0.00    +0.000 A 
ATOM     14  S   UNL     1      48.203   6.740  20.698  0.00  0.00    +0.000 S 
ATOM     15  C   UNL     1      48.385   7.876  19.443  0.00  0.00    +0.000 A 
ATOM     16  N   UNL     1      48.403   9.212  19.703  0.00  0.00    +0.000 NA
ATOM     17  C   UNL     1      48.580   9.954  18.663  0.00  0.00    +0.000 A 
ATOM     18  N   UNL     1      48.732   9.486  17.384  0.00  0.00    +0.000 N 
ATOM     19  C   UNL     1      48.666   8.151  17.068  0.00  0.00    +0.000 A 
ATOM     20  O   UNL     1      48.709   7.773  15.903  0.00  0.00    +0.000 OA
ATOM     21  C   UNL     1      48.507   7.267  18.207  0.00  0.00    +0.000 A 
ATOM     22  H   UNL     1      48.841  10.119  16.605  0.00  0.00    +0.000 HD
ENDBRANCH   9  12
ENDBRANCH   7  10
ENDBRANCH   1   7
BRANCH   4  23
ATOM     23  C   UNL     1      44.434   5.860  10.728  0.00  0.00    +0.000 C 
BRANCH  23  24
ATOM     24  N   UNL     1      44.320   4.844   9.706  0.00  0.00    +0.000 N 
ATOM     25  C   UNL     1      45.277   4.727   8.712  0.00  0.00    +0.000 C 
ATOM     26  O   UNL     1      46.286   5.423   8.669  0.00  0.00    +0.000 OA
ATOM     27  H   UNL     1      43.442   4.353   9.596  0.00  0.00    +0.000 HD
BRANCH  25  28
ATOM     28  C   UNL     1      44.930   3.635   7.671  0.00  0.00    +0.000 C 
ATOM     29  C   UNL     1      46.118   3.105   6.886  0.00  0.00    +0.000 C 
ATOM     30  C   UNL     1      46.723   2.061   7.806  0.00  0.00    +0.000 C 
ATOM     31  C   UNL     1      45.566   1.587   8.672  0.00  0.00    +0.000 C 
ATOM     32  N   UNL     1      44.407   2.428   8.348  0.00  0.00    +0.000 NA
ATOM     33  H   UNL     1      43.917   2.683   9.205  0.00  0.00    +0.000 HD
ENDBRANCH  25  28
ENDBRANCH  23  24
ENDBRANCH   4  23
TORSDOF 6
ENDMDL
MODEL 4
REMARK VINA RESULT:    -7.301      3.221      4.477
REMARK INTER + INTRA:         -10.869
REMARK INTER:                  -9.922
REMARK INTRA:                  -0.946
REMARK UNBOUND:                -1.007
REMARK  Name = 
REMARK  6 active torsions:
REMARK  status: ('A' for Active; 'I' for Inactive)
REMARK    1  A    between atoms: C_2  and  C_20
REMARK    2  A    between atoms: N_3  and  C_4
REMARK    3  A    between atoms: C_4  and  C_5
REMARK    4  A    between atoms: C_8  and  C_9
REMARK    5  A    between atoms: C_9  and  N_10
REMARK    6  A    between atoms: C_11  and  C_13
REMARK                            x       y       z     vdW  Elec       q    Type
REMARK                         _______ _______ _______ _____ _____    ______ ____
ROOT
ATOM      1  C   UNL     1      47.944   4.163  16.668  0.00  0.00    +0.000 A 
ATOM      2  C   UNL     1      48.527   5.423  16.568  0.00  0.00    +0.000 A 
ATOM      3  C   UNL     1      48.317   6.175  15.411  0.00  0.00    +0.000 A 
ATOM      4  C   UNL     1      47.524   5.662  14.382  0.00  0.00    +0.000 A 
ATOM      5  C   UNL     1      46.957   4.410  14.584  0.00  0.00    +0.000 A 
ATOM      6  N   UNL     1      47.149   3.656  15.691  0.00  0.00    +0.000 NA
ENDROOT
BRANCH   1   7
ATOM      7  C   UNL     1      48.160   3.317  17.902  0.00  0.00    +0.000 C 
BRANCH   7  10
ATOM      8  O   UNL     1      49.739   1.685  16.239  0.00  0.00    +0.000 OA
ATOM      9  C   UNL     1      50.263   2.214  17.216  0.00  0.00    +0.000 C 
ATOM     10  N   UNL     1      49.554   2.986  18.095  0.00  0.00    +0.000 N 
ATOM     11  H   UNL     1      50.048   3.580  18.753  0.00  0.00    +0.000 HD
BRANCH   9  12
ATOM     12  C   UNL     1      51.681   2.003  17.535  0.00  0.00    +0.000 A 
ATOM     13  C   UNL     1      52.177   0.713  17.673  0.00  0.00    +0.000 A 
ATOM     14  S   UNL     1      53.838   0.657  18.063  0.00  0.00    +0.000 S 
ATOM     15  C   UNL     1      53.962   2.354  18.019  0.00  0.00    +0.000 A 
ATOM     16  N   UNL     1      55.152   2.978  18.240  0.00  0.00    +0.000 NA
ATOM     17  C   UNL     1      55.106   4.262  18.144  0.00  0.00    +0.000 A 
ATOM     18  N   UNL     1      53.978   4.986  17.856  0.00  0.00    +0.000 N 
ATOM     19  C   UNL     1      52.746   4.404  17.680  0.00  0.00    +0.000 A 
ATOM     20  O   UNL     1      51.741   5.087  17.521  0.00  0.00    +0.000 OA
ATOM     21  C   UNL     1      52.747   2.955  17.739  0.00  0.00    +0.000 A 
ATOM     22  H   UNL     1      54.000   5.995  17.821  0.00  0.00    +0.000 HD
ENDBRANCH   9  12
ENDBRANCH   7  10
ENDBRANCH   1   7
BRANCH   4  23
ATOM     23  C   UNL     1      47.276   6.430  13.115  0.00  0.00    +0.000 C 
BRANCH  23  24
ATOM     24  N   UNL     1      46.485   5.674  12.171  0.00  0.00    +0.000 N 
ATOM     25  C   UNL     1      45.459   6.276  11.463  0.00  0.00    +0.000 C 
ATOM     26  O   UNL     1      45.199   7.472  11.548  0.00  0.00    +0.000 OA
ATOM     27  H   UNL     1      46.545   4.663  12.176  0.00  0.00    +0.000 HD
BRANCH  25  28
ATOM     28  C   UNL     1      44.682   5.280  10.567  0.00  0.00    +0.000 C 
ATOM     29  C   UNL     1      44.633   3.857  11.095  0.00  0.00    +0.000 C 
ATOM     30  C   UNL     1      43.489   3.880  12.091  0.00  0.00    +0.000 C 
ATOM     31  C   UNL     1      42.578   5.001  11.614  0.00  0.00    +0.000 C 
ATOM     32  N   UNL     1      43.256   5.663  10.491  0.00  0.00    +0.000 NA
ATOM     33  H   UNL     1      43.152   6.673  10.575  0.00  0.00    +0.000 HD
ENDBRANCH  25  28
ENDBRANCH  23  24
ENDBRANCH   4  23
TORSDOF 6
ENDMDL
MODEL 5
REMARK VINA RESULT:    -7.062      3.513      8.880
REMARK INTER + INTRA:         -10.546
REMARK INTER:                  -9.483
REMARK INTRA:                  -1.063
REMARK UNBOUND:                -1.007
REMARK  Name = 
REMARK  6 active torsions:
REMARK  status: ('A' for Active; 'I' for Inactive)
REMARK    1  A    between atoms: C_2  and  C_20
REMARK    2  A    between atoms: N_3  and  C_4
REMARK    3  A    between atoms: C_4  and  C_5
REMARK    4  A    between atoms: C_8  and  C_9
REMARK    5  A    between atoms: C_9  and  N_10
REMARK    6  A    between atoms: C_11  and  C_13
REMARK                            x       y       z     vdW  Elec       q    Type
REMARK                         _______ _______ _______ _____ _____    ______ ____
ROOT
ATOM      1  C   UNL     1      48.490   7.969  13.502  0.00  0.00    +0.000 A 
ATOM      2  C   UNL     1      48.192   9.028  14.355  0.00  0.00    +0.000 A 
ATOM      3  C   UNL     1      48.390   8.866  15.727  0.00  0.00    +0.000 A 
ATOM      4  C   UNL     1      48.887   7.659  16.221  0.00  0.00    +0.000 A 
ATOM      5  C   UNL     1      49.187   6.670  15.292  0.00  0.00    +0.000 A 
ATOM      6  N   UNL     1      48.999   6.796  13.958  0.00  0.00    +0.000 NA
ENDROOT
BRANCH   1   7
ATOM      7  C   UNL     1      48.278   8.106  12.011  0.00  0.00    +0.000 C 
BRANCH   7  10
ATOM      8  O   UNL     1      45.480   7.840  11.844  0.00  0.00    +0.000 OA
ATOM      9  C   UNL     1      46.186   6.947  11.382  0.00  0.00    +0.000 C 
ATOM     10  N   UNL     1      47.552   6.982  11.462  0.00  0.00    +0.000 N 
ATOM     11  H   UNL     1      48.105   6.355  10.888  0.00  0.00    +0.000 HD
BRANCH   9  12
ATOM     12  C   UNL     1      45.603   5.750  10.761  0.00  0.00    +0.000 A 
ATOM     13  C   UNL     1      45.820   5.494   9.414  0.00  0.00    +0.000 A 
ATOM     14  S   UNL     1      45.053   4.074   8.857  0.00  0.00    +0.000 S 
ATOM     15  C   UNL     1      44.440   3.731  10.407  0.00  0.00    +0.000 A 
ATOM     16  N   UNL     1      43.700   2.611  10.638  0.00  0.00    +0.000 NA
ATOM     17  C   UNL     1      43.329   2.462  11.864  0.00  0.00    +0.000 A 
ATOM     18  N   UNL     1      43.619   3.333  12.882  0.00  0.00    +0.000 N 
ATOM     19  C   UNL     1      44.314   4.501  12.685  0.00  0.00    +0.000 A 
ATOM     20  O   UNL     1      44.473   5.304  13.597  0.00  0.00    +0.000 OA
ATOM     21  C   UNL     1      44.791   4.701  11.330  0.00  0.00    +0.000 A 
ATOM     22  H   UNL     1      43.276   3.175  13.818  0.00  0.00    +0.000 HD
ENDBRANCH   9  12
ENDBRANCH   7  10
ENDBRANCH   1   7
BRANCH   4  23
ATOM     23  C   UNL     1      49.108   7.435  17.690  0.00  0.00    +0.000 C 
BRANCH  23  24
ATOM     24  N   UNL     1      48.694   6.113  18.103  0.00  0.00    +0.000 N 
ATOM     25  C   UNL     1      49.622   5.101  18.278  0.00  0.00    +0.000 C 
ATOM     26  O   UNL     1      50.830   5.272  18.151  0.00  0.00    +0.000 OA
ATOM     27  H   UNL     1      47.711   5.872  18.068  0.00  0.00    +0.000 HD
BRANCH  25  28
ATOM     28  C   UNL     1      48.970   3.745  18.642  0.00  0.00    +0.000 C 
ATOM     29  C   UNL     1      47.692   3.431  17.884  0.00  0.00    +0.000 C 
ATOM     30  C   UNL     1      48.184   2.861  16.566  0.00  0.00    +0.000 C 
ATOM     31  C   UNL     1      49.552   2.274  16.882  0.00  0.00    +0.000 C 
ATOM     32  N   UNL     1      49.866   2.629  18.272  0.00  0.00    +0.000 NA
ATOM     33  H   UNL     1      50.842   2.916  18.341  0.00  0.00    +0.000 HD
ENDBRANCH  25  28
ENDBRANCH  23  24
ENDBRANCH   4  23
TORSDOF 6
ENDMDL
MODEL 6
REMARK VINA RESULT:    -7.025      2.971      9.259
REMARK INTER + INTRA:         -10.496
REMARK INTER:                  -9.383
REMARK INTRA:                  -1.113
REMARK UNBOUND:                -1.007
REMARK  Name = 
REMARK  6 active torsions:
REMARK  status: ('A' for Active; 'I' for Inactive)
REMARK    1  A    between atoms: C_2  and  C_20
REMARK    2  A    between atoms: N_3  and  C_4
REMARK    3  A    between atoms: C_4  and  C_5
REMARK    4  A    between atoms: C_8  and  C_9
REMARK    5  A    between atoms: C_9  and  N_10
REMARK    6  A    between atoms: C_11  and  C_13
REMARK                            x       y       z     vdW  Elec       q    Type
REMARK                         _______ _______ _______ _____ _____    ______ ____
ROOT
ATOM      1  C   UNL     1      48.556   7.602  13.067  0.00  0.00    +0.000 A 
ATOM      2  C   UNL     1      49.840   8.138  13.047  0.00  0.00    +0.000 A 
ATOM      3  C   UNL     1      50.628   8.047  14.195  0.00  0.00    +0.000 A 
ATOM      4  C   UNL     1      50.126   7.417  15.336  0.00  0.00    +0.000 A 
ATOM      5  C   UNL     1      48.846   6.884  15.253  0.00  0.00    +0.000 A 
ATOM      6  N   UNL     1      48.057   6.964  14.156  0.00  0.00    +0.000 NA
ENDROOT
BRANCH   1   7
ATOM      7  C   UNL     1      47.672   7.693  11.844  0.00  0.00    +0.000 C 
BRANCH   7  10
ATOM      8  O   UNL     1      44.877   7.413  12.041  0.00  0.00    +0.000 OA
ATOM      9  C   UNL     1      45.546   6.437  11.711  0.00  0.00    +0.000 C 
ATOM     10  N   UNL     1      46.912   6.482  11.633  0.00  0.00    +0.000 N 
ATOM     11  H   UNL     1      47.412   5.741  11.152  0.00  0.00    +0.000 HD
BRANCH   9  12
ATOM     12  C   UNL     1      44.923   5.137  11.430  0.00  0.00    +0.000 A 
ATOM     13  C   UNL     1      44.150   4.515  12.402  0.00  0.00    +0.000 A 
ATOM     14  S   UNL     1      43.521   3.006  11.912  0.00  0.00    +0.000 S 
ATOM     15  C   UNL     1      44.225   3.151  10.369  0.00  0.00    +0.000 A 
ATOM     16  N   UNL     1      44.047   2.189   9.422  0.00  0.00    +0.000 NA
ATOM     17  C   UNL     1      44.610   2.444   8.291  0.00  0.00    +0.000 A 
ATOM     18  N   UNL     1      45.344   3.569   8.019  0.00  0.00    +0.000 N 
ATOM     19  C   UNL     1      45.596   4.538   8.959  0.00  0.00    +0.000 A 
ATOM     20  O   UNL     1      46.337   5.482   8.711  0.00  0.00    +0.000 OA
ATOM     21  C   UNL     1      44.953   4.320  10.240  0.00  0.00    +0.000 A 
ATOM     22  H   UNL     1      45.784   3.700   7.119  0.00  0.00    +0.000 HD
ENDBRANCH   9  12
ENDBRANCH   7  10
ENDBRANCH   1   7
BRANCH   4  23
ATOM     23  C   UNL     1      50.933   7.302  16.598  0.00  0.00    +0.000 C 
BRANCH  23  24
ATOM     24  N   UNL     1      50.226   6.572  17.626  0.00  0.00    +0.000 N 
ATOM     25  C   UNL     1      50.391   5.204  17.764  0.00  0.00    +0.000 C 
ATOM     26  O   UNL     1      51.169   4.550  17.077  0.00  0.00    +0.000 OA
ATOM     27  H   UNL     1      49.461   7.022  18.112  0.00  0.00    +0.000 HD
BRANCH  25  28
ATOM     28  C   UNL     1      49.488   4.600  18.867  0.00  0.00    +0.000 C 
ATOM     29  C   UNL     1      48.091   5.192  18.940  0.00  0.00    +0.000 C 
ATOM     30  C   UNL     1      47.322   4.437  17.872  0.00  0.00    +0.000 C 
ATOM     31  C   UNL     1      48.040   3.102  17.744  0.00  0.00    +0.000 C 
ATOM     32  N   UNL     1      49.235   3.168  18.596  0.00  0.00    +0.000 NA
ATOM     33  H   UNL     1      50.027   2.751  18.109  0.00  0.00    +0.000 HD
ENDBRANCH  25  28
ENDBRANCH  23  24
ENDBRANCH   4  23
TORSDOF 6
ENDMDL
MODEL 7
REMARK VINA RESULT:    -6.763      2.212      3.289
REMARK INTER + INTRA:         -10.143
REMARK INTER:                  -9.181
REMARK INTRA:                  -0.961
REMARK UNBOUND:                -1.007
REMARK  Name = 
REMARK  6 active torsions:
REMARK  status: ('A' for Active; 'I' for Inactive)
REMARK    1  A    between atoms: C_2  and  C_20
REMARK    2  A    between atoms: N_3  and  C_4
REMARK    3  A    between atoms: C_4  and  C_5
REMARK    4  A    between atoms: C_8  and  C_9
REMARK    5  A    between atoms: C_9  and  N_10
REMARK    6  A    between atoms: C_11  and  C_13
REMARK                            x       y       z     vdW  Elec       q    Type
REMARK                         _______ _______ _______ _____ _____    ______ ____
ROOT
ATOM      1  C   UNL     1      46.477   6.242  12.121  0.00  0.00    +0.000 A 
ATOM      2  C   UNL     1      46.367   6.415  10.744  0.00  0.00    +0.000 A 
ATOM      3  C   UNL     1      45.565   5.536  10.014  0.00  0.00    +0.000 A 
ATOM      4  C   UNL     1      44.882   4.509  10.670  0.00  0.00    +0.000 A 
ATOM      5  C   UNL     1      45.026   4.434  12.050  0.00  0.00    +0.000 A 
ATOM      6  N   UNL     1      45.802   5.267  12.782  0.00  0.00    +0.000 NA
ENDROOT
BRANCH   1   7
ATOM      7  C   UNL     1      47.345   7.169  12.940  0.00  0.00    +0.000 C 
BRANCH   7  10
ATOM      8  O   UNL     1      49.658   7.580  14.493  0.00  0.00    +0.000 OA
ATOM      9  C   UNL     1      48.734   6.926  14.971  0.00  0.00    +0.000 C 
ATOM     10  N   UNL     1      47.595   6.647  14.265  0.00  0.00    +0.000 N 
ATOM     11  H   UNL     1      46.774   6.304  14.751  0.00  0.00    +0.000 HD
BRANCH   9  12
ATOM     12  C   UNL     1      48.818   6.351  16.321  0.00  0.00    +0.000 A 
ATOM     13  C   UNL     1      49.339   7.105  17.364  0.00  0.00    +0.000 A 
ATOM     14  S   UNL     1      49.378   6.273  18.854  0.00  0.00    +0.000 S 
ATOM     15  C   UNL     1      48.661   4.892  18.166  0.00  0.00    +0.000 A 
ATOM     16  N   UNL     1      48.382   3.794  18.921  0.00  0.00    +0.000 NA
ATOM     17  C   UNL     1      47.811   2.835  18.277  0.00  0.00    +0.000 A 
ATOM     18  N   UNL     1      47.499   2.865  16.942  0.00  0.00    +0.000 N 
ATOM     19  C   UNL     1      47.812   3.928  16.130  0.00  0.00    +0.000 A 
ATOM     20  O   UNL     1      47.607   3.882  14.922  0.00  0.00    +0.000 OA
ATOM     21  C   UNL     1      48.422   5.053  16.812  0.00  0.00    +0.000 A 
ATOM     22  H   UNL     1      47.075   2.070  16.487  0.00  0.00    +0.000 HD
ENDBRANCH   9  12
ENDBRANCH   7  10
ENDBRANCH   1   7
BRANCH   4  23
ATOM     23  C   UNL     1      44.015   3.534   9.927  0.00  0.00    +0.000 C 
BRANCH  23  24
ATOM     24  N   UNL     1      44.489   3.307   8.580  0.00  0.00    +0.000 N 
ATOM     25  C   UNL     1      45.371   2.276   8.303  0.00  0.00    +0.000 C 
ATOM     26  O   UNL     1      45.753   1.476   9.151  0.00  0.00    +0.000 OA
ATOM     27  H   UNL     1      44.338   4.020   7.878  0.00  0.00    +0.000 HD
BRANCH  25  28
ATOM     28  C   UNL     1      45.819   2.252   6.822  0.00  0.00    +0.000 C 
ATOM     29  C   UNL     1      46.444   3.544   6.326  0.00  0.00    +0.000 C 
ATOM     30  C   UNL     1      47.888   3.446   6.783  0.00  0.00    +0.000 C 
ATOM     31  C   UNL     1      48.167   1.954   6.880  0.00  0.00    +0.000 C 
ATOM     32  N   UNL     1      46.898   1.258   6.629  0.00  0.00    +0.000 NA
ATOM     33  H   UNL     1      46.794   0.486   7.285  0.00  0.00    +0.000 HD
ENDBRANCH  25  28
ENDBRANCH  23  24
ENDBRANCH   4  23
TORSDOF 6
ENDMDL
MODEL 8
REMARK VINA RESULT:    -6.676      3.383      4.728
REMARK INTER + INTRA:         -10.025
REMARK INTER:                  -9.123
REMARK INTRA:                  -0.902
REMARK UNBOUND:                -1.007
REMARK  Name = 
REMARK  6 active torsions:
REMARK  status: ('A' for Active; 'I' for Inactive)
REMARK    1  A    between atoms: C_2  and  C_20
REMARK    2  A    between atoms: N_3  and  C_4
REMARK    3  A    between atoms: C_4  and  C_5
REMARK    4  A    between atoms: C_8  and  C_9
REMARK    5  A    between atoms: C_9  and  N_10
REMARK    6  A    between atoms: C_11  and  C_13
REMARK                            x       y       z     vdW  Elec       q    Type
REMARK                         _______ _______ _______ _____ _____    ______ ____
ROOT
ATOM      1  C   UNL     1      48.344   5.404  16.107  0.00  0.00    +0.000 A 
ATOM      2  C   UNL     1      48.870   6.654  15.794  0.00  0.00    +0.000 A 
ATOM      3  C   UNL     1      48.597   7.207  14.542  0.00  0.00    +0.000 A 
ATOM      4  C   UNL     1      47.800   6.509  13.631  0.00  0.00    +0.000 A 
ATOM      5  C   UNL     1      47.293   5.283  14.044  0.00  0.00    +0.000 A 
ATOM      6  N   UNL     1      47.547   4.719  15.248  0.00  0.00    +0.000 NA
ENDROOT
BRANCH   1   7
ATOM      7  C   UNL     1      48.629   4.770  17.450  0.00  0.00    +0.000 C 
BRANCH   7  10
ATOM      8  O   UNL     1      50.352   4.984  19.667  0.00  0.00    +0.000 OA
ATOM      9  C   UNL     1      50.745   4.384  18.670  0.00  0.00    +0.000 C 
ATOM     10  N   UNL     1      49.984   4.273  17.538  0.00  0.00    +0.000 N 
ATOM     11  H   UNL     1      50.238   3.595  16.826  0.00  0.00    +0.000 HD
BRANCH   9  12
ATOM     12  C   UNL     1      52.088   3.790  18.610  0.00  0.00    +0.000 A 
ATOM     13  C   UNL     1      53.174   4.479  19.135  0.00  0.00    +0.000 A 
ATOM     14  S   UNL     1      54.656   3.650  18.961  0.00  0.00    +0.000 S 
ATOM     15  C   UNL     1      53.892   2.325  18.216  0.00  0.00    +0.000 A 
ATOM     16  N   UNL     1      54.602   1.229  17.832  0.00  0.00    +0.000 NA
ATOM     17  C   UNL     1      53.891   0.289  17.311  0.00  0.00    +0.000 A 
ATOM     18  N   UNL     1      52.533   0.344  17.128  0.00  0.00    +0.000 N 
ATOM     19  C   UNL     1      51.784   1.449  17.449  0.00  0.00    +0.000 A 
ATOM     20  O   UNL     1      50.589   1.502  17.183  0.00  0.00    +0.000 OA
ATOM     21  C   UNL     1      52.529   2.524  18.076  0.00  0.00    +0.000 A 
ATOM     22  H   UNL     1      52.034  -0.416  16.688  0.00  0.00    +0.000 HD
ENDBRANCH   9  12
ENDBRANCH   7  10
ENDBRANCH   1   7
BRANCH   4  23
ATOM     23  C   UNL     1      47.486   7.059  12.270  0.00  0.00    +0.000 C 
BRANCH  23  24
ATOM     24  N   UNL     1      46.596   6.194  11.529  0.00  0.00    +0.000 N 
ATOM     25  C   UNL     1      45.274   6.547  11.320  0.00  0.00    +0.000 C 
ATOM     26  O   UNL     1      44.800   7.616  11.692  0.00  0.00    +0.000 OA
ATOM     27  H   UNL     1      46.881   5.241  11.339  0.00  0.00    +0.000 HD
BRANCH  25  28
ATOM     28  C   UNL     1      44.470   5.452  10.578  0.00  0.00    +0.000 C 
ATOM     29  C   UNL     1      44.525   4.078  11.223  0.00  0.00    +0.000 C 
ATOM     30  C   UNL     1      43.466   4.144  12.308  0.00  0.00    +0.000 C 
ATOM     31  C   UNL     1      42.472   5.188  11.819  0.00  0.00    +0.000 C 
ATOM     32  N   UNL     1      43.027   5.776  10.593  0.00  0.00    +0.000 NA
ATOM     33  H   UNL     1      42.887   6.785  10.602  0.00  0.00    +0.000 HD
ENDBRANCH  25  28
ENDBRANCH  23  24
ENDBRANCH   4  23
TORSDOF 6
ENDMDL
MODEL 9
REMARK VINA RESULT:    -6.673      1.733      2.205
REMARK INTER + INTRA:         -10.021
REMARK INTER:                  -9.181
REMARK INTRA:                  -0.840
REMARK UNBOUND:                -1.007
REMARK  Name = 
REMARK  6 active torsions:
REMARK  status: ('A' for Active; 'I' for Inactive)
REMARK    1  A    between atoms: C_2  and  C_20
REMARK    2  A    between atoms: N_3  and  C_4
REMARK    3  A    between atoms: C_4  and  C_5
REMARK    4  A    between atoms: C_8  and  C_9
REMARK    5  A    between atoms: C_9  and  N_10
REMARK    6  A    between atoms: C_11  and  C_13
REMARK                            x       y       z     vdW  Elec       q    Type
REMARK                         _______ _______ _______ _____ _____    ______ ____
ROOT
ATOM      1  C   UNL     1      46.847   4.939  14.056  0.00  0.00    +0.000 A 
ATOM      2  C   UNL     1      47.372   5.807  13.103  0.00  0.00    +0.000 A 
ATOM      3  C   UNL     1      46.588   6.157  12.002  0.00  0.00    +0.000 A 
ATOM      4  C   UNL     1      45.295   5.644  11.877  0.00  0.00    +0.000 A 
ATOM      5  C   UNL     1      44.844   4.811  12.893  0.00  0.00    +0.000 A 
ATOM      6  N   UNL     1      45.584   4.449  13.968  0.00  0.00    +0.000 NA
ENDROOT
BRANCH   1   7
ATOM      7  C   UNL     1      47.673   4.531  15.254  0.00  0.00    +0.000 C 
BRANCH   7  10
ATOM      8  O   UNL     1      49.895   6.259  15.281  0.00  0.00    +0.000 OA
ATOM      9  C   UNL     1      48.986   6.454  16.084  0.00  0.00    +0.000 C 
ATOM     10  N   UNL     1      47.893   5.634  16.162  0.00  0.00    +0.000 N 
ATOM     11  H   UNL     1      47.070   5.940  16.671  0.00  0.00    +0.000 HD
BRANCH   9  12
ATOM     12  C   UNL     1      49.042   7.555  17.056  0.00  0.00    +0.000 A 
ATOM     13  C   UNL     1      49.279   8.852  16.621  0.00  0.00    +0.000 A 
ATOM     14  S   UNL     1      49.331   9.998  17.885  0.00  0.00    +0.000 S 
ATOM     15  C   UNL     1      48.995   8.806  19.053  0.00  0.00    +0.000 A 
ATOM     16  N   UNL     1      48.871   9.129  20.370  0.00  0.00    +0.000 NA
ATOM     17  C   UNL     1      48.585   8.133  21.137  0.00  0.00    +0.000 A 
ATOM     18  N   UNL     1      48.420   6.839  20.713  0.00  0.00    +0.000 N 
ATOM     19  C   UNL     1      48.590   6.459  19.405  0.00  0.00    +0.000 A 
ATOM     20  O   UNL     1      48.530   5.280  19.076  0.00  0.00    +0.000 OA
ATOM     21  C   UNL     1      48.875   7.548  18.490  0.00  0.00    +0.000 A 
ATOM     22  H   UNL     1      48.222   6.097  21.368  0.00  0.00    +0.000 HD
ENDBRANCH   9  12
ENDBRANCH   7  10
ENDBRANCH   1   7
BRANCH   4  23
ATOM     23  C   UNL     1      44.418   5.984  10.707  0.00  0.00    +0.000 C 
BRANCH  23  24
ATOM     24  N   UNL     1      44.245   4.860   9.816  0.00  0.00    +0.000 N 
ATOM     25  C   UNL     1      45.136   4.632   8.780  0.00  0.00    +0.000 C 
ATOM     26  O   UNL     1      46.134   5.320   8.593  0.00  0.00    +0.000 OA
ATOM     27  H   UNL     1      43.366   4.358   9.821  0.00  0.00    +0.000 HD
BRANCH  25  28
ATOM     28  C   UNL     1      44.731   3.429   7.894  0.00  0.00    +0.000 C 
ATOM     29  C   UNL     1      45.732   3.074   6.809  0.00  0.00    +0.000 C 
ATOM     30  C   UNL     1      46.759   2.220   7.530  0.00  0.00    +0.000 C 
ATOM     31  C   UNL     1      46.003   1.601   8.696  0.00  0.00    +0.000 C 
ATOM     32  N   UNL     1      44.660   2.195   8.706  0.00  0.00    +0.000 NA
ATOM     33  H   UNL     1      44.388   2.412   9.664  0.00  0.00    +0.000 HD
ENDBRANCH  25  28
ENDBRANCH  23  24
ENDBRANCH   4  23
TORSDOF 6
ENDMDL
