MODEL 1
REMARK VINA RESULT:    -8.559      0.000      0.000
REMARK INTER + INTRA:         -10.997
REMARK INTER:                 -11.061
REMARK INTRA:                   0.064
REMARK UNBOUND:                 0.064
REMARK  Name = 
REMARK  7 active torsions:
REMARK  status: ('A' for Active; 'I' for Inactive)
REMARK    1  A    between atoms: C_1  and  C_2
REMARK    2  A    between atoms: C_2  and  N_3
REMARK    3  A    between atoms: C_2  and  C_17
REMARK    4  A    between atoms: C_4  and  C_6
REMARK    5  A    between atoms: N_12  and  C_13
REMARK    6  A    between atoms: C_20  and  O_21
REMARK    7  A    between atoms: O_21  and  C_22
REMARK                            x       y       z     vdW  Elec       q    Type
REMARK                         _______ _______ _______ _____ _____    ______ ____
ROOT
ATOM      1  C   UNL     1      47.074   7.820  12.303  0.00  0.00    +0.000 C 
ATOM      2  C   UNL     1      45.979   6.864  12.781  0.00  0.00    +0.000 C 
ENDROOT
BRANCH   2   3
ATOM      3  C   UNL     1      45.591   5.808  11.757  0.00  0.00    +0.000 A 
ATOM      4  C   UNL     1      45.117   4.571  12.213  0.00  0.00    +0.000 A 
ATOM      5  C   UNL     1      44.786   3.551  11.314  0.00  0.00    +0.000 A 
ATOM      6  C   UNL     1      44.898   3.763   9.938  0.00  0.00    +0.000 A 
ATOM      7  C   UNL     1      45.423   4.967   9.472  0.00  0.00    +0.000 A 
ATOM      8  C   UNL     1      45.777   5.979  10.373  0.00  0.00    +0.000 A 
BRANCH   6   9
ATOM      9  O   UNL     1      44.600   2.814   8.988  0.00  0.00    +0.000 OA
BRANCH   9  10
ATOM     10  C   UNL     1      45.608   2.404   8.122  0.00  0.00    +0.000 A 
ATOM     11  C   UNL     1      45.891   3.249   7.058  0.00  0.00    +0.000 A 
ATOM     12  C   UNL     1      46.911   2.888   6.184  0.00  0.00    +0.000 A 
ATOM     13  C   UNL     1      47.603   1.700   6.395  0.00  0.00    +0.000 A 
ATOM     14  C   UNL     1      47.230   0.906   7.466  0.00  0.00    +0.000 A 
ATOM     15  N   UNL     1      46.239   1.223   8.324  0.00  0.00    +0.000 NA
ENDBRANCH   9  10
ENDBRANCH   6   9
ENDBRANCH   2   3
BRANCH   2  16
ATOM     16  N   UNL     1      46.385   6.180  13.989  0.00  0.00    +0.000 N 
ATOM     17  C   UNL     1      47.631   5.656  14.203  0.00  0.00    +0.000 C 
ATOM     18  O   UNL     1      48.560   5.797  13.413  0.00  0.00    +0.000 OA
ATOM     19  H   UNL     1      45.623   5.882  14.582  0.00  0.00    +0.000 HD
BRANCH  17  20
ATOM     20  C   UNL     1      47.808   4.979  15.497  0.00  0.00    +0.000 A 
ATOM     21  C   UNL     1      47.364   3.679  15.685  0.00  0.00    +0.000 A 
ATOM     22  S   UNL     1      47.792   3.033  17.207  0.00  0.00    +0.000 S 
ATOM     23  C   UNL     1      48.541   4.488  17.679  0.00  0.00    +0.000 A 
ATOM     24  N   UNL     1      49.159   4.609  18.884  0.00  0.00    +0.000 NA
ATOM     25  C   UNL     1      49.675   5.772  19.107  0.00  0.00    +0.000 A 
ATOM     26  N   UNL     1      49.614   6.854  18.253  0.00  0.00    +0.000 N 
ATOM     27  C   UNL     1      50.216   8.124  18.599  0.00  0.00    +0.000 C 
ATOM     28  C   UNL     1      48.970   6.770  17.025  0.00  0.00    +0.000 A 
ATOM     29  O   UNL     1      48.880   7.728  16.259  0.00  0.00    +0.000 OA
ATOM     30  C   UNL     1      48.433   5.461  16.707  0.00  0.00    +0.000 A 
ENDBRANCH  17  20
ENDBRANCH   2  16
TORSDOF 5
ENDMDL
MODEL 2
REMARK VINA RESULT:    -8.412      2.046      3.072
REMARK INTER + INTRA:         -10.807
REMARK INTER:                  -9.469
REMARK INTRA:                  -1.338
REMARK UNBOUND:                 0.064
REMARK  Name = 
REMARK  7 active torsions:
REMARK  status: ('A' for Active; 'I' for Inactive)
REMARK    1  A    between atoms: C_1  and  C_2
REMARK    2  A    between atoms: C_2  and  N_3
REMARK    3  A    between atoms: C_2  and  C_17
REMARK    4  A    between atoms: C_4  and  C_6
REMARK    5  A    between atoms: N_12  and  C_13
REMARK    6  A    between atoms: C_20  and  O_21
REMARK    7  A    between atoms: O_21  and  C_22
REMARK                            x       y       z     vdW  Elec       q    Type
REMARK                         _______ _______ _______ _____ _____    ______ ____
ROOT
ATOM      1  C   UNL     1      47.731   9.626  12.872  0.00  0.00    +0.000 C 
ATOM      2  C   UNL     1      47.101   8.479  13.663  0.00  0.00    +0.000 C 
ENDROOT
BRANCH   2   3
ATOM      3  C   UNL     1      46.312   7.499  12.808  0.00  0.00    +0.000 A 
ATOM      4  C   UNL     1      46.663   6.143  12.842  0.00  0.00    +0.000 A 
ATOM      5  C   UNL     1      45.997   5.207  12.042  0.00  0.00    +0.000 A 
ATOM      6  C   UNL     1      44.946   5.609  11.215  0.00  0.00    +0.000 A 
ATOM      7  C   UNL     1      44.625   6.963  11.127  0.00  0.00    +0.000 A 
ATOM      8  C   UNL     1      45.308   7.903  11.909  0.00  0.00    +0.000 A 
BRANCH   6   9
ATOM      9  O   UNL     1      44.244   4.757  10.395  0.00  0.00    +0.000 OA
BRANCH   9  10
ATOM     10  C   UNL     1      44.946   4.016   9.452  0.00  0.00    +0.000 A 
ATOM     11  C   UNL     1      44.921   2.637   9.606  0.00  0.00    +0.000 A 
ATOM     12  C   UNL     1      45.590   1.857   8.667  0.00  0.00    +0.000 A 
ATOM     13  C   UNL     1      46.262   2.477   7.619  0.00  0.00    +0.000 A 
ATOM     14  C   UNL     1      46.258   3.860   7.565  0.00  0.00    +0.000 A 
ATOM     15  N   UNL     1      45.629   4.643   8.465  0.00  0.00    +0.000 NA
ENDBRANCH   9  10
ENDBRANCH   6   9
ENDBRANCH   2   3
BRANCH   2  16
ATOM     16  N   UNL     1      48.112   7.729  14.375  0.00  0.00    +0.000 N 
ATOM     17  C   UNL     1      48.607   8.069  15.606  0.00  0.00    +0.000 C 
ATOM     18  O   UNL     1      48.168   9.005  16.267  0.00  0.00    +0.000 OA
ATOM     19  H   UNL     1      48.627   7.070  13.809  0.00  0.00    +0.000 HD
BRANCH  17  20
ATOM     20  C   UNL     1      49.652   7.173  16.125  0.00  0.00    +0.000 A 
ATOM     21  C   UNL     1      50.972   7.591  16.201  0.00  0.00    +0.000 A 
ATOM     22  S   UNL     1      51.996   6.455  16.962  0.00  0.00    +0.000 S 
ATOM     23  C   UNL     1      50.716   5.351  17.170  0.00  0.00    +0.000 A 
ATOM     24  N   UNL     1      50.901   4.162  17.801  0.00  0.00    +0.000 NA
ATOM     25  C   UNL     1      49.842   3.425  17.876  0.00  0.00    +0.000 A 
ATOM     26  N   UNL     1      48.605   3.743  17.355  0.00  0.00    +0.000 N 
ATOM     27  C   UNL     1      47.479   2.843  17.483  0.00  0.00    +0.000 C 
ATOM     28  C   UNL     1      48.389   4.940  16.684  0.00  0.00    +0.000 A 
ATOM     29  O   UNL     1      47.303   5.233  16.187  0.00  0.00    +0.000 OA
ATOM     30  C   UNL     1      49.537   5.826  16.633  0.00  0.00    +0.000 A 
ENDBRANCH  17  20
ENDBRANCH   2  16
TORSDOF 5
ENDMDL
MODEL 3
REMARK VINA RESULT:    -8.082      2.151      3.233
REMARK INTER + INTRA:         -10.380
REMARK INTER:                  -9.292
REMARK INTRA:                  -1.088
REMARK UNBOUND:                 0.064
REMARK  Name = 
REMARK  7 active torsions:
REMARK  status: ('A' for Active; 'I' for Inactive)
REMARK    1  A    between atoms: C_1  and  C_2
REMARK    2  A    between atoms: C_2  and  N_3
REMARK    3  A    between atoms: C_2  and  C_17
REMARK    4  A    between atoms: C_4  and  C_6
REMARK    5  A    between atoms: N_12  and  C_13
REMARK    6  A    between atoms: C_20  and  O_21
REMARK    7  A    between atoms: O_21  and  C_22
REMARK                            x       y       z     vdW  Elec       q    Type
REMARK                         _______ _______ _______ _____ _____    ______ ____
ROOT
ATOM      1  C   UNL     1      49.690   7.834  13.393  0.00  0.00    +0.000 C 
ATOM      2  C   UNL     1      48.278   8.072  13.930  0.00  0.00    +0.000 C 
ENDROOT
BRANCH   2   3
ATOM      3  C   UNL     1      47.197   7.295  13.192  0.00  0.00    +0.000 A 
ATOM      4  C   UNL     1      47.165   5.901  13.324  0.00  0.00    +0.000 A 
ATOM      5  C   UNL     1      46.218   5.135  12.633  0.00  0.00    +0.000 A 
ATOM      6  C   UNL     1      45.267   5.757  11.821  0.00  0.00    +0.000 A 
ATOM      7  C   UNL     1      45.325   7.137  11.635  0.00  0.00    +0.000 A 
ATOM      8  C   UNL     1      46.287   7.901  12.307  0.00  0.00    +0.000 A 
BRANCH   6   9
ATOM      9  O   UNL     1      44.307   5.081  11.105  0.00  0.00    +0.000 OA
BRANCH   9  10
ATOM     10  C   UNL     1      44.720   4.196  10.114  0.00  0.00    +0.000 A 
ATOM     11  C   UNL     1      45.443   4.740   9.062  0.00  0.00    +0.000 A 
ATOM     12  C   UNL     1      45.897   3.885   8.063  0.00  0.00    +0.000 A 
ATOM     13  C   UNL     1      45.608   2.527   8.144  0.00  0.00    +0.000 A 
ATOM     14  C   UNL     1      44.853   2.080   9.215  0.00  0.00    +0.000 A 
ATOM     15  N   UNL     1      44.390   2.886  10.192  0.00  0.00    +0.000 NA
ENDBRANCH   9  10
ENDBRANCH   6   9
ENDBRANCH   2   3
BRANCH   2  16
ATOM     16  N   UNL     1      48.194   7.725  15.331  0.00  0.00    +0.000 N 
ATOM     17  C   UNL     1      48.652   8.511  16.354  0.00  0.00    +0.000 C 
ATOM     18  O   UNL     1      49.101   9.640  16.180  0.00  0.00    +0.000 OA
ATOM     19  H   UNL     1      48.006   6.749  15.513  0.00  0.00    +0.000 HD
BRANCH  17  20
ATOM     20  C   UNL     1      48.486   7.940  17.700  0.00  0.00    +0.000 A 
ATOM     21  C   UNL     1      48.070   8.731  18.760  0.00  0.00    +0.000 A 
ATOM     22  S   UNL     1      47.806   7.847  20.198  0.00  0.00    +0.000 S 
ATOM     23  C   UNL     1      48.286   6.390  19.460  0.00  0.00    +0.000 A 
ATOM     24  N   UNL     1      48.261   5.211  20.135  0.00  0.00    +0.000 NA
ATOM     25  C   UNL     1      48.662   4.191  19.450  0.00  0.00    +0.000 A 
ATOM     26  N   UNL     1      49.119   4.229  18.149  0.00  0.00    +0.000 N 
ATOM     27  C   UNL     1      49.557   3.030  17.468  0.00  0.00    +0.000 C 
ATOM     28  C   UNL     1      49.180   5.422  17.438  0.00  0.00    +0.000 A 
ATOM     29  O   UNL     1      49.609   5.484  16.287  0.00  0.00    +0.000 OA
ATOM     30  C   UNL     1      48.678   6.582  18.150  0.00  0.00    +0.000 A 
ENDBRANCH  17  20
ENDBRANCH   2  16
TORSDOF 5
ENDMDL
MODEL 4
REMARK VINA RESULT:    -7.861      2.781      3.860
REMARK INTER + INTRA:         -10.094
REMARK INTER:                  -9.019
REMARK INTRA:                  -1.075
REMARK UNBOUND:                 0.064
REMARK  Name = 
REMARK  7 active torsions:
REMARK  status: ('A' for Active; 'I' for Inactive)
REMARK    1  A    between atoms: C_1  and  C_2
REMARK    2  A    between atoms: C_2  and  N_3
REMARK    3  A    between atoms: C_2  and  C_17
REMARK    4  A    between atoms: C_4  and  C_6
REMARK    5  A    between atoms: N_12  and  C_13
REMARK    6  A    between atoms: C_20  and  O_21
REMARK    7  A    between atoms: O_21  and  C_22
REMARK                            x       y       z     vdW  Elec       q    Type
REMARK                         _______ _______ _______ _____ _____    ______ ____
ROOT
ATOM      1  C   UNL     1      47.204   4.358  16.402  0.00  0.00    +0.000 C 
ATOM      2  C   UNL     1      47.780   5.088  15.188  0.00  0.00    +0.000 C 
ENDROOT
BRANCH   2   3
ATOM      3  C   UNL     1      46.943   4.945  13.926  0.00  0.00    +0.000 A 
ATOM      4  C   UNL     1      46.366   3.700  13.640  0.00  0.00    +0.000 A 
ATOM      5  C   UNL     1      45.622   3.504  12.471  0.00  0.00    +0.000 A 
ATOM      6  C   UNL     1      45.418   4.560  11.581  0.00  0.00    +0.000 A 
ATOM      7  C   UNL     1      46.034   5.787  11.823  0.00  0.00    +0.000 A 
ATOM      8  C   UNL     1      46.799   5.977  12.981  0.00  0.00    +0.000 A 
BRANCH   6   9
ATOM      9  O   UNL     1      44.706   4.452  10.409  0.00  0.00    +0.000 OA
BRANCH   9  10
ATOM     10  C   UNL     1      45.320   3.856   9.313  0.00  0.00    +0.000 A 
ATOM     11  C   UNL     1      45.321   2.468   9.285  0.00  0.00    +0.000 A 
ATOM     12  C   UNL     1      45.902   1.833   8.192  0.00  0.00    +0.000 A 
ATOM     13  C   UNL     1      46.465   2.599   7.176  0.00  0.00    +0.000 A 
ATOM     14  C   UNL     1      46.444   3.977   7.306  0.00  0.00    +0.000 A 
ATOM     15  N   UNL     1      45.898   4.621   8.358  0.00  0.00    +0.000 NA
ENDBRANCH   9  10
ENDBRANCH   6   9
ENDBRANCH   2   3
BRANCH   2  16
ATOM     16  N   UNL     1      47.931   6.500  15.461  0.00  0.00    +0.000 N 
ATOM     17  C   UNL     1      49.133   7.150  15.551  0.00  0.00    +0.000 C 
ATOM     18  O   UNL     1      50.207   6.603  15.317  0.00  0.00    +0.000 OA
ATOM     19  H   UNL     1      47.106   6.948  15.835  0.00  0.00    +0.000 HD
BRANCH  17  20
ATOM     20  C   UNL     1      49.044   8.584  15.864  0.00  0.00    +0.000 A 
ATOM     21  C   UNL     1      49.450   9.539  14.944  0.00  0.00    +0.000 A 
ATOM     22  S   UNL     1      49.132  11.140  15.449  0.00  0.00    +0.000 S 
ATOM     23  C   UNL     1      48.487  10.607  16.932  0.00  0.00    +0.000 A 
ATOM     24  N   UNL     1      47.984  11.482  17.841  0.00  0.00    +0.000 NA
ATOM     25  C   UNL     1      47.538  10.934  18.923  0.00  0.00    +0.000 A 
ATOM     26  N   UNL     1      47.566   9.585  19.210  0.00  0.00    +0.000 N 
ATOM     27  C   UNL     1      47.049   9.067  20.458  0.00  0.00    +0.000 C 
ATOM     28  C   UNL     1      48.095   8.666  18.311  0.00  0.00    +0.000 A 
ATOM     29  O   UNL     1      48.156   7.462  18.556  0.00  0.00    +0.000 OA
ATOM     30  C   UNL     1      48.548   9.234  17.055  0.00  0.00    +0.000 A 
ENDBRANCH  17  20
ENDBRANCH   2  16
TORSDOF 5
ENDMDL
MODEL 5
REMARK VINA RESULT:    -7.643      4.286      7.771
REMARK INTER + INTRA:          -9.812
REMARK INTER:                  -8.634
REMARK INTRA:                  -1.178
REMARK UNBOUND:                 0.064
REMARK  Name = 
REMARK  7 active torsions:
REMARK  status: ('A' for Active; 'I' for Inactive)
REMARK    1  A    between atoms: C_1  and  C_2
REMARK    2  A    between atoms: C_2  and  N_3
REMARK    3  A    between atoms: C_2  and  C_17
REMARK    4  A    between atoms: C_4  and  C_6
REMARK    5  A    between atoms: N_12  and  C_13
REMARK    6  A    between atoms: C_20  and  O_21
REMARK    7  A    between atoms: O_21  and  C_22
REMARK                            x       y       z     vdW  Elec       q    Type
REMARK                         _______ _______ _______ _____ _____    ______ ____
ROOT
ATOM      1  C   UNL     1      45.821   8.964  13.233  0.00  0.00    +0.000 C 
ATOM      2  C   UNL     1      46.367   8.399  11.921  0.00  0.00    +0.000 C 
ENDROOT
BRANCH   2   3
ATOM      3  C   UNL     1      47.885   8.425  11.821  0.00  0.00    +0.000 A 
ATOM      4  C   UNL     1      48.524   9.657  11.622  0.00  0.00    +0.000 A 
ATOM      5  C   UNL     1      49.915   9.731  11.481  0.00  0.00    +0.000 A 
ATOM      6  C   UNL     1      50.693   8.575  11.566  0.00  0.00    +0.000 A 
ATOM      7  C   UNL     1      50.067   7.337  11.704  0.00  0.00    +0.000 A 
ATOM      8  C   UNL     1      48.673   7.260  11.821  0.00  0.00    +0.000 A 
BRANCH   6   9
ATOM      9  O   UNL     1      52.062   8.559  11.433  0.00  0.00    +0.000 OA
BRANCH   9  10
ATOM     10  C   UNL     1      52.623   7.755  10.446  0.00  0.00    +0.000 A 
ATOM     11  C   UNL     1      52.289   8.063   9.135  0.00  0.00    +0.000 A 
ATOM     12  C   UNL     1      52.850   7.299   8.116  0.00  0.00    +0.000 A 
ATOM     13  C   UNL     1      53.712   6.257   8.439  0.00  0.00    +0.000 A 
ATOM     14  C   UNL     1      53.962   6.005   9.777  0.00  0.00    +0.000 A 
ATOM     15  N   UNL     1      53.425   6.720  10.787  0.00  0.00    +0.000 NA
ENDBRANCH   9  10
ENDBRANCH   6   9
ENDBRANCH   2   3
BRANCH   2  16
ATOM     16  N   UNL     1      45.936   7.031  11.731  0.00  0.00    +0.000 N 
ATOM     17  C   UNL     1      44.667   6.661  11.374  0.00  0.00    +0.000 C 
ATOM     18  O   UNL     1      43.789   7.470  11.093  0.00  0.00    +0.000 OA
ATOM     19  H   UNL     1      46.555   6.335  12.120  0.00  0.00    +0.000 HD
BRANCH  17  20
ATOM     20  C   UNL     1      44.450   5.210  11.266  0.00  0.00    +0.000 A 
ATOM     21  C   UNL     1      43.758   4.520  12.250  0.00  0.00    +0.000 A 
ATOM     22  S   UNL     1      43.495   2.877  11.864  0.00  0.00    +0.000 S 
ATOM     23  C   UNL     1      44.339   3.026  10.392  0.00  0.00    +0.000 A 
ATOM     24  N   UNL     1      44.460   1.979   9.535  0.00  0.00    +0.000 NA
ATOM     25  C   UNL     1      45.135   2.239   8.463  0.00  0.00    +0.000 A 
ATOM     26  N   UNL     1      45.734   3.445   8.166  0.00  0.00    +0.000 N 
ATOM     27  C   UNL     1      46.480   3.635   6.940  0.00  0.00    +0.000 C 
ATOM     28  C   UNL     1      45.649   4.528   9.032  0.00  0.00    +0.000 A 
ATOM     29  O   UNL     1      46.198   5.604   8.801  0.00  0.00    +0.000 OA
ATOM     30  C   UNL     1      44.845   4.298  10.218  0.00  0.00    +0.000 A 
ENDBRANCH  17  20
ENDBRANCH   2  16
TORSDOF 5
ENDMDL
MODEL 6
REMARK VINA RESULT:    -7.556      2.600      3.355
REMARK INTER + INTRA:          -9.700
REMARK INTER:                  -9.230
REMARK INTRA:                  -0.471
REMARK UNBOUND:                 0.064
REMARK  Name = 
REMARK  7 active torsions:
REMARK  status: ('A' for Active; 'I' for Inactive)
REMARK    1  A    between atoms: C_1  and  C_2
REMARK    2  A    between atoms: C_2  and  N_3
REMARK    3  A    between atoms: C_2  and  C_17
REMARK    4  A    between atoms: C_4  and  C_6
REMARK    5  A    between atoms: N_12  and  C_13
REMARK    6  A    between atoms: C_20  and  O_21
REMARK    7  A    between atoms: O_21  and  C_22
REMARK                            x       y       z     vdW  Elec       q    Type
REMARK                         _______ _______ _______ _____ _____    ______ ____
ROOT
ATOM      1  C   UNL     1      45.392   9.251  12.651  0.00  0.00    +0.000 C 
ATOM      2  C   UNL     1      45.888   7.868  13.077  0.00  0.00    +0.000 C 
ENDROOT
BRANCH   2   3
ATOM      3  C   UNL     1      45.481   6.747  12.133  0.00  0.00    +0.000 A 
ATOM      4  C   UNL     1      46.246   6.528  10.980  0.00  0.00    +0.000 A 
ATOM      5  C   UNL     1      45.889   5.537  10.057  0.00  0.00    +0.000 A 
ATOM      6  C   UNL     1      44.775   4.729  10.289  0.00  0.00    +0.000 A 
ATOM      7  C   UNL     1      43.971   4.974  11.401  0.00  0.00    +0.000 A 
ATOM      8  C   UNL     1      44.314   5.981  12.312  0.00  0.00    +0.000 A 
BRANCH   6   9
ATOM      9  O   UNL     1      44.352   3.738   9.433  0.00  0.00    +0.000 OA
BRANCH   9  10
ATOM     10  C   UNL     1      45.270   3.197   8.540  0.00  0.00    +0.000 A 
ATOM     11  C   UNL     1      45.639   1.877   8.757  0.00  0.00    +0.000 A 
ATOM     12  C   UNL     1      46.536   1.289   7.870  0.00  0.00    +0.000 A 
ATOM     13  C   UNL     1      47.037   2.038   6.810  0.00  0.00    +0.000 A 
ATOM     14  C   UNL     1      46.635   3.357   6.691  0.00  0.00    +0.000 A 
ATOM     15  N   UNL     1      45.777   3.957   7.541  0.00  0.00    +0.000 NA
ENDBRANCH   9  10
ENDBRANCH   6   9
ENDBRANCH   2   3
BRANCH   2  16
ATOM     16  N   UNL     1      47.330   7.851  13.187  0.00  0.00    +0.000 N 
ATOM     17  C   UNL     1      48.039   8.452  14.192  0.00  0.00    +0.000 C 
ATOM     18  O   UNL     1      47.504   8.994  15.155  0.00  0.00    +0.000 OA
ATOM     19  H   UNL     1      47.815   7.583  12.342  0.00  0.00    +0.000 HD
BRANCH  17  20
ATOM     20  C   UNL     1      49.501   8.328  14.084  0.00  0.00    +0.000 A 
ATOM     21  C   UNL     1      50.198   8.987  13.083  0.00  0.00    +0.000 A 
ATOM     22  S   UNL     1      51.892   8.824  13.221  0.00  0.00    +0.000 S 
ATOM     23  C   UNL     1      51.744   7.828  14.594  0.00  0.00    +0.000 A 
ATOM     24  N   UNL     1      52.838   7.357  15.249  0.00  0.00    +0.000 NA
ATOM     25  C   UNL     1      52.571   6.607  16.267  0.00  0.00    +0.000 A 
ATOM     26  N   UNL     1      51.307   6.249  16.691  0.00  0.00    +0.000 N 
ATOM     27  C   UNL     1      51.111   5.393  17.840  0.00  0.00    +0.000 C 
ATOM     28  C   UNL     1      50.170   6.696  16.029  0.00  0.00    +0.000 A 
ATOM     29  O   UNL     1      49.035   6.368  16.371  0.00  0.00    +0.000 OA
ATOM     30  C   UNL     1      50.424   7.593  14.918  0.00  0.00    +0.000 A 
ENDBRANCH  17  20
ENDBRANCH   2  16
TORSDOF 5
ENDMDL
MODEL 7
REMARK VINA RESULT:    -7.340      2.955      4.125
REMARK INTER + INTRA:          -9.421
REMARK INTER:                  -8.516
REMARK INTRA:                  -0.905
REMARK UNBOUND:                 0.064
REMARK  Name = 
REMARK  7 active torsions:
REMARK  status: ('A' for Active; 'I' for Inactive)
REMARK    1  A    between atoms: C_1  and  C_2
REMARK    2  A    between atoms: C_2  and  N_3
REMARK    3  A    between atoms: C_2  and  C_17
REMARK    4  A    between atoms: C_4  and  C_6
REMARK    5  A    between atoms: N_12  and  C_13
REMARK    6  A    between atoms: C_20  and  O_21
REMARK    7  A    between atoms: O_21  and  C_22
REMARK                            x       y       z     vdW  Elec       q    Type
REMARK                         _______ _______ _______ _____ _____    ______ ____
ROOT
ATOM      1  C   UNL     1      47.023   4.002  16.408  0.00  0.00    +0.000 C 
ATOM      2  C   UNL     1      47.689   4.762  15.260  0.00  0.00    +0.000 C 
ENDROOT
BRANCH   2   3
ATOM      3  C   UNL     1      46.885   4.758  13.968  0.00  0.00    +0.000 A 
ATOM      4  C   UNL     1      46.169   3.604  13.626  0.00  0.00    +0.000 A 
ATOM      5  C   UNL     1      45.448   3.533  12.428  0.00  0.00    +0.000 A 
ATOM      6  C   UNL     1      45.408   4.630  11.566  0.00  0.00    +0.000 A 
ATOM      7  C   UNL     1      46.162   5.764  11.865  0.00  0.00    +0.000 A 
ATOM      8  C   UNL     1      46.904   5.826  13.051  0.00  0.00    +0.000 A 
BRANCH   6   9
ATOM      9  O   UNL     1      44.729   4.643  10.369  0.00  0.00    +0.000 OA
BRANCH   9  10
ATOM     10  C   UNL     1      45.298   3.997   9.277  0.00  0.00    +0.000 A 
ATOM     11  C   UNL     1      45.207   2.612   9.263  0.00  0.00    +0.000 A 
ATOM     12  C   UNL     1      45.741   1.928   8.175  0.00  0.00    +0.000 A 
ATOM     13  C   UNL     1      46.350   2.645   7.150  0.00  0.00    +0.000 A 
ATOM     14  C   UNL     1      46.422   4.022   7.266  0.00  0.00    +0.000 A 
ATOM     15  N   UNL     1      45.924   4.712   8.313  0.00  0.00    +0.000 NA
ENDBRANCH   9  10
ENDBRANCH   6   9
ENDBRANCH   2   3
BRANCH   2  16
ATOM     16  N   UNL     1      47.929   6.140  15.627  0.00  0.00    +0.000 N 
ATOM     17  C   UNL     1      49.102   6.610  16.155  0.00  0.00    +0.000 C 
ATOM     18  O   UNL     1      50.103   5.911  16.285  0.00  0.00    +0.000 OA
ATOM     19  H   UNL     1      47.097   6.707  15.710  0.00  0.00    +0.000 HD
BRANCH  17  20
ATOM     20  C   UNL     1      49.109   8.045  16.478  0.00  0.00    +0.000 A 
ATOM     21  C   UNL     1      48.456   8.522  17.604  0.00  0.00    +0.000 A 
ATOM     22  S   UNL     1      48.706  10.191  17.872  0.00  0.00    +0.000 S 
ATOM     23  C   UNL     1      49.654  10.335  16.465  0.00  0.00    +0.000 A 
ATOM     24  N   UNL     1      50.227  11.516  16.114  0.00  0.00    +0.000 NA
ATOM     25  C   UNL     1      50.910  11.476  15.018  0.00  0.00    +0.000 A 
ATOM     26  N   UNL     1      51.062  10.370  14.207  0.00  0.00    +0.000 N 
ATOM     27  C   UNL     1      51.841  10.428  12.990  0.00  0.00    +0.000 C 
ATOM     28  C   UNL     1      50.470   9.154  14.526  0.00  0.00    +0.000 A 
ATOM     29  O   UNL     1      50.568   8.162  13.805  0.00  0.00    +0.000 OA
ATOM     30  C   UNL     1      49.746   9.139  15.783  0.00  0.00    +0.000 A 
ENDBRANCH  17  20
ENDBRANCH   2  16
TORSDOF 5
ENDMDL
MODEL 8
REMARK VINA RESULT:    -7.267      3.762      9.543
REMARK INTER + INTRA:          -9.327
REMARK INTER:                  -9.244
REMARK INTRA:                  -0.083
REMARK UNBOUND:                 0.064
REMARK  Name = 
REMARK  7 active torsions:
REMARK  status: ('A' for Active; 'I' for Inactive)
REMARK    1  A    between atoms: C_1  and  C_2
REMARK    2  A    between atoms: C_2  and  N_3
REMARK    3  A    between atoms: C_2  and  C_17
REMARK    4  A    between atoms: C_4  and  C_6
REMARK    5  A    between atoms: N_12  and  C_13
REMARK    6  A    between atoms: C_20  and  O_21
REMARK    7  A    between atoms: O_21  and  C_22
REMARK                            x       y       z     vdW  Elec       q    Type
REMARK                         _______ _______ _______ _____ _____    ______ ____
ROOT
ATOM      1  C   UNL     1      47.072   2.924  17.354  0.00  0.00    +0.000 C 
ATOM      2  C   UNL     1      47.717   4.309  17.280  0.00  0.00    +0.000 C 
ENDROOT
BRANCH   2   3
ATOM      3  C   UNL     1      49.236   4.288  17.368  0.00  0.00    +0.000 A 
ATOM      4  C   UNL     1      49.882   3.058  17.546  0.00  0.00    +0.000 A 
ATOM      5  C   UNL     1      51.274   2.988  17.676  0.00  0.00    +0.000 A 
ATOM      6  C   UNL     1      52.046   4.149  17.601  0.00  0.00    +0.000 A 
ATOM      7  C   UNL     1      51.413   5.385  17.484  0.00  0.00    +0.000 A 
ATOM      8  C   UNL     1      50.018   5.458  17.378  0.00  0.00    +0.000 A 
BRANCH   6   9
ATOM      9  O   UNL     1      53.416   4.170  17.724  0.00  0.00    +0.000 OA
BRANCH   9  10
ATOM     10  C   UNL     1      54.020   3.250  18.574  0.00  0.00    +0.000 A 
ATOM     11  C   UNL     1      54.079   3.595  19.917  0.00  0.00    +0.000 A 
ATOM     12  C   UNL     1      54.652   2.690  20.805  0.00  0.00    +0.000 A 
ATOM     13  C   UNL     1      55.150   1.484  20.324  0.00  0.00    +0.000 A 
ATOM     14  C   UNL     1      55.075   1.240  18.963  0.00  0.00    +0.000 A 
ATOM     15  N   UNL     1      54.536   2.102  18.077  0.00  0.00    +0.000 NA
ENDBRANCH   9  10
ENDBRANCH   6   9
ENDBRANCH   2   3
BRANCH   2  16
ATOM     16  N   UNL     1      47.355   4.980  16.051  0.00  0.00    +0.000 N 
ATOM     17  C   UNL     1      47.344   4.387  14.817  0.00  0.00    +0.000 C 
ATOM     18  O   UNL     1      47.558   3.190  14.649  0.00  0.00    +0.000 OA
ATOM     19  H   UNL     1      47.350   5.989  16.107  0.00  0.00    +0.000 HD
BRANCH  17  20
ATOM     20  C   UNL     1      46.969   5.273  13.704  0.00  0.00    +0.000 A 
ATOM     21  C   UNL     1      47.441   6.575  13.642  0.00  0.00    +0.000 A 
ATOM     22  S   UNL     1      47.003   7.384  12.203  0.00  0.00    +0.000 S 
ATOM     23  C   UNL     1      46.129   6.035  11.641  0.00  0.00    +0.000 A 
ATOM     24  N   UNL     1      45.519   6.042  10.427  0.00  0.00    +0.000 NA
ATOM     25  C   UNL     1      44.886   4.952  10.139  0.00  0.00    +0.000 A 
ATOM     26  N   UNL     1      44.773   3.849  10.960  0.00  0.00    +0.000 N 
ATOM     27  C   UNL     1      44.032   2.677  10.551  0.00  0.00    +0.000 C 
ATOM     28  C   UNL     1      45.365   3.821  12.217  0.00  0.00    +0.000 A 
ATOM     29  O   UNL     1      45.255   2.860  12.978  0.00  0.00    +0.000 OA
ATOM     30  C   UNL     1      46.140   5.000  12.553  0.00  0.00    +0.000 A 
ENDBRANCH  17  20
ENDBRANCH   2  16
TORSDOF 5
ENDMDL
MODEL 9
REMARK VINA RESULT:    -7.243      2.419      3.244
REMARK INTER + INTRA:          -9.296
REMARK INTER:                  -8.325
REMARK INTRA:                  -0.970
REMARK UNBOUND:                 0.064
REMARK  Name = 
REMARK  7 active torsions:
REMARK  status: ('A' for Active; 'I' for Inactive)
REMARK    1  A    between atoms: C_1  and  C_2
REMARK    2  A    between atoms: C_2  and  N_3
REMARK    3  A    between atoms: C_2  and  C_17
REMARK    4  A    between atoms: C_4  and  C_6
REMARK    5  A    between atoms: N_12  and  C_13
REMARK    6  A    between atoms: C_20  and  O_21
REMARK    7  A    between atoms: O_21  and  C_22
REMARK                            x       y       z     vdW  Elec       q    Type
REMARK                         _______ _______ _______ _____ _____    ______ ____
ROOT
ATOM      1  C   UNL     1      49.346   8.329  14.094  0.00  0.00    +0.000 C 
ATOM      2  C   UNL     1      48.276   7.396  14.664  0.00  0.00    +0.000 C 
ENDROOT
BRANCH   2   3
ATOM      3  C   UNL     1      47.284   6.888  13.629  0.00  0.00    +0.000 A 
ATOM      4  C   UNL     1      46.563   7.822  12.873  0.00  0.00    +0.000 A 
ATOM      5  C   UNL     1      45.608   7.407  11.938  0.00  0.00    +0.000 A 
ATOM      6  C   UNL     1      45.380   6.047  11.721  0.00  0.00    +0.000 A 
ATOM      7  C   UNL     1      46.047   5.108  12.507  0.00  0.00    +0.000 A 
ATOM      8  C   UNL     1      46.985   5.523  13.460  0.00  0.00    +0.000 A 
BRANCH   6   9
ATOM      9  O   UNL     1      44.458   5.555  10.827  0.00  0.00    +0.000 OA
BRANCH   9  10
ATOM     10  C   UNL     1      44.839   4.513   9.988  0.00  0.00    +0.000 A 
ATOM     11  C   UNL     1      45.600   4.858   8.880  0.00  0.00    +0.000 A 
ATOM     12  C   UNL     1      46.025   3.842   8.030  0.00  0.00    +0.000 A 
ATOM     13  C   UNL     1      45.669   2.526   8.308  0.00  0.00    +0.000 A 
ATOM     14  C   UNL     1      44.881   2.281   9.419  0.00  0.00    +0.000 A 
ATOM     15  N   UNL     1      44.446   3.246  10.256  0.00  0.00    +0.000 NA
ENDBRANCH   9  10
ENDBRANCH   6   9
ENDBRANCH   2   3
BRANCH   2  16
ATOM     16  N   UNL     1      48.882   6.246  15.299  0.00  0.00    +0.000 N 
ATOM     17  C   UNL     1      48.934   6.044  16.651  0.00  0.00    +0.000 C 
ATOM     18  O   UNL     1      48.385   6.787  17.460  0.00  0.00    +0.000 OA
ATOM     19  H   UNL     1      49.495   5.709  14.702  0.00  0.00    +0.000 HD
BRANCH  17  20
ATOM     20  C   UNL     1      49.625   4.815  17.071  0.00  0.00    +0.000 A 
ATOM     21  C   UNL     1      48.982   3.588  17.026  0.00  0.00    +0.000 A 
ATOM     22  S   UNL     1      50.003   2.276  17.420  0.00  0.00    +0.000 S 
ATOM     23  C   UNL     1      51.322   3.313  17.710  0.00  0.00    +0.000 A 
ATOM     24  N   UNL     1      52.543   2.827  18.054  0.00  0.00    +0.000 NA
ATOM     25  C   UNL     1      53.444   3.732  18.251  0.00  0.00    +0.000 A 
ATOM     26  N   UNL     1      53.245   5.095  18.165  0.00  0.00    +0.000 N 
ATOM     27  C   UNL     1      54.319   6.032  18.413  0.00  0.00    +0.000 C 
ATOM     28  C   UNL     1      52.003   5.624  17.837  0.00  0.00    +0.000 A 
ATOM     29  O   UNL     1      51.794   6.835  17.781  0.00  0.00    +0.000 OA
ATOM     30  C   UNL     1      50.978   4.639  17.545  0.00  0.00    +0.000 A 
ENDBRANCH  17  20
ENDBRANCH   2  16
TORSDOF 5
ENDMDL
