MODEL 1
REMARK VINA RESULT:    -8.338      0.000      0.000
REMARK INTER + INTRA:         -13.310
REMARK INTER:                 -12.481
REMARK INTRA:                  -0.829
REMARK UNBOUND:                -0.829
REMARK  Name = 
REMARK  10 active torsions:
REMARK  status: ('A' for Active; 'I' for Inactive)
REMARK    1  A    between atoms: C_1  and  C_2
REMARK    2  A    between atoms: C_2  and  N_3
REMARK    3  A    between atoms: C_2  and  C_19
REMARK    4  A    between atoms: N_3  and  C_4
REMARK    5  A    between atoms: C_4  and  C_5
REMARK    6  A    between atoms: C_8  and  C_9
REMARK    7  A    between atoms: C_9  and  O_10
REMARK    8  A    between atoms: C_9  and  C_11
REMARK    9  A    between atoms: C_11  and  N_12
REMARK   10  A    between atoms: C_19  and  C_21
REMARK                            x       y       z     vdW  Elec       q    Type
REMARK                         _______ _______ _______ _____ _____    ______ ____
ROOT
ATOM      1  N   UNL     1      47.925   5.508  15.370  0.00  0.00    +0.000 NA
ATOM      2  H   UNL     1      47.974   4.511  15.151  0.00  0.00    +0.000 HD
ENDROOT
BRANCH   1   4
ATOM      3  C   UNL     1      48.644   7.170  16.983  0.00  0.00    +0.000 C 
ATOM      4  C   UNL     1      49.019   5.861  16.288  0.00  0.00    +0.000 C 
BRANCH   4   5
ATOM      5  C   UNL     1      49.218   4.754  17.344  0.00  0.00    +0.000 C 
ATOM      6  O   UNL     1      48.248   4.214  17.879  0.00  0.00    +0.000 OA
BRANCH   5   7
ATOM      7  C   UNL     1      50.584   4.378  17.718  0.00  0.00    +0.000 A 
ATOM      8  C   UNL     1      51.504   5.258  18.261  0.00  0.00    +0.000 A 
ATOM      9  S   UNL     1      52.952   4.491  18.752  0.00  0.00    +0.000 S 
ATOM     10  C   UNL     1      52.391   2.972  18.228  0.00  0.00    +0.000 A 
ATOM     11  N   UNL     1      53.131   1.844  18.406  0.00  0.00    +0.000 NA
ATOM     12  C   UNL     1      52.567   0.767  17.967  0.00  0.00    +0.000 A 
ATOM     13  N   UNL     1      51.350   0.720  17.332  0.00  0.00    +0.000 N 
ATOM     14  C   UNL     1      50.636   1.853  17.008  0.00  0.00    +0.000 A 
ATOM     15  O   UNL     1      49.724   1.818  16.190  0.00  0.00    +0.000 OA
ATOM     16  C   UNL     1      51.155   3.061  17.622  0.00  0.00    +0.000 A 
ATOM     17  H   UNL     1      51.021  -0.141  16.922  0.00  0.00    +0.000 HD
ENDBRANCH   5   7
ENDBRANCH   4   5
ENDBRANCH   1   4
BRANCH   1  18
ATOM     18  C   UNL     1      47.964   6.263  14.106  0.00  0.00    +0.000 C 
BRANCH  18  19
ATOM     19  C   UNL     1      46.770   5.904  13.244  0.00  0.00    +0.000 A 
ATOM     20  C   UNL     1      46.685   6.353  11.930  0.00  0.00    +0.000 A 
ATOM     21  C   UNL     1      45.708   5.808  11.097  0.00  0.00    +0.000 A 
ATOM     22  C   UNL     1      44.857   4.812  11.587  0.00  0.00    +0.000 A 
ATOM     23  C   UNL     1      44.957   4.505  12.939  0.00  0.00    +0.000 A 
ATOM     24  N   UNL     1      45.878   5.030  13.771  0.00  0.00    +0.000 NA
BRANCH  22  25
ATOM     25  C   UNL     1      43.952   4.026  10.662  0.00  0.00    +0.000 C 
BRANCH  25  26
ATOM     26  O   UNL     1      42.737   3.726  11.344  0.00  0.00    +0.000 OA
ATOM     27  H   UNL     1      42.585   4.424  12.002  0.00  0.00    +0.000 HD
ENDBRANCH  25  26
BRANCH  25  28
ATOM     28  C   UNL     1      44.688   2.747  10.144  0.00  0.00    +0.000 C 
BRANCH  28  29
ATOM     29  N   UNL     1      44.695   2.407   8.713  0.00  0.00    +0.000 NA
ATOM     30  C   UNL     1      45.651   1.368   8.335  0.00  0.00    +0.000 C 
ATOM     31  C   UNL     1      46.835   2.108   7.748  0.00  0.00    +0.000 C 
ATOM     32  C   UNL     1      46.202   3.304   7.066  0.00  0.00    +0.000 C 
ATOM     33  C   UNL     1      44.897   3.544   7.813  0.00  0.00    +0.000 C 
ENDBRANCH  28  29
ENDBRANCH  25  28
ENDBRANCH  22  25
ENDBRANCH  18  19
ENDBRANCH   1  18
TORSDOF 9
ENDMDL
MODEL 2
REMARK VINA RESULT:    -7.710      2.854      8.674
REMARK INTER + INTRA:         -12.370
REMARK INTER:                 -11.146
REMARK INTRA:                  -1.224
REMARK UNBOUND:                -0.829
REMARK  Name = 
REMARK  10 active torsions:
REMARK  status: ('A' for Active; 'I' for Inactive)
REMARK    1  A    between atoms: C_1  and  C_2
REMARK    2  A    between atoms: C_2  and  N_3
REMARK    3  A    between atoms: C_2  and  C_19
REMARK    4  A    between atoms: N_3  and  C_4
REMARK    5  A    between atoms: C_4  and  C_5
REMARK    6  A    between atoms: C_8  and  C_9
REMARK    7  A    between atoms: C_9  and  O_10
REMARK    8  A    between atoms: C_9  and  C_11
REMARK    9  A    between atoms: C_11  and  N_12
REMARK   10  A    between atoms: C_19  and  C_21
REMARK                            x       y       z     vdW  Elec       q    Type
REMARK                         _______ _______ _______ _____ _____    ______ ____
ROOT
ATOM      1  N   UNL     1      46.625   6.819  11.887  0.00  0.00    +0.000 NA
ATOM      2  H   UNL     1      46.618   5.798  11.829  0.00  0.00    +0.000 HD
ENDROOT
BRANCH   1   4
ATOM      3  C   UNL     1      45.275   8.809  12.200  0.00  0.00    +0.000 C 
ATOM      4  C   UNL     1      45.316   7.290  12.365  0.00  0.00    +0.000 C 
BRANCH   4   5
ATOM      5  C   UNL     1      44.177   6.650  11.544  0.00  0.00    +0.000 C 
ATOM      6  O   UNL     1      43.325   7.353  10.997  0.00  0.00    +0.000 OA
BRANCH   5   7
ATOM      7  C   UNL     1      44.114   5.189  11.451  0.00  0.00    +0.000 A 
ATOM      8  C   UNL     1      43.517   4.381  12.403  0.00  0.00    +0.000 A 
ATOM      9  S   UNL     1      43.449   2.737  11.937  0.00  0.00    +0.000 S 
ATOM     10  C   UNL     1      44.237   3.064  10.464  0.00  0.00    +0.000 A 
ATOM     11  N   UNL     1      44.451   2.086   9.543  0.00  0.00    +0.000 NA
ATOM     12  C   UNL     1      45.050   2.491   8.472  0.00  0.00    +0.000 A 
ATOM     13  N   UNL     1      45.489   3.774   8.253  0.00  0.00    +0.000 N 
ATOM     14  C   UNL     1      45.417   4.758   9.215  0.00  0.00    +0.000 A 
ATOM     15  O   UNL     1      46.073   5.789   9.121  0.00  0.00    +0.000 OA
ATOM     16  C   UNL     1      44.612   4.388  10.364  0.00  0.00    +0.000 A 
ATOM     17  H   UNL     1      46.042   3.993   7.439  0.00  0.00    +0.000 HD
ENDBRANCH   5   7
ENDBRANCH   4   5
ENDBRANCH   1   4
BRANCH   1  18
ATOM     18  C   UNL     1      47.740   7.226  12.757  0.00  0.00    +0.000 C 
BRANCH  18  19
ATOM     19  C   UNL     1      47.890   6.252  13.909  0.00  0.00    +0.000 A 
ATOM     20  C   UNL     1      48.436   6.666  15.120  0.00  0.00    +0.000 A 
ATOM     21  C   UNL     1      48.333   5.821  16.225  0.00  0.00    +0.000 A 
ATOM     22  C   UNL     1      47.667   4.598  16.102  0.00  0.00    +0.000 A 
ATOM     23  C   UNL     1      47.245   4.233  14.829  0.00  0.00    +0.000 A 
ATOM     24  N   UNL     1      47.349   5.020  13.739  0.00  0.00    +0.000 NA
BRANCH  22  25
ATOM     25  C   UNL     1      47.321   3.765  17.319  0.00  0.00    +0.000 C 
BRANCH  25  26
ATOM     26  O   UNL     1      46.784   4.617  18.327  0.00  0.00    +0.000 OA
ATOM     27  H   UNL     1      46.480   4.056  19.059  0.00  0.00    +0.000 HD
ENDBRANCH  25  26
BRANCH  25  28
ATOM     28  C   UNL     1      48.578   2.970  17.803  0.00  0.00    +0.000 C 
BRANCH  28  29
ATOM     29  N   UNL     1      49.838   3.015  17.047  0.00  0.00    +0.000 NA
ATOM     30  C   UNL     1      50.341   1.712  16.616  0.00  0.00    +0.000 C 
ATOM     31  C   UNL     1      51.424   1.352  17.611  0.00  0.00    +0.000 C 
ATOM     32  C   UNL     1      52.037   2.691  17.967  0.00  0.00    +0.000 C 
ATOM     33  C   UNL     1      50.934   3.712  17.722  0.00  0.00    +0.000 C 
ENDBRANCH  28  29
ENDBRANCH  25  28
ENDBRANCH  22  25
ENDBRANCH  18  19
ENDBRANCH   1  18
TORSDOF 9
ENDMDL
MODEL 3
REMARK VINA RESULT:    -7.474      3.025      3.624
REMARK INTER + INTRA:         -12.017
REMARK INTER:                 -11.010
REMARK INTRA:                  -1.007
REMARK UNBOUND:                -0.829
REMARK  Name = 
REMARK  10 active torsions:
REMARK  status: ('A' for Active; 'I' for Inactive)
REMARK    1  A    between atoms: C_1  and  C_2
REMARK    2  A    between atoms: C_2  and  N_3
REMARK    3  A    between atoms: C_2  and  C_19
REMARK    4  A    between atoms: N_3  and  C_4
REMARK    5  A    between atoms: C_4  and  C_5
REMARK    6  A    between atoms: C_8  and  C_9
REMARK    7  A    between atoms: C_9  and  O_10
REMARK    8  A    between atoms: C_9  and  C_11
REMARK    9  A    between atoms: C_11  and  N_12
REMARK   10  A    between atoms: C_19  and  C_21
REMARK                            x       y       z     vdW  Elec       q    Type
REMARK                         _______ _______ _______ _____ _____    ______ ____
ROOT
ATOM      1  N   UNL     1      46.386   7.865  13.579  0.00  0.00    +0.000 NA
ATOM      2  H   UNL     1      46.356   6.855  13.729  0.00  0.00    +0.000 HD
ENDROOT
BRANCH   1   4
ATOM      3  C   UNL     1      48.111   9.551  13.828  0.00  0.00    +0.000 C 
ATOM      4  C   UNL     1      47.730   8.251  13.120  0.00  0.00    +0.000 C 
BRANCH   4   5
ATOM      5  C   UNL     1      48.756   7.154  13.466  0.00  0.00    +0.000 C 
ATOM      6  O   UNL     1      49.418   6.609  12.581  0.00  0.00    +0.000 OA
BRANCH   5   7
ATOM      7  C   UNL     1      48.908   6.752  14.867  0.00  0.00    +0.000 A 
ATOM      8  C   UNL     1      49.698   7.428  15.782  0.00  0.00    +0.000 A 
ATOM      9  S   UNL     1      49.541   6.825  17.374  0.00  0.00    +0.000 S 
ATOM     10  C   UNL     1      48.434   5.633  16.874  0.00  0.00    +0.000 A 
ATOM     11  N   UNL     1      47.848   4.791  17.768  0.00  0.00    +0.000 NA
ATOM     12  C   UNL     1      47.023   3.949  17.238  0.00  0.00    +0.000 A 
ATOM     13  N   UNL     1      46.758   3.846  15.895  0.00  0.00    +0.000 N 
ATOM     14  C   UNL     1      47.432   4.585  14.946  0.00  0.00    +0.000 A 
ATOM     15  O   UNL     1      47.406   4.273  13.760  0.00  0.00    +0.000 OA
ATOM     16  C   UNL     1      48.246   5.646  15.507  0.00  0.00    +0.000 A 
ATOM     17  H   UNL     1      46.182   3.097  15.543  0.00  0.00    +0.000 HD
ENDBRANCH   5   7
ENDBRANCH   4   5
ENDBRANCH   1   4
BRANCH   1  18
ATOM     18  C   UNL     1      45.323   8.224  12.626  0.00  0.00    +0.000 C 
BRANCH  18  19
ATOM     19  C   UNL     1      44.987   7.037  11.744  0.00  0.00    +0.000 A 
ATOM     20  C   UNL     1      45.997   6.313  11.117  0.00  0.00    +0.000 A 
ATOM     21  C   UNL     1      45.675   5.094  10.520  0.00  0.00    +0.000 A 
ATOM     22  C   UNL     1      44.362   4.616  10.586  0.00  0.00    +0.000 A 
ATOM     23  C   UNL     1      43.410   5.459  11.146  0.00  0.00    +0.000 A 
ATOM     24  N   UNL     1      43.688   6.651  11.711  0.00  0.00    +0.000 NA
BRANCH  22  25
ATOM     25  C   UNL     1      44.019   3.201  10.170  0.00  0.00    +0.000 C 
BRANCH  25  26
ATOM     26  O   UNL     1      43.470   2.508  11.288  0.00  0.00    +0.000 OA
ATOM     27  H   UNL     1      42.502   2.532  11.206  0.00  0.00    +0.000 HD
ENDBRANCH  25  26
BRANCH  25  28
ATOM     28  C   UNL     1      45.281   2.491   9.578  0.00  0.00    +0.000 C 
BRANCH  28  29
ATOM     29  N   UNL     1      45.353   2.146   8.151  0.00  0.00    +0.000 NA
ATOM     30  C   UNL     1      46.355   1.135   7.815  0.00  0.00    +0.000 C 
ATOM     31  C   UNL     1      47.537   1.909   7.270  0.00  0.00    +0.000 C 
ATOM     32  C   UNL     1      46.894   3.082   6.558  0.00  0.00    +0.000 C 
ATOM     33  C   UNL     1      45.554   3.284   7.253  0.00  0.00    +0.000 C 
ENDBRANCH  28  29
ENDBRANCH  25  28
ENDBRANCH  22  25
ENDBRANCH  18  19
ENDBRANCH   1  18
TORSDOF 9
ENDMDL
MODEL 4
REMARK VINA RESULT:    -7.382      1.823      2.261
REMARK INTER + INTRA:         -11.879
REMARK INTER:                 -10.701
REMARK INTRA:                  -1.178
REMARK UNBOUND:                -0.829
REMARK  Name = 
REMARK  10 active torsions:
REMARK  status: ('A' for Active; 'I' for Inactive)
REMARK    1  A    between atoms: C_1  and  C_2
REMARK    2  A    between atoms: C_2  and  N_3
REMARK    3  A    between atoms: C_2  and  C_19
REMARK    4  A    between atoms: N_3  and  C_4
REMARK    5  A    between atoms: C_4  and  C_5
REMARK    6  A    between atoms: C_8  and  C_9
REMARK    7  A    between atoms: C_9  and  O_10
REMARK    8  A    between atoms: C_9  and  C_11
REMARK    9  A    between atoms: C_11  and  N_12
REMARK   10  A    between atoms: C_19  and  C_21
REMARK                            x       y       z     vdW  Elec       q    Type
REMARK                         _______ _______ _______ _____ _____    ______ ____
ROOT
ATOM      1  N   UNL     1      49.162   6.334  14.875  0.00  0.00    +0.000 NA
ATOM      2  H   UNL     1      50.002   5.813  14.615  0.00  0.00    +0.000 HD
ENDROOT
BRANCH   1   4
ATOM      3  C   UNL     1      48.787   8.582  15.703  0.00  0.00    +0.000 C 
ATOM      4  C   UNL     1      49.476   7.247  15.985  0.00  0.00    +0.000 C 
BRANCH   4   5
ATOM      5  C   UNL     1      48.961   6.672  17.320  0.00  0.00    +0.000 C 
ATOM      6  O   UNL     1      48.781   7.407  18.293  0.00  0.00    +0.000 OA
BRANCH   5   7
ATOM      7  C   UNL     1      48.718   5.230  17.417  0.00  0.00    +0.000 A 
ATOM      8  C   UNL     1      47.458   4.658  17.403  0.00  0.00    +0.000 A 
ATOM      9  S   UNL     1      47.500   2.949  17.358  0.00  0.00    +0.000 S 
ATOM     10  C   UNL     1      49.202   2.935  17.381  0.00  0.00    +0.000 A 
ATOM     11  N   UNL     1      49.901   1.770  17.303  0.00  0.00    +0.000 NA
ATOM     12  C   UNL     1      51.185   1.923  17.320  0.00  0.00    +0.000 A 
ATOM     13  N   UNL     1      51.832   3.127  17.447  0.00  0.00    +0.000 N 
ATOM     14  C   UNL     1      51.162   4.311  17.669  0.00  0.00    +0.000 A 
ATOM     15  O   UNL     1      51.749   5.307  18.077  0.00  0.00    +0.000 OA
ATOM     16  C   UNL     1      49.726   4.206  17.497  0.00  0.00    +0.000 A 
ATOM     17  H   UNL     1      52.834   3.159  17.559  0.00  0.00    +0.000 HD
ENDBRANCH   5   7
ENDBRANCH   4   5
ENDBRANCH   1   4
BRANCH   1  18
ATOM     18  C   UNL     1      48.659   7.029  13.678  0.00  0.00    +0.000 C 
BRANCH  18  19
ATOM     19  C   UNL     1      47.341   6.425  13.236  0.00  0.00    +0.000 A 
ATOM     20  C   UNL     1      46.826   6.698  11.972  0.00  0.00    +0.000 A 
ATOM     21  C   UNL     1      45.750   5.942  11.509  0.00  0.00    +0.000 A 
ATOM     22  C   UNL     1      45.231   4.916  12.306  0.00  0.00    +0.000 A 
ATOM     23  C   UNL     1      45.749   4.789  13.589  0.00  0.00    +0.000 A 
ATOM     24  N   UNL     1      46.775   5.520  14.070  0.00  0.00    +0.000 NA
BRANCH  22  25
ATOM     25  C   UNL     1      44.234   3.919  11.753  0.00  0.00    +0.000 C 
BRANCH  25  26
ATOM     26  O   UNL     1      43.558   3.288  12.838  0.00  0.00    +0.000 OA
ATOM     27  H   UNL     1      43.567   2.330  12.677  0.00  0.00    +0.000 HD
ENDBRANCH  25  26
BRANCH  25  28
ATOM     28  C   UNL     1      44.955   2.900  10.812  0.00  0.00    +0.000 C 
BRANCH  28  29
ATOM     29  N   UNL     1      44.559   2.763   9.402  0.00  0.00    +0.000 NA
ATOM     30  C   UNL     1      45.140   1.613   8.711  0.00  0.00    +0.000 C 
ATOM     31  C   UNL     1      46.298   2.171   7.910  0.00  0.00    +0.000 C 
ATOM     32  C   UNL     1      45.818   3.551   7.510  0.00  0.00    +0.000 C 
ATOM     33  C   UNL     1      44.807   3.947   8.577  0.00  0.00    +0.000 C 
ENDBRANCH  28  29
ENDBRANCH  25  28
ENDBRANCH  22  25
ENDBRANCH  18  19
ENDBRANCH   1  18
TORSDOF 9
ENDMDL
MODEL 5
REMARK VINA RESULT:    -6.864      2.900      3.413
REMARK INTER + INTRA:         -11.103
REMARK INTER:                  -9.961
REMARK INTRA:                  -1.142
REMARK UNBOUND:                -0.829
REMARK  Name = 
REMARK  10 active torsions:
REMARK  status: ('A' for Active; 'I' for Inactive)
REMARK    1  A    between atoms: C_1  and  C_2
REMARK    2  A    between atoms: C_2  and  N_3
REMARK    3  A    between atoms: C_2  and  C_19
REMARK    4  A    between atoms: N_3  and  C_4
REMARK    5  A    between atoms: C_4  and  C_5
REMARK    6  A    between atoms: C_8  and  C_9
REMARK    7  A    between atoms: C_9  and  O_10
REMARK    8  A    between atoms: C_9  and  C_11
REMARK    9  A    between atoms: C_11  and  N_12
REMARK   10  A    between atoms: C_19  and  C_21
REMARK                            x       y       z     vdW  Elec       q    Type
REMARK                         _______ _______ _______ _____ _____    ______ ____
ROOT
ATOM      1  N   UNL     1      48.920   6.722  14.254  0.00  0.00    +0.000 NA
ATOM      2  H   UNL     1      49.261   5.984  13.635  0.00  0.00    +0.000 HD
ENDROOT
BRANCH   1   4
ATOM      3  C   UNL     1      49.456   9.020  14.814  0.00  0.00    +0.000 C 
ATOM      4  C   UNL     1      50.033   7.620  14.603  0.00  0.00    +0.000 C 
BRANCH   4   5
ATOM      5  C   UNL     1      50.725   7.146  15.897  0.00  0.00    +0.000 C 
ATOM      6  O   UNL     1      51.819   6.579  15.854  0.00  0.00    +0.000 OA
BRANCH   5   7
ATOM      7  C   UNL     1      50.043   7.357  17.176  0.00  0.00    +0.000 A 
ATOM      8  C   UNL     1      50.357   8.376  18.058  0.00  0.00    +0.000 A 
ATOM      9  S   UNL     1      49.277   8.470  19.381  0.00  0.00    +0.000 S 
ATOM     10  C   UNL     1      48.383   7.136  18.819  0.00  0.00    +0.000 A 
ATOM     11  N   UNL     1      47.264   6.710  19.466  0.00  0.00    +0.000 NA
ATOM     12  C   UNL     1      46.688   5.695  18.912  0.00  0.00    +0.000 A 
ATOM     13  N   UNL     1      47.147   5.043  17.795  0.00  0.00    +0.000 N 
ATOM     14  C   UNL     1      48.347   5.355  17.193  0.00  0.00    +0.000 A 
ATOM     15  O   UNL     1      48.881   4.586  16.401  0.00  0.00    +0.000 OA
ATOM     16  C   UNL     1      48.941   6.584  17.685  0.00  0.00    +0.000 A 
ATOM     17  H   UNL     1      46.704   4.194  17.480  0.00  0.00    +0.000 HD
ENDBRANCH   5   7
ENDBRANCH   4   5
ENDBRANCH   1   4
BRANCH   1  18
ATOM     18  C   UNL     1      47.807   7.414  13.584  0.00  0.00    +0.000 C 
BRANCH  18  19
ATOM     19  C   UNL     1      46.701   6.431  13.254  0.00  0.00    +0.000 A 
ATOM     20  C   UNL     1      45.611   6.824  12.483  0.00  0.00    +0.000 A 
ATOM     21  C   UNL     1      44.746   5.844  11.998  0.00  0.00    +0.000 A 
ATOM     22  C   UNL     1      45.002   4.496  12.271  0.00  0.00    +0.000 A 
ATOM     23  C   UNL     1      46.057   4.216  13.131  0.00  0.00    +0.000 A 
ATOM     24  N   UNL     1      46.897   5.144  13.631  0.00  0.00    +0.000 NA
BRANCH  22  25
ATOM     25  C   UNL     1      44.238   3.393  11.570  0.00  0.00    +0.000 C 
BRANCH  25  26
ATOM     26  O   UNL     1      43.671   2.525  12.549  0.00  0.00    +0.000 OA
ATOM     27  H   UNL     1      42.871   2.130  12.168  0.00  0.00    +0.000 HD
ENDBRANCH  25  26
BRANCH  25  28
ATOM     28  C   UNL     1      45.173   2.643  10.564  0.00  0.00    +0.000 C 
BRANCH  28  29
ATOM     29  N   UNL     1      44.791   2.486   9.153  0.00  0.00    +0.000 NA
ATOM     30  C   UNL     1      45.536   1.458   8.428  0.00  0.00    +0.000 C 
ATOM     31  C   UNL     1      46.589   2.207   7.638  0.00  0.00    +0.000 C 
ATOM     32  C   UNL     1      45.901   3.509   7.279  0.00  0.00    +0.000 C 
ATOM     33  C   UNL     1      44.850   3.716   8.361  0.00  0.00    +0.000 C 
ENDBRANCH  28  29
ENDBRANCH  25  28
ENDBRANCH  22  25
ENDBRANCH  18  19
ENDBRANCH   1  18
TORSDOF 9
ENDMDL
MODEL 6
REMARK VINA RESULT:    -6.592      2.767      3.700
REMARK INTER + INTRA:         -10.697
REMARK INTER:                  -9.292
REMARK INTRA:                  -1.405
REMARK UNBOUND:                -0.829
REMARK  Name = 
REMARK  10 active torsions:
REMARK  status: ('A' for Active; 'I' for Inactive)
REMARK    1  A    between atoms: C_1  and  C_2
REMARK    2  A    between atoms: C_2  and  N_3
REMARK    3  A    between atoms: C_2  and  C_19
REMARK    4  A    between atoms: N_3  and  C_4
REMARK    5  A    between atoms: C_4  and  C_5
REMARK    6  A    between atoms: C_8  and  C_9
REMARK    7  A    between atoms: C_9  and  O_10
REMARK    8  A    between atoms: C_9  and  C_11
REMARK    9  A    between atoms: C_11  and  N_12
REMARK   10  A    between atoms: C_19  and  C_21
REMARK                            x       y       z     vdW  Elec       q    Type
REMARK                         _______ _______ _______ _____ _____    ______ ____
ROOT
ATOM      1  N   UNL     1      48.210   4.534  15.957  0.00  0.00    +0.000 NA
ATOM      2  H   UNL     1      49.198   4.712  16.147  0.00  0.00    +0.000 HD
ENDROOT
BRANCH   1   4
ATOM      3  C   UNL     1      47.214   2.914  17.462  0.00  0.00    +0.000 C 
ATOM      4  C   UNL     1      47.483   4.401  17.229  0.00  0.00    +0.000 C 
BRANCH   4   5
ATOM      5  C   UNL     1      48.324   4.963  18.394  0.00  0.00    +0.000 C 
ATOM      6  O   UNL     1      48.744   4.219  19.282  0.00  0.00    +0.000 OA
BRANCH   5   7
ATOM      7  C   UNL     1      48.588   6.404  18.437  0.00  0.00    +0.000 A 
ATOM      8  C   UNL     1      47.704   7.335  18.954  0.00  0.00    +0.000 A 
ATOM      9  S   UNL     1      48.361   8.912  19.024  0.00  0.00    +0.000 S 
ATOM     10  C   UNL     1      49.831   8.391  18.344  0.00  0.00    +0.000 A 
ATOM     11  N   UNL     1      50.876   9.247  18.176  0.00  0.00    +0.000 NA
ATOM     12  C   UNL     1      51.927   8.701  17.659  0.00  0.00    +0.000 A 
ATOM     13  N   UNL     1      52.017   7.391  17.258  0.00  0.00    +0.000 N 
ATOM     14  C   UNL     1      50.941   6.531  17.282  0.00  0.00    +0.000 A 
ATOM     15  O   UNL     1      50.952   5.479  16.652  0.00  0.00    +0.000 OA
ATOM     16  C   UNL     1      49.795   7.056  18.000  0.00  0.00    +0.000 A 
ATOM     17  H   UNL     1      52.834   7.062  16.766  0.00  0.00    +0.000 HD
ENDBRANCH   5   7
ENDBRANCH   4   5
ENDBRANCH   1   4
BRANCH   1  18
ATOM     18  C   UNL     1      47.698   5.623  15.108  0.00  0.00    +0.000 C 
BRANCH  18  19
ATOM     19  C   UNL     1      46.891   5.055  13.957  0.00  0.00    +0.000 A 
ATOM     20  C   UNL     1      46.826   3.681  13.748  0.00  0.00    +0.000 A 
ATOM     21  C   UNL     1      45.889   3.185  12.842  0.00  0.00    +0.000 A 
ATOM     22  C   UNL     1      45.023   4.068  12.188  0.00  0.00    +0.000 A 
ATOM     23  C   UNL     1      45.235   5.426  12.390  0.00  0.00    +0.000 A 
ATOM     24  N   UNL     1      46.147   5.935  13.243  0.00  0.00    +0.000 NA
BRANCH  22  25
ATOM     25  C   UNL     1      43.841   3.562  11.389  0.00  0.00    +0.000 C 
BRANCH  25  26
ATOM     26  O   UNL     1      43.512   2.246  11.828  0.00  0.00    +0.000 OA
ATOM     27  H   UNL     1      42.564   2.108  11.671  0.00  0.00    +0.000 HD
ENDBRANCH  25  26
BRANCH  25  28
ATOM     28  C   UNL     1      44.154   3.629   9.858  0.00  0.00    +0.000 C 
BRANCH  28  29
ATOM     29  N   UNL     1      45.513   3.380   9.354  0.00  0.00    +0.000 NA
ATOM     30  C   UNL     1      45.930   4.254   8.259  0.00  0.00    +0.000 C 
ATOM     31  C   UNL     1      45.751   3.431   7.000  0.00  0.00    +0.000 C 
ATOM     32  C   UNL     1      46.076   2.021   7.451  0.00  0.00    +0.000 C 
ATOM     33  C   UNL     1      45.772   1.999   8.942  0.00  0.00    +0.000 C 
ENDBRANCH  28  29
ENDBRANCH  25  28
ENDBRANCH  22  25
ENDBRANCH  18  19
ENDBRANCH   1  18
TORSDOF 9
ENDMDL
MODEL 7
REMARK VINA RESULT:    -6.562      2.377      3.278
REMARK INTER + INTRA:         -10.652
REMARK INTER:                  -9.600
REMARK INTRA:                  -1.052
REMARK UNBOUND:                -0.829
REMARK  Name = 
REMARK  10 active torsions:
REMARK  status: ('A' for Active; 'I' for Inactive)
REMARK    1  A    between atoms: C_1  and  C_2
REMARK    2  A    between atoms: C_2  and  N_3
REMARK    3  A    between atoms: C_2  and  C_19
REMARK    4  A    between atoms: N_3  and  C_4
REMARK    5  A    between atoms: C_4  and  C_5
REMARK    6  A    between atoms: C_8  and  C_9
REMARK    7  A    between atoms: C_9  and  O_10
REMARK    8  A    between atoms: C_9  and  C_11
REMARK    9  A    between atoms: C_11  and  N_12
REMARK   10  A    between atoms: C_19  and  C_21
REMARK                            x       y       z     vdW  Elec       q    Type
REMARK                         _______ _______ _______ _____ _____    ______ ____
ROOT
ATOM      1  N   UNL     1      50.462   6.703  15.429  0.00  0.00    +0.000 NA
ATOM      2  H   UNL     1      51.124   6.027  15.043  0.00  0.00    +0.000 HD
ENDROOT
BRANCH   1   4
ATOM      3  C   UNL     1      50.729   8.501  17.035  0.00  0.00    +0.000 C 
ATOM      4  C   UNL     1      50.814   6.988  16.829  0.00  0.00    +0.000 C 
BRANCH   4   5
ATOM      5  C   UNL     1      49.835   6.281  17.788  0.00  0.00    +0.000 C 
ATOM      6  O   UNL     1      49.373   6.873  18.765  0.00  0.00    +0.000 OA
BRANCH   5   7
ATOM      7  C   UNL     1      49.488   4.881  17.529  0.00  0.00    +0.000 A 
ATOM      8  C   UNL     1      48.258   4.468  17.046  0.00  0.00    +0.000 A 
ATOM      9  S   UNL     1      48.210   2.797  16.683  0.00  0.00    +0.000 S 
ATOM     10  C   UNL     1      49.821   2.583  17.187  0.00  0.00    +0.000 A 
ATOM     11  N   UNL     1      50.440   1.376  17.085  0.00  0.00    +0.000 NA
ATOM     12  C   UNL     1      51.666   1.375  17.496  0.00  0.00    +0.000 A 
ATOM     13  N   UNL     1      52.316   2.458  18.034  0.00  0.00    +0.000 N 
ATOM     14  C   UNL     1      51.683   3.657  18.282  0.00  0.00    +0.000 A 
ATOM     15  O   UNL     1      52.179   4.497  19.026  0.00  0.00    +0.000 OA
ATOM     16  C   UNL     1      50.362   3.749  17.691  0.00  0.00    +0.000 A 
ATOM     17  H   UNL     1      53.238   2.356  18.430  0.00  0.00    +0.000 HD
ENDBRANCH   5   7
ENDBRANCH   4   5
ENDBRANCH   1   4
BRANCH   1  18
ATOM     18  C   UNL     1      50.473   7.902  14.574  0.00  0.00    +0.000 C 
BRANCH  18  19
ATOM     19  C   UNL     1      49.253   7.916  13.674  0.00  0.00    +0.000 A 
ATOM     20  C   UNL     1      49.293   7.314  12.420  0.00  0.00    +0.000 A 
ATOM     21  C   UNL     1      48.096   7.130  11.727  0.00  0.00    +0.000 A 
ATOM     22  C   UNL     1      46.889   7.527  12.312  0.00  0.00    +0.000 A 
ATOM     23  C   UNL     1      46.967   8.207  13.522  0.00  0.00    +0.000 A 
ATOM     24  N   UNL     1      48.111   8.417  14.204  0.00  0.00    +0.000 NA
BRANCH  22  25
ATOM     25  C   UNL     1      45.557   7.131  11.711  0.00  0.00    +0.000 C 
BRANCH  25  26
ATOM     26  O   UNL     1      44.518   7.449  12.634  0.00  0.00    +0.000 OA
ATOM     27  H   UNL     1      44.736   8.300  13.046  0.00  0.00    +0.000 HD
ENDBRANCH  25  26
BRANCH  25  28
ATOM     28  C   UNL     1      45.572   5.619  11.313  0.00  0.00    +0.000 C 
BRANCH  28  29
ATOM     29  N   UNL     1      44.513   5.050  10.466  0.00  0.00    +0.000 NA
ATOM     30  C   UNL     1      43.371   4.505  11.198  0.00  0.00    +0.000 C 
ATOM     31  C   UNL     1      43.590   3.007  11.225  0.00  0.00    +0.000 C 
ATOM     32  C   UNL     1      44.268   2.725   9.899  0.00  0.00    +0.000 C 
ATOM     33  C   UNL     1      44.965   4.025   9.523  0.00  0.00    +0.000 C 
ENDBRANCH  28  29
ENDBRANCH  25  28
ENDBRANCH  22  25
ENDBRANCH  18  19
ENDBRANCH   1  18
TORSDOF 9
ENDMDL
MODEL 8
REMARK VINA RESULT:    -6.549      3.264      9.497
REMARK INTER + INTRA:         -10.632
REMARK INTER:                  -9.549
REMARK INTRA:                  -1.082
REMARK UNBOUND:                -0.829
REMARK  Name = 
REMARK  10 active torsions:
REMARK  status: ('A' for Active; 'I' for Inactive)
REMARK    1  A    between atoms: C_1  and  C_2
REMARK    2  A    between atoms: C_2  and  N_3
REMARK    3  A    between atoms: C_2  and  C_19
REMARK    4  A    between atoms: N_3  and  C_4
REMARK    5  A    between atoms: C_4  and  C_5
REMARK    6  A    between atoms: C_8  and  C_9
REMARK    7  A    between atoms: C_9  and  O_10
REMARK    8  A    between atoms: C_9  and  C_11
REMARK    9  A    between atoms: C_11  and  N_12
REMARK   10  A    between atoms: C_19  and  C_21
REMARK                            x       y       z     vdW  Elec       q    Type
REMARK                         _______ _______ _______ _____ _____    ______ ____
ROOT
ATOM      1  N   UNL     1      47.901   4.377  15.214  0.00  0.00    +0.000 NA
ATOM      2  H   UNL     1      47.286   3.763  14.677  0.00  0.00    +0.000 HD
ENDROOT
BRANCH   1   4
ATOM      3  C   UNL     1      48.717   6.646  15.474  0.00  0.00    +0.000 C 
ATOM      4  C   UNL     1      47.611   5.779  14.872  0.00  0.00    +0.000 C 
BRANCH   4   5
ATOM      5  C   UNL     1      47.582   5.968  13.342  0.00  0.00    +0.000 C 
ATOM      6  O   UNL     1      48.630   6.035  12.696  0.00  0.00    +0.000 OA
BRANCH   5   7
ATOM      7  C   UNL     1      46.283   6.094  12.675  0.00  0.00    +0.000 A 
ATOM      8  C   UNL     1      45.692   7.306  12.362  0.00  0.00    +0.000 A 
ATOM      9  S   UNL     1      44.265   7.133  11.436  0.00  0.00    +0.000 S 
ATOM     10  C   UNL     1      44.391   5.436  11.454  0.00  0.00    +0.000 A 
ATOM     11  N   UNL     1      43.503   4.652  10.784  0.00  0.00    +0.000 NA
ATOM     12  C   UNL     1      43.737   3.385  10.882  0.00  0.00    +0.000 A 
ATOM     13  N   UNL     1      44.754   2.828  11.619  0.00  0.00    +0.000 N 
ATOM     14  C   UNL     1      45.587   3.577  12.421  0.00  0.00    +0.000 A 
ATOM     15  O   UNL     1      46.276   3.052  13.289  0.00  0.00    +0.000 OA
ATOM     16  C   UNL     1      45.460   5.007  12.215  0.00  0.00    +0.000 A 
ATOM     17  H   UNL     1      44.812   1.828  11.734  0.00  0.00    +0.000 HD
ENDBRANCH   5   7
ENDBRANCH   4   5
ENDBRANCH   1   4
BRANCH   1  18
ATOM     18  C   UNL     1      47.719   4.081  16.645  0.00  0.00    +0.000 C 
BRANCH  18  19
ATOM     19  C   UNL     1      48.994   3.504  17.227  0.00  0.00    +0.000 A 
ATOM     20  C   UNL     1      49.405   2.216  16.895  0.00  0.00    +0.000 A 
ATOM     21  C   UNL     1      50.692   1.811  17.248  0.00  0.00    +0.000 A 
ATOM     22  C   UNL     1      51.546   2.707  17.899  0.00  0.00    +0.000 A 
ATOM     23  C   UNL     1      51.008   3.933  18.274  0.00  0.00    +0.000 A 
ATOM     24  N   UNL     1      49.762   4.343  17.964  0.00  0.00    +0.000 NA
BRANCH  22  25
ATOM     25  C   UNL     1      53.017   2.399  18.083  0.00  0.00    +0.000 C 
BRANCH  25  26
ATOM     26  O   UNL     1      53.785   3.515  17.640  0.00  0.00    +0.000 OA
ATOM     27  H   UNL     1      54.007   4.050  18.419  0.00  0.00    +0.000 HD
ENDBRANCH  25  26
BRANCH  25  28
ATOM     28  C   UNL     1      53.388   1.075  17.338  0.00  0.00    +0.000 C 
BRANCH  28  29
ATOM     29  N   UNL     1      54.772   0.577  17.327  0.00  0.00    +0.000 NA
ATOM     30  C   UNL     1      55.039  -0.466  16.338  0.00  0.00    +0.000 C 
ATOM     31  C   UNL     1      55.008  -1.768  17.111  0.00  0.00    +0.000 C 
ATOM     32  C   UNL     1      55.564  -1.387  18.468  0.00  0.00    +0.000 C 
ATOM     33  C   UNL     1      55.262   0.097  18.620  0.00  0.00    +0.000 C 
ENDBRANCH  28  29
ENDBRANCH  25  28
ENDBRANCH  22  25
ENDBRANCH  18  19
ENDBRANCH   1  18
TORSDOF 9
ENDMDL
MODEL 9
REMARK VINA RESULT:    -6.433      2.997      3.986
REMARK INTER + INTRA:         -10.458
REMARK INTER:                  -9.039
REMARK INTRA:                  -1.419
REMARK UNBOUND:                -0.829
REMARK  Name = 
REMARK  10 active torsions:
REMARK  status: ('A' for Active; 'I' for Inactive)
REMARK    1  A    between atoms: C_1  and  C_2
REMARK    2  A    between atoms: C_2  and  N_3
REMARK    3  A    between atoms: C_2  and  C_19
REMARK    4  A    between atoms: N_3  and  C_4
REMARK    5  A    between atoms: C_4  and  C_5
REMARK    6  A    between atoms: C_8  and  C_9
REMARK    7  A    between atoms: C_9  and  O_10
REMARK    8  A    between atoms: C_9  and  C_11
REMARK    9  A    between atoms: C_11  and  N_12
REMARK   10  A    between atoms: C_19  and  C_21
REMARK                            x       y       z     vdW  Elec       q    Type
REMARK                         _______ _______ _______ _____ _____    ______ ____
ROOT
ATOM      1  N   UNL     1      50.752   6.623  15.351  0.00  0.00    +0.000 NA
ATOM      2  H   UNL     1      51.167   6.227  14.505  0.00  0.00    +0.000 HD
ENDROOT
BRANCH   1   4
ATOM      3  C   UNL     1      51.882   8.379  16.584  0.00  0.00    +0.000 C 
ATOM      4  C   UNL     1      51.809   6.871  16.344  0.00  0.00    +0.000 C 
BRANCH   4   5
ATOM      5  C   UNL     1      51.485   6.152  17.670  0.00  0.00    +0.000 C 
ATOM      6  O   UNL     1      52.387   5.686  18.369  0.00  0.00    +0.000 OA
BRANCH   5   7
ATOM      7  C   UNL     1      50.082   6.011  18.067  0.00  0.00    +0.000 A 
ATOM      8  C   UNL     1      49.379   6.973  18.771  0.00  0.00    +0.000 A 
ATOM      9  S   UNL     1      47.719   6.599  18.938  0.00  0.00    +0.000 S 
ATOM     10  C   UNL     1      47.907   5.132  18.096  0.00  0.00    +0.000 A 
ATOM     11  N   UNL     1      46.843   4.328  17.829  0.00  0.00    +0.000 NA
ATOM     12  C   UNL     1      47.142   3.256  17.172  0.00  0.00    +0.000 A 
ATOM     13  N   UNL     1      48.412   2.895  16.792  0.00  0.00    +0.000 N 
ATOM     14  C   UNL     1      49.530   3.611  17.163  0.00  0.00    +0.000 A 
ATOM     15  O   UNL     1      50.652   3.125  17.080  0.00  0.00    +0.000 OA
ATOM     16  C   UNL     1      49.224   4.897  17.760  0.00  0.00    +0.000 A 
ATOM     17  H   UNL     1      48.583   1.994  16.374  0.00  0.00    +0.000 HD
ENDBRANCH   5   7
ENDBRANCH   4   5
ENDBRANCH   1   4
BRANCH   1  18
ATOM     18  C   UNL     1      50.012   7.840  14.978  0.00  0.00    +0.000 C 
BRANCH  18  19
ATOM     19  C   UNL     1      48.755   7.475  14.213  0.00  0.00    +0.000 A 
ATOM     20  C   UNL     1      48.262   8.315  13.220  0.00  0.00    +0.000 A 
ATOM     21  C   UNL     1      47.258   7.839  12.377  0.00  0.00    +0.000 A 
ATOM     22  C   UNL     1      46.789   6.530  12.529  0.00  0.00    +0.000 A 
ATOM     23  C   UNL     1      47.274   5.807  13.612  0.00  0.00    +0.000 A 
ATOM     24  N   UNL     1      48.229   6.249  14.454  0.00  0.00    +0.000 NA
BRANCH  22  25
ATOM     25  C   UNL     1      45.883   5.895  11.495  0.00  0.00    +0.000 C 
BRANCH  25  26
ATOM     26  O   UNL     1      46.431   6.118  10.197  0.00  0.00    +0.000 OA
ATOM     27  H   UNL     1      46.326   7.060   9.989  0.00  0.00    +0.000 HD
ENDBRANCH  25  26
BRANCH  25  28
ATOM     28  C   UNL     1      44.427   6.445  11.641  0.00  0.00    +0.000 C 
BRANCH  28  29
ATOM     29  N   UNL     1      43.275   5.531  11.687  0.00  0.00    +0.000 NA
ATOM     30  C   UNL     1      42.977   4.987  13.010  0.00  0.00    +0.000 C 
ATOM     31  C   UNL     1      43.567   3.592  13.012  0.00  0.00    +0.000 C 
ATOM     32  C   UNL     1      43.386   3.131  11.580  0.00  0.00    +0.000 C 
ATOM     33  C   UNL     1      43.346   4.407  10.751  0.00  0.00    +0.000 C 
ENDBRANCH  28  29
ENDBRANCH  25  28
ENDBRANCH  22  25
ENDBRANCH  18  19
ENDBRANCH   1  18
TORSDOF 9
ENDMDL
