MODEL 1
REMARK VINA RESULT:    -7.567      0.000      0.000
REMARK INTER + INTRA:         -11.411
REMARK INTER:                 -10.663
REMARK INTRA:                  -0.748
REMARK UNBOUND:                -0.748
REMARK  Name = 
REMARK  9 active torsions:
REMARK  status: ('A' for Active; 'I' for Inactive)
REMARK    1  A    between atoms: C_1  and  C_2
REMARK    2  A    between atoms: C_2  and  N_3
REMARK    3  A    between atoms: N_3  and  C_4
REMARK    4  A    between atoms: N_7  and  C_8
REMARK    5  A    between atoms: C_8  and  C_9
REMARK    6  A    between atoms: C_12  and  O_13
REMARK    7  A    between atoms: O_13  and  C_14
REMARK    8  A    between atoms: C_14  and  C_15
REMARK    9  A    between atoms: C_15  and  C_16
REMARK                            x       y       z     vdW  Elec       q    Type
REMARK                         _______ _______ _______ _____ _____    ______ ____
ROOT
ATOM      1  C   UNL     1      46.567   5.661  12.890  0.00  0.00    +0.000 A 
ATOM      2  C   UNL     1      45.985   4.482  13.373  0.00  0.00    +0.000 A 
ATOM      3  C   UNL     1      45.053   3.776  12.602  0.00  0.00    +0.000 A 
ATOM      4  C   UNL     1      44.701   4.234  11.332  0.00  0.00    +0.000 A 
ATOM      5  C   UNL     1      45.323   5.376  10.824  0.00  0.00    +0.000 A 
ATOM      6  C   UNL     1      46.250   6.085  11.594  0.00  0.00    +0.000 A 
ENDROOT
BRANCH   1   7
ATOM      7  C   UNL     1      47.531   6.442  13.746  0.00  0.00    +0.000 C 
BRANCH   7  12
ATOM      8  N   UNL     1      48.688   5.395  17.077  0.00  0.00    +0.000 N 
ATOM      9  C   UNL     1      47.495   4.760  17.613  0.00  0.00    +0.000 C 
ATOM     10  C   UNL     1      48.748   5.973  15.817  0.00  0.00    +0.000 C 
ATOM     11  O   UNL     1      49.763   6.512  15.373  0.00  0.00    +0.000 OA
ATOM     12  N   UNL     1      47.595   5.907  15.082  0.00  0.00    +0.000 N 
ATOM     13  H   UNL     1      46.818   5.358  15.403  0.00  0.00    +0.000 HD
BRANCH   8  15
ATOM     14  C   UNL     1      50.729   4.103  17.765  0.00  0.00    +0.000 C 
ATOM     15  C   UNL     1      49.907   5.381  17.892  0.00  0.00    +0.000 C 
ENDBRANCH   8  15
ENDBRANCH   7  12
ENDBRANCH   1   7
BRANCH   4  16
ATOM     16  O   UNL     1      43.804   3.625  10.494  0.00  0.00    +0.000 OA
BRANCH  16  17
ATOM     17  C   UNL     1      44.248   3.444   9.144  0.00  0.00    +0.000 C 
BRANCH  17  18
ATOM     18  C   UNL     1      45.178   2.228   9.089  0.00  0.00    +0.000 C 
BRANCH  18  19
ATOM     19  C   UNL     1      46.097   2.282   7.901  0.00  0.00    +0.000 A 
ATOM     20  C   UNL     1      46.073   3.356   7.009  0.00  0.00    +0.000 A 
ATOM     21  C   UNL     1      46.919   3.353   5.901  0.00  0.00    +0.000 A 
ATOM     22  C   UNL     1      47.760   2.269   5.720  0.00  0.00    +0.000 A 
ATOM     23  N   UNL     1      47.811   1.209   6.553  0.00  0.00    +0.000 NA
ATOM     24  C   UNL     1      46.981   1.242   7.623  0.00  0.00    +0.000 A 
ENDBRANCH  18  19
ENDBRANCH  17  18
ENDBRANCH  16  17
ENDBRANCH   4  16
TORSDOF 7
ENDMDL
MODEL 2
REMARK VINA RESULT:    -7.415      0.829      1.410
REMARK INTER + INTRA:         -11.197
REMARK INTER:                 -10.622
REMARK INTRA:                  -0.575
REMARK UNBOUND:                -0.748
REMARK  Name = 
REMARK  9 active torsions:
REMARK  status: ('A' for Active; 'I' for Inactive)
REMARK    1  A    between atoms: C_1  and  C_2
REMARK    2  A    between atoms: C_2  and  N_3
REMARK    3  A    between atoms: N_3  and  C_4
REMARK    4  A    between atoms: N_7  and  C_8
REMARK    5  A    between atoms: C_8  and  C_9
REMARK    6  A    between atoms: C_12  and  O_13
REMARK    7  A    between atoms: O_13  and  C_14
REMARK    8  A    between atoms: C_14  and  C_15
REMARK    9  A    between atoms: C_15  and  C_16
REMARK                            x       y       z     vdW  Elec       q    Type
REMARK                         _______ _______ _______ _____ _____    ______ ____
ROOT
ATOM      1  C   UNL     1      46.864   6.118  13.124  0.00  0.00    +0.000 A 
ATOM      2  C   UNL     1      46.798   6.634  11.823  0.00  0.00    +0.000 A 
ATOM      3  C   UNL     1      45.801   6.210  10.935  0.00  0.00    +0.000 A 
ATOM      4  C   UNL     1      44.850   5.273  11.341  0.00  0.00    +0.000 A 
ATOM      5  C   UNL     1      44.878   4.801  12.655  0.00  0.00    +0.000 A 
ATOM      6  C   UNL     1      45.876   5.219  13.542  0.00  0.00    +0.000 A 
ENDROOT
BRANCH   1   7
ATOM      7  C   UNL     1      47.969   6.542  14.057  0.00  0.00    +0.000 C 
BRANCH   7  12
ATOM      8  N   UNL     1      48.660   5.137  17.385  0.00  0.00    +0.000 N 
ATOM      9  C   UNL     1      47.360   4.597  17.749  0.00  0.00    +0.000 C 
ATOM     10  C   UNL     1      48.909   5.796  16.190  0.00  0.00    +0.000 C 
ATOM     11  O   UNL     1      50.014   6.253  15.893  0.00  0.00    +0.000 OA
ATOM     12  N   UNL     1      47.839   5.908  15.343  0.00  0.00    +0.000 N 
ATOM     13  H   UNL     1      46.981   5.423  15.540  0.00  0.00    +0.000 HD
BRANCH   8  15
ATOM     14  C   UNL     1      50.615   3.693  18.016  0.00  0.00    +0.000 C 
ATOM     15  C   UNL     1      49.779   4.933  18.311  0.00  0.00    +0.000 C 
ENDBRANCH   8  15
ENDBRANCH   7  12
ENDBRANCH   1   7
BRANCH   4  16
ATOM     16  O   UNL     1      43.835   4.789  10.559  0.00  0.00    +0.000 OA
BRANCH  16  17
ATOM     17  C   UNL     1      44.145   3.612   9.806  0.00  0.00    +0.000 C 
BRANCH  17  18
ATOM     18  C   UNL     1      44.689   4.030   8.436  0.00  0.00    +0.000 C 
BRANCH  18  19
ATOM     19  C   UNL     1      45.709   3.055   7.919  0.00  0.00    +0.000 A 
ATOM     20  C   UNL     1      46.582   3.395   6.883  0.00  0.00    +0.000 A 
ATOM     21  C   UNL     1      47.493   2.451   6.411  0.00  0.00    +0.000 A 
ATOM     22  C   UNL     1      47.496   1.193   6.988  0.00  0.00    +0.000 A 
ATOM     23  N   UNL     1      46.667   0.822   7.986  0.00  0.00    +0.000 NA
ATOM     24  C   UNL     1      45.796   1.761   8.428  0.00  0.00    +0.000 A 
ENDBRANCH  18  19
ENDBRANCH  17  18
ENDBRANCH  16  17
ENDBRANCH   4  16
TORSDOF 7
ENDMDL
MODEL 3
REMARK VINA RESULT:    -6.797      2.099      8.508
REMARK INTER + INTRA:         -10.326
REMARK INTER:                  -9.687
REMARK INTRA:                  -0.639
REMARK UNBOUND:                -0.748
REMARK  Name = 
REMARK  9 active torsions:
REMARK  status: ('A' for Active; 'I' for Inactive)
REMARK    1  A    between atoms: C_1  and  C_2
REMARK    2  A    between atoms: C_2  and  N_3
REMARK    3  A    between atoms: N_3  and  C_4
REMARK    4  A    between atoms: N_7  and  C_8
REMARK    5  A    between atoms: C_8  and  C_9
REMARK    6  A    between atoms: C_12  and  O_13
REMARK    7  A    between atoms: O_13  and  C_14
REMARK    8  A    between atoms: C_14  and  C_15
REMARK    9  A    between atoms: C_15  and  C_16
REMARK                            x       y       z     vdW  Elec       q    Type
REMARK                         _______ _______ _______ _____ _____    ______ ____
ROOT
ATOM      1  C   UNL     1      45.665   5.451  11.944  0.00  0.00    +0.000 A 
ATOM      2  C   UNL     1      45.497   4.516  12.973  0.00  0.00    +0.000 A 
ATOM      3  C   UNL     1      46.358   4.505  14.078  0.00  0.00    +0.000 A 
ATOM      4  C   UNL     1      47.390   5.439  14.173  0.00  0.00    +0.000 A 
ATOM      5  C   UNL     1      47.524   6.409  13.178  0.00  0.00    +0.000 A 
ATOM      6  C   UNL     1      46.669   6.418  12.072  0.00  0.00    +0.000 A 
ENDROOT
BRANCH   1   7
ATOM      7  C   UNL     1      44.766   5.424  10.735  0.00  0.00    +0.000 C 
BRANCH   7  12
ATOM      8  N   UNL     1      45.753   2.976   8.173  0.00  0.00    +0.000 N 
ATOM      9  C   UNL     1      45.102   1.769   8.658  0.00  0.00    +0.000 C 
ATOM     10  C   UNL     1      45.683   4.198   8.825  0.00  0.00    +0.000 C 
ATOM     11  O   UNL     1      46.240   5.214   8.407  0.00  0.00    +0.000 OA
ATOM     12  N   UNL     1      44.944   4.212   9.977  0.00  0.00    +0.000 N 
ATOM     13  H   UNL     1      44.394   3.413  10.238  0.00  0.00    +0.000 HD
BRANCH   8  15
ATOM     14  C   UNL     1      47.625   1.901   6.891  0.00  0.00    +0.000 C 
ATOM     15  C   UNL     1      46.481   2.908   6.902  0.00  0.00    +0.000 C 
ENDBRANCH   8  15
ENDBRANCH   7  12
ENDBRANCH   1   7
BRANCH   4  16
ATOM     16  O   UNL     1      48.287   5.520  15.205  0.00  0.00    +0.000 OA
BRANCH  16  17
ATOM     17  C   UNL     1      47.909   4.838  16.406  0.00  0.00    +0.000 C 
BRANCH  17  18
ATOM     18  C   UNL     1      49.030   4.996  17.439  0.00  0.00    +0.000 C 
BRANCH  18  19
ATOM     19  C   UNL     1      49.948   3.806  17.454  0.00  0.00    +0.000 A 
ATOM     20  C   UNL     1      51.276   3.915  17.874  0.00  0.00    +0.000 A 
ATOM     21  C   UNL     1      52.104   2.794  17.843  0.00  0.00    +0.000 A 
ATOM     22  C   UNL     1      51.576   1.600  17.385  0.00  0.00    +0.000 A 
ATOM     23  N   UNL     1      50.302   1.452  16.965  0.00  0.00    +0.000 NA
ATOM     24  C   UNL     1      49.520   2.557  17.011  0.00  0.00    +0.000 A 
ENDBRANCH  18  19
ENDBRANCH  17  18
ENDBRANCH  16  17
ENDBRANCH   4  16
TORSDOF 7
ENDMDL
MODEL 4
REMARK VINA RESULT:    -6.565      1.624      2.303
REMARK INTER + INTRA:         -10.000
REMARK INTER:                  -9.343
REMARK INTRA:                  -0.657
REMARK UNBOUND:                -0.748
REMARK  Name = 
REMARK  9 active torsions:
REMARK  status: ('A' for Active; 'I' for Inactive)
REMARK    1  A    between atoms: C_1  and  C_2
REMARK    2  A    between atoms: C_2  and  N_3
REMARK    3  A    between atoms: N_3  and  C_4
REMARK    4  A    between atoms: N_7  and  C_8
REMARK    5  A    between atoms: C_8  and  C_9
REMARK    6  A    between atoms: C_12  and  O_13
REMARK    7  A    between atoms: O_13  and  C_14
REMARK    8  A    between atoms: C_14  and  C_15
REMARK    9  A    between atoms: C_15  and  C_16
REMARK                            x       y       z     vdW  Elec       q    Type
REMARK                         _______ _______ _______ _____ _____    ______ ____
ROOT
ATOM      1  C   UNL     1      47.482   6.139  12.772  0.00  0.00    +0.000 A 
ATOM      2  C   UNL     1      46.815   6.805  11.736  0.00  0.00    +0.000 A 
ATOM      3  C   UNL     1      45.615   6.302  11.218  0.00  0.00    +0.000 A 
ATOM      4  C   UNL     1      45.060   5.132  11.738  0.00  0.00    +0.000 A 
ATOM      5  C   UNL     1      45.691   4.498  12.810  0.00  0.00    +0.000 A 
ATOM      6  C   UNL     1      46.892   4.996  13.326  0.00  0.00    +0.000 A 
ENDROOT
BRANCH   1   7
ATOM      7  C   UNL     1      48.798   6.659  13.291  0.00  0.00    +0.000 C 
BRANCH   7  12
ATOM      8  N   UNL     1      48.649   7.908  16.747  0.00  0.00    +0.000 N 
ATOM      9  C   UNL     1      48.116   9.247  16.551  0.00  0.00    +0.000 C 
ATOM     10  C   UNL     1      48.902   7.024  15.709  0.00  0.00    +0.000 C 
ATOM     11  O   UNL     1      49.357   5.893  15.886  0.00  0.00    +0.000 OA
ATOM     12  N   UNL     1      48.610   7.487  14.454  0.00  0.00    +0.000 N 
ATOM     13  H   UNL     1      48.125   8.358  14.334  0.00  0.00    +0.000 HD
BRANCH   8  15
ATOM     14  C   UNL     1      50.170   7.986  18.743  0.00  0.00    +0.000 C 
ATOM     15  C   UNL     1      48.886   7.450  18.120  0.00  0.00    +0.000 C 
ENDBRANCH   8  15
ENDBRANCH   7  12
ENDBRANCH   1   7
BRANCH   4  16
ATOM     16  O   UNL     1      43.895   4.553  11.309  0.00  0.00    +0.000 OA
BRANCH  16  17
ATOM     17  C   UNL     1      44.049   3.477  10.376  0.00  0.00    +0.000 C 
BRANCH  17  18
ATOM     18  C   UNL     1      44.483   4.053   9.024  0.00  0.00    +0.000 C 
BRANCH  18  19
ATOM     19  C   UNL     1      45.495   3.176   8.342  0.00  0.00    +0.000 A 
ATOM     20  C   UNL     1      45.546   1.801   8.581  0.00  0.00    +0.000 A 
ATOM     21  C   UNL     1      46.520   1.027   7.952  0.00  0.00    +0.000 A 
ATOM     22  C   UNL     1      47.416   1.658   7.107  0.00  0.00    +0.000 A 
ATOM     23  N   UNL     1      47.405   2.983   6.853  0.00  0.00    +0.000 NA
ATOM     24  C   UNL     1      46.445   3.709   7.474  0.00  0.00    +0.000 A 
ENDBRANCH  18  19
ENDBRANCH  17  18
ENDBRANCH  16  17
ENDBRANCH   4  16
TORSDOF 7
ENDMDL
MODEL 5
REMARK VINA RESULT:    -6.542      1.927      2.411
REMARK INTER + INTRA:          -9.966
REMARK INTER:                  -9.392
REMARK INTRA:                  -0.574
REMARK UNBOUND:                -0.748
REMARK  Name = 
REMARK  9 active torsions:
REMARK  status: ('A' for Active; 'I' for Inactive)
REMARK    1  A    between atoms: C_1  and  C_2
REMARK    2  A    between atoms: C_2  and  N_3
REMARK    3  A    between atoms: N_3  and  C_4
REMARK    4  A    between atoms: N_7  and  C_8
REMARK    5  A    between atoms: C_8  and  C_9
REMARK    6  A    between atoms: C_12  and  O_13
REMARK    7  A    between atoms: O_13  and  C_14
REMARK    8  A    between atoms: C_14  and  C_15
REMARK    9  A    between atoms: C_15  and  C_16
REMARK                            x       y       z     vdW  Elec       q    Type
REMARK                         _______ _______ _______ _____ _____    ______ ____
ROOT
ATOM      1  C   UNL     1      46.092   7.060  12.667  0.00  0.00    +0.000 A 
ATOM      2  C   UNL     1      45.255   7.074  11.544  0.00  0.00    +0.000 A 
ATOM      3  C   UNL     1      44.793   5.878  10.981  0.00  0.00    +0.000 A 
ATOM      4  C   UNL     1      45.151   4.652  11.542  0.00  0.00    +0.000 A 
ATOM      5  C   UNL     1      45.937   4.636  12.697  0.00  0.00    +0.000 A 
ATOM      6  C   UNL     1      46.403   5.829  13.258  0.00  0.00    +0.000 A 
ENDROOT
BRANCH   1   7
ATOM      7  C   UNL     1      46.625   8.349  13.238  0.00  0.00    +0.000 C 
BRANCH   7  12
ATOM      8  N   UNL     1      49.132   8.603  15.917  0.00  0.00    +0.000 N 
ATOM      9  C   UNL     1      48.837   7.418  16.706  0.00  0.00    +0.000 C 
ATOM     10  C   UNL     1      48.427   8.960  14.777  0.00  0.00    +0.000 C 
ATOM     11  O   UNL     1      48.684   9.969  14.117  0.00  0.00    +0.000 OA
ATOM     12  N   UNL     1      47.415   8.111  14.418  0.00  0.00    +0.000 N 
ATOM     13  H   UNL     1      47.298   7.232  14.889  0.00  0.00    +0.000 HD
BRANCH   8  15
ATOM     14  C   UNL     1      50.543   9.435  17.820  0.00  0.00    +0.000 C 
ATOM     15  C   UNL     1      50.267   9.441  16.321  0.00  0.00    +0.000 C 
ENDBRANCH   8  15
ENDBRANCH   7  12
ENDBRANCH   1   7
BRANCH   4  16
ATOM     16  O   UNL     1      44.759   3.425  11.076  0.00  0.00    +0.000 OA
BRANCH  16  17
ATOM     17  C   UNL     1      44.477   3.360   9.674  0.00  0.00    +0.000 C 
BRANCH  17  18
ATOM     18  C   UNL     1      44.942   2.002   9.138  0.00  0.00    +0.000 C 
BRANCH  18  19
ATOM     19  C   UNL     1      45.946   2.151   8.030  0.00  0.00    +0.000 A 
ATOM     20  C   UNL     1      45.983   3.296   7.230  0.00  0.00    +0.000 A 
ATOM     21  C   UNL     1      46.909   3.382   6.192  0.00  0.00    +0.000 A 
ATOM     22  C   UNL     1      47.766   2.315   5.985  0.00  0.00    +0.000 A 
ATOM     23  N   UNL     1      47.760   1.190   6.730  0.00  0.00    +0.000 NA
ATOM     24  C   UNL     1      46.853   1.136   7.734  0.00  0.00    +0.000 A 
ENDBRANCH  18  19
ENDBRANCH  17  18
ENDBRANCH  16  17
ENDBRANCH   4  16
TORSDOF 7
ENDMDL
MODEL 6
REMARK VINA RESULT:    -6.433      3.363      4.353
REMARK INTER + INTRA:          -9.814
REMARK INTER:                  -8.970
REMARK INTRA:                  -0.844
REMARK UNBOUND:                -0.748
REMARK  Name = 
REMARK  9 active torsions:
REMARK  status: ('A' for Active; 'I' for Inactive)
REMARK    1  A    between atoms: C_1  and  C_2
REMARK    2  A    between atoms: C_2  and  N_3
REMARK    3  A    between atoms: N_3  and  C_4
REMARK    4  A    between atoms: N_7  and  C_8
REMARK    5  A    between atoms: C_8  and  C_9
REMARK    6  A    between atoms: C_12  and  O_13
REMARK    7  A    between atoms: O_13  and  C_14
REMARK    8  A    between atoms: C_14  and  C_15
REMARK    9  A    between atoms: C_15  and  C_16
REMARK                            x       y       z     vdW  Elec       q    Type
REMARK                         _______ _______ _______ _____ _____    ______ ____
ROOT
ATOM      1  C   UNL     1      47.871   6.558  12.847  0.00  0.00    +0.000 A 
ATOM      2  C   UNL     1      47.495   5.475  13.652  0.00  0.00    +0.000 A 
ATOM      3  C   UNL     1      46.353   4.722  13.349  0.00  0.00    +0.000 A 
ATOM      4  C   UNL     1      45.581   5.034  12.230  0.00  0.00    +0.000 A 
ATOM      5  C   UNL     1      45.987   6.076  11.393  0.00  0.00    +0.000 A 
ATOM      6  C   UNL     1      47.124   6.832  11.696  0.00  0.00    +0.000 A 
ENDROOT
BRANCH   1   7
ATOM      7  C   UNL     1      49.073   7.393  13.207  0.00  0.00    +0.000 C 
BRANCH   7  12
ATOM      8  N   UNL     1      51.584   8.373  10.704  0.00  0.00    +0.000 N 
ATOM      9  C   UNL     1      51.881   7.096  10.074  0.00  0.00    +0.000 C 
ATOM     10  C   UNL     1      50.679   8.522  11.744  0.00  0.00    +0.000 C 
ATOM     11  O   UNL     1      50.437   9.608  12.273  0.00  0.00    +0.000 OA
ATOM     12  N   UNL     1      50.057   7.374  12.156  0.00  0.00    +0.000 N 
ATOM     13  H   UNL     1      50.169   6.521  11.636  0.00  0.00    +0.000 HD
BRANCH   8  15
ATOM     14  C   UNL     1      53.705   9.711  10.580  0.00  0.00    +0.000 C 
ATOM     15  C   UNL     1      52.241   9.574  10.179  0.00  0.00    +0.000 C 
ENDBRANCH   8  15
ENDBRANCH   7  12
ENDBRANCH   1   7
BRANCH   4  16
ATOM     16  O   UNL     1      44.449   4.368  11.841  0.00  0.00    +0.000 OA
BRANCH  16  17
ATOM     17  C   UNL     1      44.139   4.445  10.445  0.00  0.00    +0.000 C 
BRANCH  17  18
ATOM     18  C   UNL     1      44.221   3.039   9.841  0.00  0.00    +0.000 C 
BRANCH  18  19
ATOM     19  C   UNL     1      45.272   2.951   8.770  0.00  0.00    +0.000 A 
ATOM     20  C   UNL     1      45.901   1.743   8.464  0.00  0.00    +0.000 A 
ATOM     21  C   UNL     1      46.893   1.710   7.486  0.00  0.00    +0.000 A 
ATOM     22  C   UNL     1      47.228   2.892   6.849  0.00  0.00    +0.000 A 
ATOM     23  N   UNL     1      46.650   4.081   7.118  0.00  0.00    +0.000 NA
ATOM     24  C   UNL     1      45.686   4.081   8.070  0.00  0.00    +0.000 A 
ENDBRANCH  18  19
ENDBRANCH  17  18
ENDBRANCH  16  17
ENDBRANCH   4  16
TORSDOF 7
ENDMDL
MODEL 7
REMARK VINA RESULT:    -6.081      1.929      8.878
REMARK INTER + INTRA:          -9.318
REMARK INTER:                  -8.732
REMARK INTRA:                  -0.586
REMARK UNBOUND:                -0.748
REMARK  Name = 
REMARK  9 active torsions:
REMARK  status: ('A' for Active; 'I' for Inactive)
REMARK    1  A    between atoms: C_1  and  C_2
REMARK    2  A    between atoms: C_2  and  N_3
REMARK    3  A    between atoms: N_3  and  C_4
REMARK    4  A    between atoms: N_7  and  C_8
REMARK    5  A    between atoms: C_8  and  C_9
REMARK    6  A    between atoms: C_12  and  O_13
REMARK    7  A    between atoms: O_13  and  C_14
REMARK    8  A    between atoms: C_14  and  C_15
REMARK    9  A    between atoms: C_15  and  C_16
REMARK                            x       y       z     vdW  Elec       q    Type
REMARK                         _______ _______ _______ _____ _____    ______ ____
ROOT
ATOM      1  C   UNL     1      45.576   5.404  11.918  0.00  0.00    +0.000 A 
ATOM      2  C   UNL     1      45.661   4.413  12.904  0.00  0.00    +0.000 A 
ATOM      3  C   UNL     1      46.606   4.507  13.934  0.00  0.00    +0.000 A 
ATOM      4  C   UNL     1      47.470   5.601  13.997  0.00  0.00    +0.000 A 
ATOM      5  C   UNL     1      47.349   6.619  13.049  0.00  0.00    +0.000 A 
ATOM      6  C   UNL     1      46.409   6.524  12.017  0.00  0.00    +0.000 A 
ENDROOT
BRANCH   1   7
ATOM      7  C   UNL     1      44.590   5.270  10.786  0.00  0.00    +0.000 C 
BRANCH   7  12
ATOM      8  N   UNL     1      45.732   2.954   8.166  0.00  0.00    +0.000 N 
ATOM      9  C   UNL     1      45.177   1.692   8.631  0.00  0.00    +0.000 C 
ATOM     10  C   UNL     1      45.578   4.154   8.844  0.00  0.00    +0.000 C 
ATOM     11  O   UNL     1      46.056   5.217   8.444  0.00  0.00    +0.000 OA
ATOM     12  N   UNL     1      44.851   4.090  10.002  0.00  0.00    +0.000 N 
ATOM     13  H   UNL     1      44.364   3.248  10.251  0.00  0.00    +0.000 HD
BRANCH   8  15
ATOM     14  C   UNL     1      47.599   1.965   6.809  0.00  0.00    +0.000 C 
ATOM     15  C   UNL     1      46.452   2.966   6.889  0.00  0.00    +0.000 C 
ENDBRANCH   8  15
ENDBRANCH   7  12
ENDBRANCH   1   7
BRANCH   4  16
ATOM     16  O   UNL     1      48.429   5.795  14.955  0.00  0.00    +0.000 OA
BRANCH  16  17
ATOM     17  C   UNL     1      48.896   7.142  15.096  0.00  0.00    +0.000 C 
BRANCH  17  18
ATOM     18  C   UNL     1      49.807   7.224  16.325  0.00  0.00    +0.000 C 
BRANCH  18  19
ATOM     19  C   UNL     1      49.376   6.273  17.405  0.00  0.00    +0.000 A 
ATOM     20  C   UNL     1      48.287   6.556  18.233  0.00  0.00    +0.000 A 
ATOM     21  C   UNL     1      47.938   5.663  19.244  0.00  0.00    +0.000 A 
ATOM     22  C   UNL     1      48.697   4.515  19.398  0.00  0.00    +0.000 A 
ATOM     23  N   UNL     1      49.758   4.206  18.625  0.00  0.00    +0.000 NA
ATOM     24  C   UNL     1      50.070   5.090  17.647  0.00  0.00    +0.000 A 
ENDBRANCH  18  19
ENDBRANCH  17  18
ENDBRANCH  16  17
ENDBRANCH   4  16
TORSDOF 7
ENDMDL
MODEL 8
REMARK VINA RESULT:    -5.956      2.319      8.279
REMARK INTER + INTRA:          -9.142
REMARK INTER:                  -8.518
REMARK INTRA:                  -0.624
REMARK UNBOUND:                -0.748
REMARK  Name = 
REMARK  9 active torsions:
REMARK  status: ('A' for Active; 'I' for Inactive)
REMARK    1  A    between atoms: C_1  and  C_2
REMARK    2  A    between atoms: C_2  and  N_3
REMARK    3  A    between atoms: N_3  and  C_4
REMARK    4  A    between atoms: N_7  and  C_8
REMARK    5  A    between atoms: C_8  and  C_9
REMARK    6  A    between atoms: C_12  and  O_13
REMARK    7  A    between atoms: O_13  and  C_14
REMARK    8  A    between atoms: C_14  and  C_15
REMARK    9  A    between atoms: C_15  and  C_16
REMARK                            x       y       z     vdW  Elec       q    Type
REMARK                         _______ _______ _______ _____ _____    ______ ____
ROOT
ATOM      1  C   UNL     1      46.471   6.647  12.693  0.00  0.00    +0.000 A 
ATOM      2  C   UNL     1      46.573   5.429  13.378  0.00  0.00    +0.000 A 
ATOM      3  C   UNL     1      47.532   5.253  14.383  0.00  0.00    +0.000 A 
ATOM      4  C   UNL     1      48.393   6.296  14.725  0.00  0.00    +0.000 A 
ATOM      5  C   UNL     1      48.255   7.529  14.085  0.00  0.00    +0.000 A 
ATOM      6  C   UNL     1      47.301   7.706  13.077  0.00  0.00    +0.000 A 
ENDROOT
BRANCH   1   7
ATOM      7  C   UNL     1      45.470   6.813  11.579  0.00  0.00    +0.000 C 
BRANCH   7  12
ATOM      8  N   UNL     1      44.525   3.763   9.754  0.00  0.00    +0.000 N 
ATOM      9  C   UNL     1      43.599   3.140  10.688  0.00  0.00    +0.000 C 
ATOM     10  C   UNL     1      45.175   4.962  10.005  0.00  0.00    +0.000 C 
ATOM     11  O   UNL     1      45.960   5.480   9.209  0.00  0.00    +0.000 OA
ATOM     12  N   UNL     1      44.887   5.550  11.207  0.00  0.00    +0.000 N 
ATOM     13  H   UNL     1      44.154   5.185  11.790  0.00  0.00    +0.000 HD
BRANCH   8  15
ATOM     14  C   UNL     1      45.689   1.915   8.515  0.00  0.00    +0.000 C 
ATOM     15  C   UNL     1      44.746   3.112   8.459  0.00  0.00    +0.000 C 
ENDBRANCH   8  15
ENDBRANCH   7  12
ENDBRANCH   1   7
BRANCH   4  16
ATOM     16  O   UNL     1      49.365   6.234  15.689  0.00  0.00    +0.000 OA
BRANCH  16  17
ATOM     17  C   UNL     1      48.925   6.506  17.024  0.00  0.00    +0.000 C 
BRANCH  17  18
ATOM     18  C   UNL     1      48.353   5.219  17.629  0.00  0.00    +0.000 C 
BRANCH  18  19
ATOM     19  C   UNL     1      49.301   4.063  17.480  0.00  0.00    +0.000 A 
ATOM     20  C   UNL     1      50.604   4.120  17.980  0.00  0.00    +0.000 A 
ATOM     21  C   UNL     1      51.463   3.038  17.794  0.00  0.00    +0.000 A 
ATOM     22  C   UNL     1      50.989   1.934  17.106  0.00  0.00    +0.000 A 
ATOM     23  N   UNL     1      49.741   1.840  16.602  0.00  0.00    +0.000 NA
ATOM     24  C   UNL     1      48.928   2.904  16.803  0.00  0.00    +0.000 A 
ENDBRANCH  18  19
ENDBRANCH  17  18
ENDBRANCH  16  17
ENDBRANCH   4  16
TORSDOF 7
ENDMDL
MODEL 9
REMARK VINA RESULT:    -5.898      2.960      7.961
REMARK INTER + INTRA:          -9.060
REMARK INTER:                  -8.206
REMARK INTRA:                  -0.854
REMARK UNBOUND:                -0.748
REMARK  Name = 
REMARK  9 active torsions:
REMARK  status: ('A' for Active; 'I' for Inactive)
REMARK    1  A    between atoms: C_1  and  C_2
REMARK    2  A    between atoms: C_2  and  N_3
REMARK    3  A    between atoms: N_3  and  C_4
REMARK    4  A    between atoms: N_7  and  C_8
REMARK    5  A    between atoms: C_8  and  C_9
REMARK    6  A    between atoms: C_12  and  O_13
REMARK    7  A    between atoms: O_13  and  C_14
REMARK    8  A    between atoms: C_14  and  C_15
REMARK    9  A    between atoms: C_15  and  C_16
REMARK                            x       y       z     vdW  Elec       q    Type
REMARK                         _______ _______ _______ _____ _____    ______ ____
ROOT
ATOM      1  C   UNL     1      45.503   5.076  11.839  0.00  0.00    +0.000 A 
ATOM      2  C   UNL     1      45.675   4.214  12.931  0.00  0.00    +0.000 A 
ATOM      3  C   UNL     1      46.645   4.480  13.906  0.00  0.00    +0.000 A 
ATOM      4  C   UNL     1      47.446   5.618  13.808  0.00  0.00    +0.000 A 
ATOM      5  C   UNL     1      47.237   6.509  12.753  0.00  0.00    +0.000 A 
ATOM      6  C   UNL     1      46.272   6.243  11.776  0.00  0.00    +0.000 A 
ENDROOT
BRANCH   1   7
ATOM      7  C   UNL     1      44.491   4.757  10.769  0.00  0.00    +0.000 C 
BRANCH   7  12
ATOM      8  N   UNL     1      45.970   2.831   8.007  0.00  0.00    +0.000 N 
ATOM      9  C   UNL     1      45.685   1.465   8.419  0.00  0.00    +0.000 C 
ATOM     10  C   UNL     1      45.610   3.946   8.749  0.00  0.00    +0.000 C 
ATOM     11  O   UNL     1      45.859   5.099   8.393  0.00  0.00    +0.000 OA
ATOM     12  N   UNL     1      44.948   3.688   9.919  0.00  0.00    +0.000 N 
ATOM     13  H   UNL     1      44.641   2.756  10.136  0.00  0.00    +0.000 HD
BRANCH   8  15
ATOM     14  C   UNL     1      47.668   1.981   6.364  0.00  0.00    +0.000 C 
ATOM     15  C   UNL     1      46.631   3.042   6.715  0.00  0.00    +0.000 C 
ENDBRANCH   8  15
ENDBRANCH   7  12
ENDBRANCH   1   7
BRANCH   4  16
ATOM     16  O   UNL     1      48.422   5.975  14.700  0.00  0.00    +0.000 OA
BRANCH  16  17
ATOM     17  C   UNL     1      48.608   7.384  14.879  0.00  0.00    +0.000 C 
BRANCH  17  18
ATOM     18  C   UNL     1      50.066   7.735  14.562  0.00  0.00    +0.000 C 
BRANCH  18  19
ATOM     19  C   UNL     1      50.176   8.646  13.373  0.00  0.00    +0.000 A 
ATOM     20  C   UNL     1      49.460   9.844  13.304  0.00  0.00    +0.000 A 
ATOM     21  C   UNL     1      49.565  10.646  12.169  0.00  0.00    +0.000 A 
ATOM     22  C   UNL     1      50.381  10.219  11.135  0.00  0.00    +0.000 A 
ATOM     23  N   UNL     1      51.084   9.068  11.159  0.00  0.00    +0.000 NA
ATOM     24  C   UNL     1      50.966   8.312  12.276  0.00  0.00    +0.000 A 
ENDBRANCH  18  19
ENDBRANCH  17  18
ENDBRANCH  16  17
ENDBRANCH   4  16
TORSDOF 7
ENDMDL
