MODEL 1
REMARK VINA RESULT:    -8.327      0.000      0.000
REMARK INTER + INTRA:         -10.845
REMARK INTER:                 -10.274
REMARK INTRA:                  -0.571
REMARK UNBOUND:                -0.571
REMARK  Name = 
REMARK  4 active torsions:
REMARK  status: ('A' for Active; 'I' for Inactive)
REMARK    1  A    between atoms: C_2  and  C_5
REMARK    2  A    between atoms: N_10  and  C_11
REMARK    3  A    between atoms: C_11  and  C_12
REMARK    4  A    between atoms: C_16  and  C_17
REMARK                            x       y       z     vdW  Elec       q    Type
REMARK                         _______ _______ _______ _____ _____    ______ ____
ROOT
ATOM      1  C   UNL     1      46.049   5.402  13.650  0.00  0.00    +0.000 C 
ENDROOT
BRANCH   1   7
ATOM      2  C   UNL     1      47.761   4.465  17.573  0.00  0.00    +0.000 A 
ATOM      3  C   UNL     1      48.414   3.240  17.682  0.00  0.00    +0.000 A 
ATOM      4  C   UNL     1      48.480   2.443  16.555  0.00  0.00    +0.000 A 
ATOM      5  N   UNL     1      47.962   2.791  15.356  0.00  0.00    +0.000 NA
ATOM      6  C   UNL     1      47.349   3.984  15.240  0.00  0.00    +0.000 A 
ATOM      7  N   UNL     1      46.965   4.327  13.972  0.00  0.00    +0.000 N 
ATOM      8  C   UNL     1      47.223   4.829  16.332  0.00  0.00    +0.000 A 
ATOM      9  H   UNL     1      46.980   3.534  13.339  0.00  0.00    +0.000 HD
BRANCH   2  11
ATOM     10  F   UNL     1      48.189   4.952  19.882  0.00  0.00    +0.000 F 
ATOM     11  C   UNL     1      47.634   5.415  18.729  0.00  0.00    +0.000 C 
ATOM     12  F   UNL     1      46.336   5.702  19.023  0.00  0.00    +0.000 F 
ATOM     13  F   UNL     1      48.232   6.613  18.481  0.00  0.00    +0.000 F 
ENDBRANCH   2  11
ENDBRANCH   1   7
BRANCH   1  14
ATOM     14  C   UNL     1      45.095   4.965  12.559  0.00  0.00    +0.000 A 
ATOM     15  C   UNL     1      43.723   5.128  12.738  0.00  0.00    +0.000 A 
ATOM     16  C   UNL     1      42.866   4.709  11.732  0.00  0.00    +0.000 A 
ATOM     17  C   UNL     1      43.400   4.157  10.572  0.00  0.00    +0.000 A 
ATOM     18  C   UNL     1      44.785   4.036  10.440  0.00  0.00    +0.000 A 
ATOM     19  N   UNL     1      45.627   4.440  11.426  0.00  0.00    +0.000 NA
BRANCH  18  20
ATOM     20  C   UNL     1      45.431   3.493   9.229  0.00  0.00    +0.000 A 
ATOM     21  C   UNL     1      45.812   4.348   8.176  0.00  0.00    +0.000 A 
ATOM     22  C   UNL     1      46.402   3.856   7.006  0.00  0.00    +0.000 A 
ATOM     23  C   UNL     1      46.630   2.490   6.868  0.00  0.00    +0.000 A 
ATOM     24  C   UNL     1      46.274   1.628   7.901  0.00  0.00    +0.000 A 
ATOM     25 CL   UNL     1      46.553  -0.063   7.736  0.00  0.00    +0.000 Cl
ATOM     26  C   UNL     1      45.688   2.117   9.069  0.00  0.00    +0.000 A 
ENDBRANCH  18  20
ENDBRANCH   1  14
TORSDOF 4
ENDMDL
MODEL 2
REMARK VINA RESULT:    -7.912      3.479      4.437
REMARK INTER + INTRA:         -10.334
REMARK INTER:                  -9.767
REMARK INTRA:                  -0.567
REMARK UNBOUND:                -0.571
REMARK  Name = 
REMARK  4 active torsions:
REMARK  status: ('A' for Active; 'I' for Inactive)
REMARK    1  A    between atoms: C_2  and  C_5
REMARK    2  A    between atoms: N_10  and  C_11
REMARK    3  A    between atoms: C_11  and  C_12
REMARK    4  A    between atoms: C_16  and  C_17
REMARK                            x       y       z     vdW  Elec       q    Type
REMARK                         _______ _______ _______ _____ _____    ______ ____
ROOT
ATOM      1  C   UNL     1      45.806   4.426  13.897  0.00  0.00    +0.000 C 
ENDROOT
BRANCH   1   7
ATOM      2  C   UNL     1      46.817   8.395  12.339  0.00  0.00    +0.000 A 
ATOM      3  C   UNL     1      48.170   8.724  12.327  0.00  0.00    +0.000 A 
ATOM      4  C   UNL     1      49.067   7.778  12.786  0.00  0.00    +0.000 A 
ATOM      5  N   UNL     1      48.708   6.553  13.229  0.00  0.00    +0.000 NA
ATOM      6  C   UNL     1      47.403   6.221  13.222  0.00  0.00    +0.000 A 
ATOM      7  N   UNL     1      47.123   4.925  13.559  0.00  0.00    +0.000 N 
ATOM      8  C   UNL     1      46.441   7.126  12.797  0.00  0.00    +0.000 A 
ATOM      9  H   UNL     1      47.913   4.464  13.998  0.00  0.00    +0.000 HD
BRANCH   2  11
ATOM     10  F   UNL     1      44.941   9.800  12.846  0.00  0.00    +0.000 F 
ATOM     11  C   UNL     1      45.755   9.340  11.858  0.00  0.00    +0.000 C 
ATOM     12  F   UNL     1      44.938   8.770  10.930  0.00  0.00    +0.000 F 
ATOM     13  F   UNL     1      46.279  10.446  11.259  0.00  0.00    +0.000 F 
ENDBRANCH   2  11
ENDBRANCH   1   7
BRANCH   1  14
ATOM     14  C   UNL     1      44.937   4.368  12.659  0.00  0.00    +0.000 A 
ATOM     15  C   UNL     1      43.617   4.805  12.723  0.00  0.00    +0.000 A 
ATOM     16  C   UNL     1      42.834   4.730  11.580  0.00  0.00    +0.000 A 
ATOM     17  C   UNL     1      43.394   4.240  10.405  0.00  0.00    +0.000 A 
ATOM     18  C   UNL     1      44.731   3.835  10.395  0.00  0.00    +0.000 A 
ATOM     19  N   UNL     1      45.498   3.901  11.514  0.00  0.00    +0.000 NA
BRANCH  18  20
ATOM     20  C   UNL     1      45.409   3.337   9.182  0.00  0.00    +0.000 A 
ATOM     21  C   UNL     1      45.777   4.223   8.152  0.00  0.00    +0.000 A 
ATOM     22  C   UNL     1      46.397   3.773   6.981  0.00  0.00    +0.000 A 
ATOM     23  C   UNL     1      46.669   2.418   6.819  0.00  0.00    +0.000 A 
ATOM     24  C   UNL     1      46.327   1.525   7.830  0.00  0.00    +0.000 A 
ATOM     25 CL   UNL     1      46.660  -0.153   7.636  0.00  0.00    +0.000 Cl
ATOM     26  C   UNL     1      45.711   1.972   9.000  0.00  0.00    +0.000 A 
ENDBRANCH  18  20
ENDBRANCH   1  14
TORSDOF 4
ENDMDL
MODEL 3
REMARK VINA RESULT:    -7.848      3.869      4.409
REMARK INTER + INTRA:         -10.254
REMARK INTER:                  -9.571
REMARK INTRA:                  -0.683
REMARK UNBOUND:                -0.571
REMARK  Name = 
REMARK  4 active torsions:
REMARK  status: ('A' for Active; 'I' for Inactive)
REMARK    1  A    between atoms: C_2  and  C_5
REMARK    2  A    between atoms: N_10  and  C_11
REMARK    3  A    between atoms: C_11  and  C_12
REMARK    4  A    between atoms: C_16  and  C_17
REMARK                            x       y       z     vdW  Elec       q    Type
REMARK                         _______ _______ _______ _____ _____    ______ ____
ROOT
ATOM      1  C   UNL     1      45.389   6.795  12.163  0.00  0.00    +0.000 C 
ENDROOT
BRANCH   1   7
ATOM      2  C   UNL     1      49.638   7.724  12.700  0.00  0.00    +0.000 A 
ATOM      3  C   UNL     1      50.145   7.558  13.986  0.00  0.00    +0.000 A 
ATOM      4  C   UNL     1      49.282   7.106  14.965  0.00  0.00    +0.000 A 
ATOM      5  N   UNL     1      47.984   6.802  14.743  0.00  0.00    +0.000 NA
ATOM      6  C   UNL     1      47.494   6.940  13.497  0.00  0.00    +0.000 A 
ATOM      7  N   UNL     1      46.213   6.492  13.315  0.00  0.00    +0.000 N 
ATOM      8  C   UNL     1      48.293   7.410  12.466  0.00  0.00    +0.000 A 
ATOM      9  H   UNL     1      45.731   6.342  14.196  0.00  0.00    +0.000 HD
BRANCH   2  11
ATOM     10  F   UNL     1      49.997   9.314  10.941  0.00  0.00    +0.000 F 
ATOM     11  C   UNL     1      50.484   8.203  11.556  0.00  0.00    +0.000 C 
ATOM     12  F   UNL     1      50.618   7.261  10.583  0.00  0.00    +0.000 F 
ATOM     13  F   UNL     1      51.752   8.515  11.946  0.00  0.00    +0.000 F 
ENDBRANCH   2  11
ENDBRANCH   1   7
BRANCH   1  14
ATOM     14  C   UNL     1      44.781   5.524  11.609  0.00  0.00    +0.000 A 
ATOM     15  C   UNL     1      43.618   5.013  12.179  0.00  0.00    +0.000 A 
ATOM     16  C   UNL     1      43.084   3.840  11.665  0.00  0.00    +0.000 A 
ATOM     17  C   UNL     1      43.714   3.223  10.589  0.00  0.00    +0.000 A 
ATOM     18  C   UNL     1      44.867   3.793  10.046  0.00  0.00    +0.000 A 
ATOM     19  N   UNL     1      45.395   4.938  10.551  0.00  0.00    +0.000 NA
BRANCH  18  20
ATOM     20  C   UNL     1      45.574   3.219   8.883  0.00  0.00    +0.000 A 
ATOM     21  C   UNL     1      46.049   4.052   7.852  0.00  0.00    +0.000 A 
ATOM     22  C   UNL     1      46.698   3.531   6.727  0.00  0.00    +0.000 A 
ATOM     23  C   UNL     1      46.893   2.158   6.614  0.00  0.00    +0.000 A 
ATOM     24  C   UNL     1      46.445   1.318   7.628  0.00  0.00    +0.000 A 
ATOM     25 CL   UNL     1      46.682  -0.383   7.494  0.00  0.00    +0.000 Cl
ATOM     26  C   UNL     1      45.799   1.834   8.752  0.00  0.00    +0.000 A 
ENDBRANCH  18  20
ENDBRANCH   1  14
TORSDOF 4
ENDMDL
MODEL 4
REMARK VINA RESULT:    -7.782      5.620      8.008
REMARK INTER + INTRA:         -10.172
REMARK INTER:                  -9.553
REMARK INTRA:                  -0.619
REMARK UNBOUND:                -0.571
REMARK  Name = 
REMARK  4 active torsions:
REMARK  status: ('A' for Active; 'I' for Inactive)
REMARK    1  A    between atoms: C_2  and  C_5
REMARK    2  A    between atoms: N_10  and  C_11
REMARK    3  A    between atoms: C_11  and  C_12
REMARK    4  A    between atoms: C_16  and  C_17
REMARK                            x       y       z     vdW  Elec       q    Type
REMARK                         _______ _______ _______ _____ _____    ______ ____
ROOT
ATOM      1  C   UNL     1      44.345   6.335  11.030  0.00  0.00    +0.000 C 
ENDROOT
BRANCH   1   7
ATOM      2  C   UNL     1      45.753   3.189   8.325  0.00  0.00    +0.000 A 
ATOM      3  C   UNL     1      45.212   1.921   8.522  0.00  0.00    +0.000 A 
ATOM      4  C   UNL     1      44.279   1.769   9.530  0.00  0.00    +0.000 A 
ATOM      5  N   UNL     1      43.852   2.780  10.320  0.00  0.00    +0.000 NA
ATOM      6  C   UNL     1      44.356   4.012  10.118  0.00  0.00    +0.000 A 
ATOM      7  N   UNL     1      43.787   5.009  10.863  0.00  0.00    +0.000 N 
ATOM      8  C   UNL     1      45.314   4.238   9.141  0.00  0.00    +0.000 A 
ATOM      9  H   UNL     1      43.234   4.645  11.633  0.00  0.00    +0.000 HD
BRANCH   2  11
ATOM     10  F   UNL     1      47.833   2.625   7.272  0.00  0.00    +0.000 F 
ATOM     11  C   UNL     1      46.769   3.473   7.256  0.00  0.00    +0.000 C 
ATOM     12  F   UNL     1      47.285   4.729   7.354  0.00  0.00    +0.000 F 
ATOM     13  F   UNL     1      46.239   3.387   6.004  0.00  0.00    +0.000 F 
ENDBRANCH   2  11
ENDBRANCH   1   7
BRANCH   1  14
ATOM     14  C   UNL     1      45.590   6.272  11.889  0.00  0.00    +0.000 A 
ATOM     15  C   UNL     1      45.654   5.365  12.945  0.00  0.00    +0.000 A 
ATOM     16  C   UNL     1      46.798   5.333  13.728  0.00  0.00    +0.000 A 
ATOM     17  C   UNL     1      47.851   6.190  13.425  0.00  0.00    +0.000 A 
ATOM     18  C   UNL     1      47.739   7.064  12.342  0.00  0.00    +0.000 A 
ATOM     19  N   UNL     1      46.617   7.103  11.577  0.00  0.00    +0.000 NA
BRANCH  18  20
ATOM     20  C   UNL     1      48.824   7.980  11.934  0.00  0.00    +0.000 A 
ATOM     21  C   UNL     1      48.607   9.370  11.885  0.00  0.00    +0.000 A 
ATOM     22  C   UNL     1      49.609  10.257  11.476  0.00  0.00    +0.000 A 
ATOM     23  C   UNL     1      50.859   9.767  11.112  0.00  0.00    +0.000 A 
ATOM     24  C   UNL     1      51.101   8.398  11.166  0.00  0.00    +0.000 A 
ATOM     25 CL   UNL     1      52.646   7.786  10.716  0.00  0.00    +0.000 Cl
ATOM     26  C   UNL     1      50.104   7.512  11.576  0.00  0.00    +0.000 A 
ENDBRANCH  18  20
ENDBRANCH   1  14
TORSDOF 4
ENDMDL
MODEL 5
REMARK VINA RESULT:    -7.714      2.664      3.259
REMARK INTER + INTRA:         -10.088
REMARK INTER:                  -9.346
REMARK INTRA:                  -0.742
REMARK UNBOUND:                -0.571
REMARK  Name = 
REMARK  4 active torsions:
REMARK  status: ('A' for Active; 'I' for Inactive)
REMARK    1  A    between atoms: C_2  and  C_5
REMARK    2  A    between atoms: N_10  and  C_11
REMARK    3  A    between atoms: C_11  and  C_12
REMARK    4  A    between atoms: C_16  and  C_17
REMARK                            x       y       z     vdW  Elec       q    Type
REMARK                         _______ _______ _______ _____ _____    ______ ____
ROOT
ATOM      1  C   UNL     1      44.733   6.635  12.466  0.00  0.00    +0.000 C 
ENDROOT
BRANCH   1   7
ATOM      2  C   UNL     1      48.805   7.029  14.037  0.00  0.00    +0.000 A 
ATOM      3  C   UNL     1      49.795   7.333  13.107  0.00  0.00    +0.000 A 
ATOM      4  C   UNL     1      49.413   7.499  11.790  0.00  0.00    +0.000 A 
ATOM      5  N   UNL     1      48.136   7.398  11.358  0.00  0.00    +0.000 NA
ATOM      6  C   UNL     1      47.172   7.126  12.257  0.00  0.00    +0.000 A 
ATOM      7  N   UNL     1      45.890   7.166  11.776  0.00  0.00    +0.000 N 
ATOM      8  C   UNL     1      47.480   6.924  13.594  0.00  0.00    +0.000 A 
ATOM      9  H   UNL     1      45.862   7.159  10.761  0.00  0.00    +0.000 HD
BRANCH   2  11
ATOM     10  F   UNL     1      48.381   5.836  16.074  0.00  0.00    +0.000 F 
ATOM     11  C   UNL     1      49.102   6.834  15.496  0.00  0.00    +0.000 C 
ATOM     12  F   UNL     1      48.852   7.954  16.228  0.00  0.00    +0.000 F 
ATOM     13  F   UNL     1      50.411   6.530  15.720  0.00  0.00    +0.000 F 
ENDBRANCH   2  11
ENDBRANCH   1   7
BRANCH   1  14
ATOM     14  C   UNL     1      44.424   5.240  11.968  0.00  0.00    +0.000 A 
ATOM     15  C   UNL     1      43.515   4.446  12.661  0.00  0.00    +0.000 A 
ATOM     16  C   UNL     1      43.256   3.166  12.196  0.00  0.00    +0.000 A 
ATOM     17  C   UNL     1      43.897   2.721  11.043  0.00  0.00    +0.000 A 
ATOM     18  C   UNL     1      44.784   3.569  10.378  0.00  0.00    +0.000 A 
ATOM     19  N   UNL     1      45.044   4.821  10.835  0.00  0.00    +0.000 NA
BRANCH  18  20
ATOM     20  C   UNL     1      45.478   3.186   9.131  0.00  0.00    +0.000 A 
ATOM     21  C   UNL     1      45.799   4.156   8.163  0.00  0.00    +0.000 A 
ATOM     22  C   UNL     1      46.432   3.815   6.962  0.00  0.00    +0.000 A 
ATOM     23  C   UNL     1      46.762   2.488   6.707  0.00  0.00    +0.000 A 
ATOM     24  C   UNL     1      46.466   1.514   7.655  0.00  0.00    +0.000 A 
ATOM     25 CL   UNL     1      46.873  -0.130   7.345  0.00  0.00    +0.000 Cl
ATOM     26  C   UNL     1      45.839   1.852   8.854  0.00  0.00    +0.000 A 
ENDBRANCH  18  20
ENDBRANCH   1  14
TORSDOF 4
ENDMDL
MODEL 6
REMARK VINA RESULT:    -7.520      5.096      8.198
REMARK INTER + INTRA:          -9.850
REMARK INTER:                  -9.165
REMARK INTRA:                  -0.684
REMARK UNBOUND:                -0.571
REMARK  Name = 
REMARK  4 active torsions:
REMARK  status: ('A' for Active; 'I' for Inactive)
REMARK    1  A    between atoms: C_2  and  C_5
REMARK    2  A    between atoms: N_10  and  C_11
REMARK    3  A    between atoms: C_11  and  C_12
REMARK    4  A    between atoms: C_16  and  C_17
REMARK                            x       y       z     vdW  Elec       q    Type
REMARK                         _______ _______ _______ _____ _____    ______ ____
ROOT
ATOM      1  C   UNL     1      45.188   7.580  11.746  0.00  0.00    +0.000 C 
ENDROOT
BRANCH   1   7
ATOM      2  C   UNL     1      44.858   3.732   9.676  0.00  0.00    +0.000 A 
ATOM      3  C   UNL     1      44.137   2.739  10.336  0.00  0.00    +0.000 A 
ATOM      4  C   UNL     1      43.583   3.053  11.562  0.00  0.00    +0.000 A 
ATOM      5  N   UNL     1      43.687   4.267  12.147  0.00  0.00    +0.000 NA
ATOM      6  C   UNL     1      44.363   5.237  11.503  0.00  0.00    +0.000 A 
ATOM      7  N   UNL     1      44.318   6.474  12.088  0.00  0.00    +0.000 N 
ATOM      8  C   UNL     1      44.967   4.991  10.279  0.00  0.00    +0.000 A 
ATOM      9  H   UNL     1      43.984   6.433  13.045  0.00  0.00    +0.000 HD
BRANCH   2  11
ATOM     10  F   UNL     1      46.207   2.349   8.256  0.00  0.00    +0.000 F 
ATOM     11  C   UNL     1      45.497   3.507   8.337  0.00  0.00    +0.000 C 
ATOM     12  F   UNL     1      46.361   4.504   8.002  0.00  0.00    +0.000 F 
ATOM     13  F   UNL     1      44.582   3.456   7.329  0.00  0.00    +0.000 F 
ENDBRANCH   2  11
ENDBRANCH   1   7
BRANCH   1  14
ATOM     14  C   UNL     1      46.575   7.344  12.305  0.00  0.00    +0.000 A 
ATOM     15  C   UNL     1      47.682   7.876  11.649  0.00  0.00    +0.000 A 
ATOM     16  C   UNL     1      48.944   7.637  12.171  0.00  0.00    +0.000 A 
ATOM     17  C   UNL     1      49.065   6.891  13.340  0.00  0.00    +0.000 A 
ATOM     18  C   UNL     1      47.918   6.400  13.965  0.00  0.00    +0.000 A 
ATOM     19  N   UNL     1      46.680   6.627  13.453  0.00  0.00    +0.000 NA
BRANCH  18  20
ATOM     20  C   UNL     1      47.958   5.630  15.225  0.00  0.00    +0.000 A 
ATOM     21  C   UNL     1      47.194   4.456  15.371  0.00  0.00    +0.000 A 
ATOM     22  C   UNL     1      47.194   3.724  16.564  0.00  0.00    +0.000 A 
ATOM     23  C   UNL     1      47.968   4.151  17.638  0.00  0.00    +0.000 A 
ATOM     24  C   UNL     1      48.741   5.300  17.511  0.00  0.00    +0.000 A 
ATOM     25 CL   UNL     1      49.701   5.834  18.837  0.00  0.00    +0.000 Cl
ATOM     26  C   UNL     1      48.745   6.031  16.323  0.00  0.00    +0.000 A 
ENDBRANCH  18  20
ENDBRANCH   1  14
TORSDOF 4
ENDMDL
MODEL 7
REMARK VINA RESULT:    -7.463      2.656      3.432
REMARK INTER + INTRA:          -9.779
REMARK INTER:                  -8.988
REMARK INTRA:                  -0.791
REMARK UNBOUND:                -0.571
REMARK  Name = 
REMARK  4 active torsions:
REMARK  status: ('A' for Active; 'I' for Inactive)
REMARK    1  A    between atoms: C_2  and  C_5
REMARK    2  A    between atoms: N_10  and  C_11
REMARK    3  A    between atoms: C_11  and  C_12
REMARK    4  A    between atoms: C_16  and  C_17
REMARK                            x       y       z     vdW  Elec       q    Type
REMARK                         _______ _______ _______ _____ _____    ______ ____
ROOT
ATOM      1  C   UNL     1      48.618   7.300  13.249  0.00  0.00    +0.000 C 
ENDROOT
BRANCH   1   7
ATOM      2  C   UNL     1      48.244   4.703  16.758  0.00  0.00    +0.000 A 
ATOM      3  C   UNL     1      48.429   5.313  17.996  0.00  0.00    +0.000 A 
ATOM      4  C   UNL     1      48.695   6.669  18.013  0.00  0.00    +0.000 A 
ATOM      5  N   UNL     1      48.770   7.435  16.902  0.00  0.00    +0.000 NA
ATOM      6  C   UNL     1      48.570   6.855  15.704  0.00  0.00    +0.000 A 
ATOM      7  N   UNL     1      48.531   7.709  14.635  0.00  0.00    +0.000 N 
ATOM      8  C   UNL     1      48.320   5.494  15.605  0.00  0.00    +0.000 A 
ATOM      9  H   UNL     1      48.896   8.628  14.865  0.00  0.00    +0.000 HD
BRANCH   2  11
ATOM     10  F   UNL     1      47.616   2.865  15.352  0.00  0.00    +0.000 F 
ATOM     11  C   UNL     1      47.943   3.239  16.619  0.00  0.00    +0.000 C 
ATOM     12  F   UNL     1      46.905   2.848  17.408  0.00  0.00    +0.000 F 
ATOM     13  F   UNL     1      48.998   2.458  16.981  0.00  0.00    +0.000 F 
ENDBRANCH   2  11
ENDBRANCH   1   7
BRANCH   1  14
ATOM     14  C   UNL     1      47.249   7.349  12.604  0.00  0.00    +0.000 A 
ATOM     15  C   UNL     1      46.458   8.485  12.750  0.00  0.00    +0.000 A 
ATOM     16  C   UNL     1      45.202   8.504  12.163  0.00  0.00    +0.000 A 
ATOM     17  C   UNL     1      44.778   7.397  11.433  0.00  0.00    +0.000 A 
ATOM     18  C   UNL     1      45.622   6.293  11.304  0.00  0.00    +0.000 A 
ATOM     19  N   UNL     1      46.851   6.269  11.883  0.00  0.00    +0.000 NA
BRANCH  18  20
ATOM     20  C   UNL     1      45.262   5.095  10.519  0.00  0.00    +0.000 A 
ATOM     21  C   UNL     1      44.434   4.099  11.071  0.00  0.00    +0.000 A 
ATOM     22  C   UNL     1      44.099   2.942  10.359  0.00  0.00    +0.000 A 
ATOM     23  C   UNL     1      44.586   2.760   9.068  0.00  0.00    +0.000 A 
ATOM     24  C   UNL     1      45.395   3.737   8.497  0.00  0.00    +0.000 A 
ATOM     25 CL   UNL     1      46.000   3.518   6.900  0.00  0.00    +0.000 Cl
ATOM     26  C   UNL     1      45.727   4.893   9.204  0.00  0.00    +0.000 A 
ENDBRANCH  18  20
ENDBRANCH   1  14
TORSDOF 4
ENDMDL
MODEL 8
REMARK VINA RESULT:    -7.098      4.824      8.852
REMARK INTER + INTRA:          -9.329
REMARK INTER:                  -8.817
REMARK INTRA:                  -0.513
REMARK UNBOUND:                -0.571
REMARK  Name = 
REMARK  4 active torsions:
REMARK  status: ('A' for Active; 'I' for Inactive)
REMARK    1  A    between atoms: C_2  and  C_5
REMARK    2  A    between atoms: N_10  and  C_11
REMARK    3  A    between atoms: C_11  and  C_12
REMARK    4  A    between atoms: C_16  and  C_17
REMARK                            x       y       z     vdW  Elec       q    Type
REMARK                         _______ _______ _______ _____ _____    ______ ____
ROOT
ATOM      1  C   UNL     1      47.069   4.183  15.697  0.00  0.00    +0.000 C 
ENDROOT
BRANCH   1   7
ATOM      2  C   UNL     1      45.313   4.638  11.708  0.00  0.00    +0.000 A 
ATOM      3  C   UNL     1      45.546   5.853  11.069  0.00  0.00    +0.000 A 
ATOM      4  C   UNL     1      46.313   6.792  11.731  0.00  0.00    +0.000 A 
ATOM      5  N   UNL     1      46.860   6.592  12.951  0.00  0.00    +0.000 NA
ATOM      6  C   UNL     1      46.657   5.411  13.563  0.00  0.00    +0.000 A 
ATOM      7  N   UNL     1      47.345   5.228  14.733  0.00  0.00    +0.000 N 
ATOM      8  C   UNL     1      45.879   4.427  12.972  0.00  0.00    +0.000 A 
ATOM      9  H   UNL     1      47.722   6.097  15.095  0.00  0.00    +0.000 HD
BRANCH   2  11
ATOM     10  F   UNL     1      45.243   2.634  10.392  0.00  0.00    +0.000 F 
ATOM     11  C   UNL     1      44.500   3.542  11.082  0.00  0.00    +0.000 C 
ATOM     12  F   UNL     1      43.578   4.020  10.202  0.00  0.00    +0.000 F 
ATOM     13  F   UNL     1      43.797   2.828  12.004  0.00  0.00    +0.000 F 
ENDBRANCH   2  11
ENDBRANCH   1   7
BRANCH   1  14
ATOM     14  C   UNL     1      47.998   4.313  16.885  0.00  0.00    +0.000 A 
ATOM     15  C   UNL     1      47.600   5.056  17.993  0.00  0.00    +0.000 A 
ATOM     16  C   UNL     1      48.471   5.173  19.065  0.00  0.00    +0.000 A 
ATOM     17  C   UNL     1      49.705   4.532  19.010  0.00  0.00    +0.000 A 
ATOM     18  C   UNL     1      50.042   3.783  17.881  0.00  0.00    +0.000 A 
ATOM     19  N   UNL     1      49.193   3.672  16.826  0.00  0.00    +0.000 NA
BRANCH  18  20
ATOM     20  C   UNL     1      51.315   3.045  17.758  0.00  0.00    +0.000 A 
ATOM     21  C   UNL     1      51.320   1.670  17.454  0.00  0.00    +0.000 A 
ATOM     22  C   UNL     1      52.511   0.942  17.359  0.00  0.00    +0.000 A 
ATOM     23  C   UNL     1      53.731   1.582  17.561  0.00  0.00    +0.000 A 
ATOM     24  C   UNL     1      53.751   2.942  17.849  0.00  0.00    +0.000 A 
ATOM     25 CL   UNL     1      55.257   3.739  18.100  0.00  0.00    +0.000 Cl
ATOM     26  C   UNL     1      52.565   3.671  17.942  0.00  0.00    +0.000 A 
ENDBRANCH  18  20
ENDBRANCH   1  14
TORSDOF 4
ENDMDL
MODEL 9
REMARK VINA RESULT:    -7.076      5.090      8.437
REMARK INTER + INTRA:          -9.302
REMARK INTER:                  -8.593
REMARK INTRA:                  -0.708
REMARK UNBOUND:                -0.571
REMARK  Name = 
REMARK  4 active torsions:
REMARK  status: ('A' for Active; 'I' for Inactive)
REMARK    1  A    between atoms: C_2  and  C_5
REMARK    2  A    between atoms: N_10  and  C_11
REMARK    3  A    between atoms: C_11  and  C_12
REMARK    4  A    between atoms: C_16  and  C_17
REMARK                            x       y       z     vdW  Elec       q    Type
REMARK                         _______ _______ _______ _____ _____    ______ ____
ROOT
ATOM      1  C   UNL     1      46.593   6.987  12.095  0.00  0.00    +0.000 C 
ENDROOT
BRANCH   1   7
ATOM      2  C   UNL     1      44.500   3.539  10.383  0.00  0.00    +0.000 A 
ATOM      3  C   UNL     1      43.591   2.895  11.219  0.00  0.00    +0.000 A 
ATOM      4  C   UNL     1      43.418   3.400  12.493  0.00  0.00    +0.000 A 
ATOM      5  N   UNL     1      44.066   4.488  12.966  0.00  0.00    +0.000 NA
ATOM      6  C   UNL     1      44.929   5.128  12.154  0.00  0.00    +0.000 A 
ATOM      7  N   UNL     1      45.449   6.293  12.650  0.00  0.00    +0.000 N 
ATOM      8  C   UNL     1      45.173   4.667  10.869  0.00  0.00    +0.000 A 
ATOM      9  H   UNL     1      45.298   6.385  13.649  0.00  0.00    +0.000 HD
BRANCH   2  11
ATOM     10  F   UNL     1      46.083   2.910   8.696  0.00  0.00    +0.000 F 
ATOM     11  C   UNL     1      44.764   3.083   8.977  0.00  0.00    +0.000 C 
ATOM     12  F   UNL     1      44.292   3.962   8.051  0.00  0.00    +0.000 F 
ATOM     13  F   UNL     1      44.162   1.893   8.698  0.00  0.00    +0.000 F 
ENDBRANCH   2  11
ENDBRANCH   1   7
BRANCH   1  14
ATOM     14  C   UNL     1      47.685   7.107  13.137  0.00  0.00    +0.000 A 
ATOM     15  C   UNL     1      48.668   8.083  12.994  0.00  0.00    +0.000 A 
ATOM     16  C   UNL     1      49.667   8.167  13.953  0.00  0.00    +0.000 A 
ATOM     17  C   UNL     1      49.647   7.291  15.033  0.00  0.00    +0.000 A 
ATOM     18  C   UNL     1      48.624   6.345  15.134  0.00  0.00    +0.000 A 
ATOM     19  N   UNL     1      47.648   6.256  14.194  0.00  0.00    +0.000 NA
BRANCH  18  20
ATOM     20  C   UNL     1      48.511   5.403  16.265  0.00  0.00    +0.000 A 
ATOM     21  C   UNL     1      47.547   4.377  16.249  0.00  0.00    +0.000 A 
ATOM     22  C   UNL     1      47.402   3.488  17.320  0.00  0.00    +0.000 A 
ATOM     23  C   UNL     1      48.229   3.605  18.433  0.00  0.00    +0.000 A 
ATOM     24  C   UNL     1      49.197   4.602  18.465  0.00  0.00    +0.000 A 
ATOM     25 CL   UNL     1      50.224   4.752  19.839  0.00  0.00    +0.000 Cl
ATOM     26  C   UNL     1      49.346   5.488  17.397  0.00  0.00    +0.000 A 
ENDBRANCH  18  20
ENDBRANCH   1  14
TORSDOF 4
ENDMDL
