MODEL 1
REMARK VINA RESULT:    -8.737      0.000      0.000
REMARK INTER + INTRA:         -12.018
REMARK INTER:                 -11.291
REMARK INTRA:                  -0.727
REMARK UNBOUND:                -0.727
REMARK  Name = 
REMARK  5 active torsions:
REMARK  status: ('A' for Active; 'I' for Inactive)
REMARK    1  A    between atoms: C_2  and  C_4
REMARK    2  A    between atoms: C_7  and  O_8
REMARK    3  A    between atoms: O_8  and  C_9
REMARK    4  A    between atoms: C_9  and  C_10
REMARK    5  A    between atoms: C_15  and  N_16
REMARK                            x       y       z     vdW  Elec       q    Type
REMARK                         _______ _______ _______ _____ _____    ______ ____
ROOT
ATOM      1  C   UNL     1      43.848   5.061  11.165  0.00  0.00    +0.000 C 
ATOM      2  C   UNL     1      43.719   3.960  12.195  0.00  0.00    +0.000 C 
ATOM      3  C   UNL     1      42.586   4.917  11.993  0.00  0.00    +0.000 C 
ENDROOT
BRANCH   1   4
ATOM      4  C   UNL     1      44.810   6.228  11.405  0.00  0.00    +0.000 A 
ATOM      5  C   UNL     1      44.396   7.571  11.358  0.00  0.00    +0.000 A 
ATOM      6  C   UNL     1      45.219   8.603  11.811  0.00  0.00    +0.000 A 
ATOM      7  C   UNL     1      46.469   8.308  12.347  0.00  0.00    +0.000 A 
ATOM      8  F   UNL     1      47.207   9.326  12.821  0.00  0.00    +0.000 F 
ATOM      9  C   UNL     1      46.952   6.993  12.396  0.00  0.00    +0.000 A 
ATOM     10  C   UNL     1      46.116   5.983  11.876  0.00  0.00    +0.000 A 
BRANCH   9  11
ATOM     11  N   UNL     1      48.150   6.619  12.988  0.00  0.00    +0.000 N 
ATOM     12  C   UNL     1      48.239   6.314  14.422  0.00  0.00    +0.000 C 
ATOM     13  C   UNL     1      49.132   7.320  15.177  0.00  0.00    +0.000 C 
ATOM     14  N   UNL     1      50.452   7.531  14.541  0.00  0.00    +0.000 NA
ATOM     15  C   UNL     1      50.226   7.975  13.150  0.00  0.00    +0.000 C 
ATOM     16  C   UNL     1      49.407   6.970  12.310  0.00  0.00    +0.000 C 
ATOM     17  H   UNL     1      50.929   6.628  14.509  0.00  0.00    +0.000 HD
ENDBRANCH   9  11
ENDBRANCH   1   4
BRANCH   1  18
ATOM     18  O   UNL     1      43.590   4.687   9.776  0.00  0.00    +0.000 OA
BRANCH  18  22
ATOM     19  C   UNL     1      46.424   2.518   7.786  0.00  0.00    +0.000 A 
ATOM     20  C   UNL     1      45.600   1.873   8.711  0.00  0.00    +0.000 A 
ATOM     21  C   UNL     1      44.680   2.626   9.432  0.00  0.00    +0.000 A 
ATOM     22  C   UNL     1      44.627   3.991   9.191  0.00  0.00    +0.000 A 
ATOM     23  N   UNL     1      45.474   4.657   8.376  0.00  0.00    +0.000 NA
ATOM     24  C   UNL     1      46.359   3.903   7.688  0.00  0.00    +0.000 A 
BRANCH  19  26
ATOM     25  N   UNL     1      48.412   2.458   6.418  0.00  0.00    +0.000 N 
ATOM     26  C   UNL     1      47.307   1.783   6.865  0.00  0.00    +0.000 C 
ATOM     27  O   UNL     1      47.111   0.611   6.574  0.00  0.00    +0.000 OA
ATOM     28  H   UNL     1      49.106   1.902   5.935  0.00  0.00    +0.000 HD
ATOM     29  H   UNL     1      48.731   3.306   6.867  0.00  0.00    +0.000 HD
ENDBRANCH  19  26
ENDBRANCH  18  22
ENDBRANCH   1  18
TORSDOF 5
ENDMDL
MODEL 2
REMARK VINA RESULT:    -8.026      1.439      2.132
REMARK INTER + INTRA:         -11.099
REMARK INTER:                 -10.720
REMARK INTRA:                  -0.379
REMARK UNBOUND:                -0.727
REMARK  Name = 
REMARK  5 active torsions:
REMARK  status: ('A' for Active; 'I' for Inactive)
REMARK    1  A    between atoms: C_2  and  C_4
REMARK    2  A    between atoms: C_7  and  O_8
REMARK    3  A    between atoms: O_8  and  C_9
REMARK    4  A    between atoms: C_9  and  C_10
REMARK    5  A    between atoms: C_15  and  N_16
REMARK                            x       y       z     vdW  Elec       q    Type
REMARK                         _______ _______ _______ _____ _____    ______ ____
ROOT
ATOM      1  C   UNL     1      44.103   4.575  11.371  0.00  0.00    +0.000 C 
ATOM      2  C   UNL     1      43.455   3.250  11.709  0.00  0.00    +0.000 C 
ATOM      3  C   UNL     1      42.668   4.515  11.854  0.00  0.00    +0.000 C 
ENDROOT
BRANCH   1   4
ATOM      4  C   UNL     1      45.207   5.141  12.269  0.00  0.00    +0.000 A 
ATOM      5  C   UNL     1      45.743   4.421  13.352  0.00  0.00    +0.000 A 
ATOM      6  C   UNL     1      46.901   4.844  14.006  0.00  0.00    +0.000 A 
ATOM      7  C   UNL     1      47.566   5.987  13.569  0.00  0.00    +0.000 A 
ATOM      8  F   UNL     1      48.706   6.329  14.191  0.00  0.00    +0.000 F 
ATOM      9  C   UNL     1      47.068   6.764  12.513  0.00  0.00    +0.000 A 
ATOM     10  C   UNL     1      45.864   6.337  11.916  0.00  0.00    +0.000 A 
BRANCH   9  11
ATOM     11  N   UNL     1      47.718   7.865  11.976  0.00  0.00    +0.000 N 
ATOM     12  C   UNL     1      49.052   7.752  11.371  0.00  0.00    +0.000 C 
ATOM     13  C   UNL     1      50.117   8.543  12.159  0.00  0.00    +0.000 C 
ATOM     14  N   UNL     1      49.722   9.941  12.448  0.00  0.00    +0.000 NA
ATOM     15  C   UNL     1      48.441   9.912  13.184  0.00  0.00    +0.000 C 
ATOM     16  C   UNL     1      47.304   9.206  12.413  0.00  0.00    +0.000 C 
ATOM     17  H   UNL     1      49.560  10.408  11.553  0.00  0.00    +0.000 HD
ENDBRANCH   9  11
ENDBRANCH   1   4
BRANCH   1  18
ATOM     18  O   UNL     1      44.149   4.935   9.955  0.00  0.00    +0.000 OA
BRANCH  18  22
ATOM     19  C   UNL     1      46.576   2.686   7.558  0.00  0.00    +0.000 A 
ATOM     20  C   UNL     1      45.772   2.046   8.503  0.00  0.00    +0.000 A 
ATOM     21  C   UNL     1      44.995   2.817   9.359  0.00  0.00    +0.000 A 
ATOM     22  C   UNL     1      45.058   4.197   9.227  0.00  0.00    +0.000 A 
ATOM     23  N   UNL     1      45.897   4.847   8.391  0.00  0.00    +0.000 NA
ATOM     24  C   UNL     1      46.641   4.075   7.570  0.00  0.00    +0.000 A 
BRANCH  19  26
ATOM     25  N   UNL     1      48.024   2.712   5.627  0.00  0.00    +0.000 N 
ATOM     26  C   UNL     1      47.301   1.952   6.507  0.00  0.00    +0.000 C 
ATOM     27  O   UNL     1      47.323   0.730   6.466  0.00  0.00    +0.000 OA
ATOM     28  H   UNL     1      48.660   2.208   5.022  0.00  0.00    +0.000 HD
ATOM     29  H   UNL     1      48.242   3.681   5.820  0.00  0.00    +0.000 HD
ENDBRANCH  19  26
ENDBRANCH  18  22
ENDBRANCH   1  18
TORSDOF 5
ENDMDL
MODEL 3
REMARK VINA RESULT:    -6.728      4.170      6.358
REMARK INTER + INTRA:          -9.422
REMARK INTER:                  -8.491
REMARK INTRA:                  -0.932
REMARK UNBOUND:                -0.727
REMARK  Name = 
REMARK  5 active torsions:
REMARK  status: ('A' for Active; 'I' for Inactive)
REMARK    1  A    between atoms: C_2  and  C_4
REMARK    2  A    between atoms: C_7  and  O_8
REMARK    3  A    between atoms: O_8  and  C_9
REMARK    4  A    between atoms: C_9  and  C_10
REMARK    5  A    between atoms: C_15  and  N_16
REMARK                            x       y       z     vdW  Elec       q    Type
REMARK                         _______ _______ _______ _____ _____    ______ ____
ROOT
ATOM      1  C   UNL     1      49.342   7.559  13.506  0.00  0.00    +0.000 C 
ATOM      2  C   UNL     1      49.236   8.775  12.611  0.00  0.00    +0.000 C 
ATOM      3  C   UNL     1      50.566   8.120  12.810  0.00  0.00    +0.000 C 
ENDROOT
BRANCH   1   4
ATOM      4  C   UNL     1      49.170   7.703  15.021  0.00  0.00    +0.000 A 
ATOM      5  C   UNL     1      48.588   8.840  15.611  0.00  0.00    +0.000 A 
ATOM      6  C   UNL     1      48.221   8.854  16.957  0.00  0.00    +0.000 A 
ATOM      7  C   UNL     1      48.405   7.717  17.738  0.00  0.00    +0.000 A 
ATOM      8  F   UNL     1      47.989   7.756  19.015  0.00  0.00    +0.000 F 
ATOM      9  C   UNL     1      49.005   6.562  17.217  0.00  0.00    +0.000 A 
ATOM     10  C   UNL     1      49.416   6.605  15.869  0.00  0.00    +0.000 A 
BRANCH   9  11
ATOM     11  N   UNL     1      49.146   5.370  17.913  0.00  0.00    +0.000 N 
ATOM     12  C   UNL     1      50.449   4.928  18.428  0.00  0.00    +0.000 C 
ATOM     13  C   UNL     1      50.934   3.630  17.747  0.00  0.00    +0.000 C 
ATOM     14  N   UNL     1      49.915   2.556  17.732  0.00  0.00    +0.000 NA
ATOM     15  C   UNL     1      48.707   3.078  17.061  0.00  0.00    +0.000 C 
ATOM     16  C   UNL     1      48.119   4.332  17.744  0.00  0.00    +0.000 C 
ATOM     17  H   UNL     1      49.670   2.346  18.702  0.00  0.00    +0.000 HD
ENDBRANCH   9  11
ENDBRANCH   1   4
BRANCH   1  18
ATOM     18  O   UNL     1      48.960   6.279  12.912  0.00  0.00    +0.000 OA
BRANCH  18  22
ATOM     19  C   UNL     1      45.043   5.159  13.219  0.00  0.00    +0.000 A 
ATOM     20  C   UNL     1      45.351   6.423  12.711  0.00  0.00    +0.000 A 
ATOM     21  C   UNL     1      46.681   6.826  12.667  0.00  0.00    +0.000 A 
ATOM     22  C   UNL     1      47.643   5.940  13.133  0.00  0.00    +0.000 A 
ATOM     23  N   UNL     1      47.369   4.753  13.717  0.00  0.00    +0.000 NA
ATOM     24  C   UNL     1      46.070   4.386  13.748  0.00  0.00    +0.000 A 
BRANCH  19  26
ATOM     25  N   UNL     1      42.666   5.476  12.946  0.00  0.00    +0.000 N 
ATOM     26  C   UNL     1      43.687   4.588  13.151  0.00  0.00    +0.000 C 
ATOM     27  O   UNL     1      43.488   3.382  13.198  0.00  0.00    +0.000 OA
ATOM     28  H   UNL     1      41.765   5.073  12.721  0.00  0.00    +0.000 HD
ATOM     29  H   UNL     1      42.842   6.419  12.624  0.00  0.00    +0.000 HD
ENDBRANCH  19  26
ENDBRANCH  18  22
ENDBRANCH   1  18
TORSDOF 5
ENDMDL
MODEL 4
REMARK VINA RESULT:    -6.451      3.386      7.548
REMARK INTER + INTRA:          -9.064
REMARK INTER:                  -9.527
REMARK INTRA:                   0.463
REMARK UNBOUND:                -0.727
REMARK  Name = 
REMARK  5 active torsions:
REMARK  status: ('A' for Active; 'I' for Inactive)
REMARK    1  A    between atoms: C_2  and  C_4
REMARK    2  A    between atoms: C_7  and  O_8
REMARK    3  A    between atoms: O_8  and  C_9
REMARK    4  A    between atoms: C_9  and  C_10
REMARK    5  A    between atoms: C_15  and  N_16
REMARK                            x       y       z     vdW  Elec       q    Type
REMARK                         _______ _______ _______ _____ _____    ______ ____
ROOT
ATOM      1  C   UNL     1      46.472   6.749  12.496  0.00  0.00    +0.000 C 
ATOM      2  C   UNL     1      46.213   8.016  11.710  0.00  0.00    +0.000 C 
ATOM      3  C   UNL     1      45.945   7.994  13.182  0.00  0.00    +0.000 C 
ENDROOT
BRANCH   1   4
ATOM      4  C   UNL     1      45.573   5.526  12.298  0.00  0.00    +0.000 A 
ATOM      5  C   UNL     1      44.574   5.166  13.220  0.00  0.00    +0.000 A 
ATOM      6  C   UNL     1      43.613   4.201  12.913  0.00  0.00    +0.000 A 
ATOM      7  C   UNL     1      43.616   3.594  11.660  0.00  0.00    +0.000 A 
ATOM      8  F   UNL     1      42.641   2.711  11.386  0.00  0.00    +0.000 F 
ATOM      9  C   UNL     1      44.601   3.888  10.707  0.00  0.00    +0.000 A 
ATOM     10  C   UNL     1      45.590   4.825  11.075  0.00  0.00    +0.000 A 
BRANCH   9  11
ATOM     11  N   UNL     1      44.618   3.383   9.416  0.00  0.00    +0.000 N 
ATOM     12  C   UNL     1      44.729   1.941   9.154  0.00  0.00    +0.000 C 
ATOM     13  C   UNL     1      46.043   1.580   8.430  0.00  0.00    +0.000 C 
ATOM     14  N   UNL     1      46.307   2.414   7.235  0.00  0.00    +0.000 NA
ATOM     15  C   UNL     1      46.314   3.830   7.656  0.00  0.00    +0.000 C 
ATOM     16  C   UNL     1      44.993   4.282   8.315  0.00  0.00    +0.000 C 
ATOM     17  H   UNL     1      45.528   2.283   6.587  0.00  0.00    +0.000 HD
ENDBRANCH   9  11
ENDBRANCH   1   4
BRANCH   1  18
ATOM     18  O   UNL     1      47.857   6.500  12.889  0.00  0.00    +0.000 OA
BRANCH  18  22
ATOM     19  C   UNL     1      47.955   5.247  16.777  0.00  0.00    +0.000 A 
ATOM     20  C   UNL     1      48.597   6.437  16.430  0.00  0.00    +0.000 A 
ATOM     21  C   UNL     1      48.616   6.828  15.095  0.00  0.00    +0.000 A 
ATOM     22  C   UNL     1      47.987   6.007  14.170  0.00  0.00    +0.000 A 
ATOM     23  N   UNL     1      47.443   4.805  14.460  0.00  0.00    +0.000 NA
ATOM     24  C   UNL     1      47.438   4.449  15.763  0.00  0.00    +0.000 A 
BRANCH  19  26
ATOM     25  N   UNL     1      46.714   5.457  18.836  0.00  0.00    +0.000 N 
ATOM     26  C   UNL     1      47.743   4.840  18.176  0.00  0.00    +0.000 C 
ATOM     27  O   UNL     1      48.395   3.947  18.699  0.00  0.00    +0.000 OA
ATOM     28  H   UNL     1      46.454   5.056  19.728  0.00  0.00    +0.000 HD
ATOM     29  H   UNL     1      46.002   5.975  18.339  0.00  0.00    +0.000 HD
ENDBRANCH  19  26
ENDBRANCH  18  22
ENDBRANCH   1  18
TORSDOF 5
ENDMDL
MODEL 5
REMARK VINA RESULT:    -6.369      3.724      7.801
REMARK INTER + INTRA:          -8.958
REMARK INTER:                  -7.926
REMARK INTRA:                  -1.032
REMARK UNBOUND:                -0.727
REMARK  Name = 
REMARK  5 active torsions:
REMARK  status: ('A' for Active; 'I' for Inactive)
REMARK    1  A    between atoms: C_2  and  C_4
REMARK    2  A    between atoms: C_7  and  O_8
REMARK    3  A    between atoms: O_8  and  C_9
REMARK    4  A    between atoms: C_9  and  C_10
REMARK    5  A    between atoms: C_15  and  N_16
REMARK                            x       y       z     vdW  Elec       q    Type
REMARK                         _______ _______ _______ _____ _____    ______ ____
ROOT
ATOM      1  C   UNL     1      49.119   8.219  12.869  0.00  0.00    +0.000 C 
ATOM      2  C   UNL     1      50.114   7.398  12.077  0.00  0.00    +0.000 C 
ATOM      3  C   UNL     1      49.847   8.816  11.680  0.00  0.00    +0.000 C 
ENDROOT
BRANCH   1   4
ATOM      4  C   UNL     1      47.624   7.899  12.790  0.00  0.00    +0.000 A 
ATOM      5  C   UNL     1      46.635   8.898  12.840  0.00  0.00    +0.000 A 
ATOM      6  C   UNL     1      45.303   8.620  12.528  0.00  0.00    +0.000 A 
ATOM      7  C   UNL     1      44.937   7.336  12.131  0.00  0.00    +0.000 A 
ATOM      8  F   UNL     1      43.656   7.125  11.788  0.00  0.00    +0.000 F 
ATOM      9  C   UNL     1      45.870   6.291  12.088  0.00  0.00    +0.000 A 
ATOM     10  C   UNL     1      47.194   6.597  12.467  0.00  0.00    +0.000 A 
BRANCH   9  11
ATOM     11  N   UNL     1      45.593   5.012  11.627  0.00  0.00    +0.000 N 
ATOM     12  C   UNL     1      45.225   4.760  10.228  0.00  0.00    +0.000 C 
ATOM     13  C   UNL     1      43.782   4.230  10.092  0.00  0.00    +0.000 C 
ATOM     14  N   UNL     1      43.485   3.090  10.989  0.00  0.00    +0.000 NA
ATOM     15  C   UNL     1      43.757   3.516  12.378  0.00  0.00    +0.000 C 
ATOM     16  C   UNL     1      45.212   3.981  12.604  0.00  0.00    +0.000 C 
ATOM     17  H   UNL     1      44.136   2.336  10.759  0.00  0.00    +0.000 HD
ENDBRANCH   9  11
ENDBRANCH   1   4
BRANCH   1  18
ATOM     18  O   UNL     1      49.608   8.809  14.113  0.00  0.00    +0.000 OA
BRANCH  18  22
ATOM     19  C   UNL     1      48.593   6.439  17.283  0.00  0.00    +0.000 A 
ATOM     20  C   UNL     1      48.321   7.808  17.342  0.00  0.00    +0.000 A 
ATOM     21  C   UNL     1      48.724   8.621  16.289  0.00  0.00    +0.000 A 
ATOM     22  C   UNL     1      49.382   8.023  15.223  0.00  0.00    +0.000 A 
ATOM     23  N   UNL     1      49.744   6.723  15.181  0.00  0.00    +0.000 NA
ATOM     24  C   UNL     1      49.341   5.955  16.216  0.00  0.00    +0.000 A 
BRANCH  19  26
ATOM     25  N   UNL     1      46.711   5.529  18.488  0.00  0.00    +0.000 N 
ATOM     26  C   UNL     1      48.061   5.482  18.268  0.00  0.00    +0.000 C 
ATOM     27  O   UNL     1      48.769   4.640  18.803  0.00  0.00    +0.000 OA
ATOM     28  H   UNL     1      46.321   4.763  19.022  0.00  0.00    +0.000 HD
ATOM     29  H   UNL     1      46.088   6.013  17.855  0.00  0.00    +0.000 HD
ENDBRANCH  19  26
ENDBRANCH  18  22
ENDBRANCH   1  18
TORSDOF 5
ENDMDL
MODEL 6
REMARK VINA RESULT:    -6.093      5.071      8.366
REMARK INTER + INTRA:          -8.602
REMARK INTER:                  -8.825
REMARK INTRA:                   0.223
REMARK UNBOUND:                -0.727
REMARK  Name = 
REMARK  5 active torsions:
REMARK  status: ('A' for Active; 'I' for Inactive)
REMARK    1  A    between atoms: C_2  and  C_4
REMARK    2  A    between atoms: C_7  and  O_8
REMARK    3  A    between atoms: O_8  and  C_9
REMARK    4  A    between atoms: C_9  and  C_10
REMARK    5  A    between atoms: C_15  and  N_16
REMARK                            x       y       z     vdW  Elec       q    Type
REMARK                         _______ _______ _______ _____ _____    ______ ____
ROOT
ATOM      1  C   UNL     1      47.848   3.783  16.449  0.00  0.00    +0.000 C 
ATOM      2  C   UNL     1      47.815   4.189  17.906  0.00  0.00    +0.000 C 
ATOM      3  C   UNL     1      46.776   3.250  17.380  0.00  0.00    +0.000 C 
ENDROOT
BRANCH   1   4
ATOM      4  C   UNL     1      47.501   4.801  15.360  0.00  0.00    +0.000 A 
ATOM      5  C   UNL     1      48.218   5.999  15.189  0.00  0.00    +0.000 A 
ATOM      6  C   UNL     1      48.048   6.794  14.055  0.00  0.00    +0.000 A 
ATOM      7  C   UNL     1      47.172   6.391  13.051  0.00  0.00    +0.000 A 
ATOM      8  F   UNL     1      47.078   7.158  11.952  0.00  0.00    +0.000 F 
ATOM      9  C   UNL     1      46.407   5.223  13.173  0.00  0.00    +0.000 A 
ATOM     10  C   UNL     1      46.563   4.476  14.359  0.00  0.00    +0.000 A 
BRANCH   9  11
ATOM     11  N   UNL     1      45.577   4.721  12.181  0.00  0.00    +0.000 N 
ATOM     12  C   UNL     1      44.659   5.590  11.432  0.00  0.00    +0.000 C 
ATOM     13  C   UNL     1      43.180   5.239  11.697  0.00  0.00    +0.000 C 
ATOM     14  N   UNL     1      42.879   3.797  11.542  0.00  0.00    +0.000 NA
ATOM     15  C   UNL     1      43.766   3.042  12.451  0.00  0.00    +0.000 C 
ATOM     16  C   UNL     1      45.268   3.284  12.185  0.00  0.00    +0.000 C 
ATOM     17  H   UNL     1      43.113   3.532  10.583  0.00  0.00    +0.000 HD
ENDBRANCH   9  11
ENDBRANCH   1   4
BRANCH   1  18
ATOM     18  O   UNL     1      48.785   2.720  16.092  0.00  0.00    +0.000 OA
BRANCH  18  22
ATOM     19  C   UNL     1      52.417   2.718  17.965  0.00  0.00    +0.000 A 
ATOM     20  C   UNL     1      51.767   1.502  17.739  0.00  0.00    +0.000 A 
ATOM     21  C   UNL     1      50.504   1.511  17.159  0.00  0.00    +0.000 A 
ATOM     22  C   UNL     1      49.950   2.740  16.829  0.00  0.00    +0.000 A 
ATOM     23  N   UNL     1      50.510   3.934  17.123  0.00  0.00    +0.000 NA
ATOM     24  C   UNL     1      51.736   3.897  17.687  0.00  0.00    +0.000 A 
BRANCH  19  26
ATOM     25  N   UNL     1      54.105   2.158  19.596  0.00  0.00    +0.000 N 
ATOM     26  C   UNL     1      53.815   2.796  18.420  0.00  0.00    +0.000 C 
ATOM     27  O   UNL     1      54.686   3.332  17.750  0.00  0.00    +0.000 OA
ATOM     28  H   UNL     1      55.088   2.057  19.816  0.00  0.00    +0.000 HD
ATOM     29  H   UNL     1      53.470   1.483  20.002  0.00  0.00    +0.000 HD
ENDBRANCH  19  26
ENDBRANCH  18  22
ENDBRANCH   1  18
TORSDOF 5
ENDMDL
MODEL 7
REMARK VINA RESULT:    -6.022      4.074      6.309
REMARK INTER + INTRA:          -8.510
REMARK INTER:                  -7.986
REMARK INTRA:                  -0.524
REMARK UNBOUND:                -0.727
REMARK  Name = 
REMARK  5 active torsions:
REMARK  status: ('A' for Active; 'I' for Inactive)
REMARK    1  A    between atoms: C_2  and  C_4
REMARK    2  A    between atoms: C_7  and  O_8
REMARK    3  A    between atoms: O_8  and  C_9
REMARK    4  A    between atoms: C_9  and  C_10
REMARK    5  A    between atoms: C_15  and  N_16
REMARK                            x       y       z     vdW  Elec       q    Type
REMARK                         _______ _______ _______ _____ _____    ______ ____
ROOT
ATOM      1  C   UNL     1      48.580   7.922  13.502  0.00  0.00    +0.000 C 
ATOM      2  C   UNL     1      47.420   8.761  13.993  0.00  0.00    +0.000 C 
ATOM      3  C   UNL     1      48.492   9.398  13.166  0.00  0.00    +0.000 C 
ENDROOT
BRANCH   1   4
ATOM      4  C   UNL     1      49.628   7.407  14.492  0.00  0.00    +0.000 A 
ATOM      5  C   UNL     1      50.914   7.968  14.591  0.00  0.00    +0.000 A 
ATOM      6  C   UNL     1      51.767   7.653  15.650  0.00  0.00    +0.000 A 
ATOM      7  C   UNL     1      51.338   6.787  16.652  0.00  0.00    +0.000 A 
ATOM      8  F   UNL     1      52.169   6.553  17.680  0.00  0.00    +0.000 F 
ATOM      9  C   UNL     1      50.078   6.173  16.597  0.00  0.00    +0.000 A 
ATOM     10  C   UNL     1      49.268   6.470  15.482  0.00  0.00    +0.000 A 
BRANCH   9  11
ATOM     11  N   UNL     1      49.556   5.365  17.597  0.00  0.00    +0.000 N 
ATOM     12  C   UNL     1      50.005   3.978  17.780  0.00  0.00    +0.000 C 
ATOM     13  C   UNL     1      48.877   2.961  17.510  0.00  0.00    +0.000 C 
ATOM     14  N   UNL     1      47.619   3.269  18.229  0.00  0.00    +0.000 NA
ATOM     15  C   UNL     1      47.196   4.632  17.849  0.00  0.00    +0.000 C 
ATOM     16  C   UNL     1      48.249   5.715  18.171  0.00  0.00    +0.000 C 
ATOM     17  H   UNL     1      47.827   3.272  19.229  0.00  0.00    +0.000 HD
ENDBRANCH   9  11
ENDBRANCH   1   4
BRANCH   1  18
ATOM     18  O   UNL     1      48.339   7.113  12.309  0.00  0.00    +0.000 OA
BRANCH  18  22
ATOM     19  C   UNL     1      44.507   5.700  12.453  0.00  0.00    +0.000 A 
ATOM     20  C   UNL     1      45.490   5.083  13.231  0.00  0.00    +0.000 A 
ATOM     21  C   UNL     1      46.804   5.525  13.132  0.00  0.00    +0.000 A 
ATOM     22  C   UNL     1      47.073   6.569  12.258  0.00  0.00    +0.000 A 
ATOM     23  N   UNL     1      46.165   7.120  11.423  0.00  0.00    +0.000 NA
ATOM     24  C   UNL     1      44.896   6.672  11.539  0.00  0.00    +0.000 A 
BRANCH  19  26
ATOM     25  N   UNL     1      42.224   6.072  11.767  0.00  0.00    +0.000 N 
ATOM     26  C   UNL     1      43.072   5.410  12.613  0.00  0.00    +0.000 C 
ATOM     27  O   UNL     1      42.664   4.570  13.403  0.00  0.00    +0.000 OA
ATOM     28  H   UNL     1      41.266   5.745  11.753  0.00  0.00    +0.000 HD
ATOM     29  H   UNL     1      42.563   6.540  10.937  0.00  0.00    +0.000 HD
ENDBRANCH  19  26
ENDBRANCH  18  22
ENDBRANCH   1  18
TORSDOF 5
ENDMDL
MODEL 8
REMARK VINA RESULT:    -6.021      3.700      6.203
REMARK INTER + INTRA:          -8.509
REMARK INTER:                  -8.061
REMARK INTRA:                  -0.448
REMARK UNBOUND:                -0.727
REMARK  Name = 
REMARK  5 active torsions:
REMARK  status: ('A' for Active; 'I' for Inactive)
REMARK    1  A    between atoms: C_2  and  C_4
REMARK    2  A    between atoms: C_7  and  O_8
REMARK    3  A    between atoms: O_8  and  C_9
REMARK    4  A    between atoms: C_9  and  C_10
REMARK    5  A    between atoms: C_15  and  N_16
REMARK                            x       y       z     vdW  Elec       q    Type
REMARK                         _______ _______ _______ _____ _____    ______ ____
ROOT
ATOM      1  C   UNL     1      48.491   7.580  13.687  0.00  0.00    +0.000 C 
ATOM      2  C   UNL     1      47.403   8.602  13.933  0.00  0.00    +0.000 C 
ATOM      3  C   UNL     1      48.681   9.029  13.284  0.00  0.00    +0.000 C 
ENDROOT
BRANCH   1   4
ATOM      4  C   UNL     1      49.270   6.988  14.865  0.00  0.00    +0.000 A 
ATOM      5  C   UNL     1      50.617   7.304  15.116  0.00  0.00    +0.000 A 
ATOM      6  C   UNL     1      51.237   6.952  16.315  0.00  0.00    +0.000 A 
ATOM      7  C   UNL     1      50.510   6.296  17.305  0.00  0.00    +0.000 A 
ATOM      8  F   UNL     1      51.129   6.023  18.465  0.00  0.00    +0.000 F 
ATOM      9  C   UNL     1      49.172   5.927  17.106  0.00  0.00    +0.000 A 
ATOM     10  C   UNL     1      48.597   6.249  15.859  0.00  0.00    +0.000 A 
BRANCH   9  11
ATOM     11  N   UNL     1      48.367   5.345  18.074  0.00  0.00    +0.000 N 
ATOM     12  C   UNL     1      48.069   6.028  19.340  0.00  0.00    +0.000 C 
ATOM     13  C   UNL     1      48.655   5.281  20.556  0.00  0.00    +0.000 C 
ATOM     14  N   UNL     1      48.326   3.837  20.578  0.00  0.00    +0.000 NA
ATOM     15  C   UNL     1      48.805   3.238  19.316  0.00  0.00    +0.000 C 
ATOM     16  C   UNL     1      48.190   3.886  18.055  0.00  0.00    +0.000 C 
ATOM     17  H   UNL     1      47.307   3.752  20.599  0.00  0.00    +0.000 HD
ENDBRANCH   9  11
ENDBRANCH   1   4
BRANCH   1  18
ATOM     18  O   UNL     1      48.337   6.738  12.502  0.00  0.00    +0.000 OA
BRANCH  18  22
ATOM     19  C   UNL     1      44.884   4.597  12.070  0.00  0.00    +0.000 A 
ATOM     20  C   UNL     1      45.163   5.626  11.168  0.00  0.00    +0.000 A 
ATOM     21  C   UNL     1      46.307   6.394  11.356  0.00  0.00    +0.000 A 
ATOM     22  C   UNL     1      47.121   6.092  12.438  0.00  0.00    +0.000 A 
ATOM     23  N   UNL     1      46.828   5.168  13.380  0.00  0.00    +0.000 NA
ATOM     24  C   UNL     1      45.712   4.437  13.175  0.00  0.00    +0.000 A 
BRANCH  19  26
ATOM     25  N   UNL     1      43.923   2.421  12.482  0.00  0.00    +0.000 N 
ATOM     26  C   UNL     1      43.791   3.633  11.858  0.00  0.00    +0.000 C 
ATOM     27  O   UNL     1      42.785   3.921  11.225  0.00  0.00    +0.000 OA
ATOM     28  H   UNL     1      43.101   1.832  12.486  0.00  0.00    +0.000 HD
ATOM     29  H   UNL     1      44.596   2.280  13.224  0.00  0.00    +0.000 HD
ENDBRANCH  19  26
ENDBRANCH  18  22
ENDBRANCH   1  18
TORSDOF 5
ENDMDL
MODEL 9
REMARK VINA RESULT:    -5.893      4.667      8.011
REMARK INTER + INTRA:          -8.343
REMARK INTER:                  -8.163
REMARK INTRA:                  -0.180
REMARK UNBOUND:                -0.727
REMARK  Name = 
REMARK  5 active torsions:
REMARK  status: ('A' for Active; 'I' for Inactive)
REMARK    1  A    between atoms: C_2  and  C_4
REMARK    2  A    between atoms: C_7  and  O_8
REMARK    3  A    between atoms: O_8  and  C_9
REMARK    4  A    between atoms: C_9  and  C_10
REMARK    5  A    between atoms: C_15  and  N_16
REMARK                            x       y       z     vdW  Elec       q    Type
REMARK                         _______ _______ _______ _____ _____    ______ ____
ROOT
ATOM      1  C   UNL     1      48.836   6.597  17.114  0.00  0.00    +0.000 C 
ATOM      2  C   UNL     1      49.760   7.272  18.105  0.00  0.00    +0.000 C 
ATOM      3  C   UNL     1      48.298   7.594  18.122  0.00  0.00    +0.000 C 
ENDROOT
BRANCH   1   4
ATOM      4  C   UNL     1      48.913   6.954  15.627  0.00  0.00    +0.000 A 
ATOM      5  C   UNL     1      50.033   7.586  15.058  0.00  0.00    +0.000 A 
ATOM      6  C   UNL     1      50.189   7.686  13.675  0.00  0.00    +0.000 A 
ATOM      7  C   UNL     1      49.235   7.129  12.828  0.00  0.00    +0.000 A 
ATOM      8  F   UNL     1      49.450   7.201  11.504  0.00  0.00    +0.000 F 
ATOM      9  C   UNL     1      48.082   6.511  13.332  0.00  0.00    +0.000 A 
ATOM     10  C   UNL     1      47.931   6.481  14.734  0.00  0.00    +0.000 A 
BRANCH   9  11
ATOM     11  N   UNL     1      47.133   5.867  12.551  0.00  0.00    +0.000 N 
ATOM     12  C   UNL     1      46.480   6.540  11.420  0.00  0.00    +0.000 C 
ATOM     13  C   UNL     1      44.965   6.724  11.649  0.00  0.00    +0.000 C 
ATOM     14  N   UNL     1      44.276   5.482  12.068  0.00  0.00    +0.000 NA
ATOM     15  C   UNL     1      44.933   4.984  13.294  0.00  0.00    +0.000 C 
ATOM     16  C   UNL     1      46.439   4.698  13.111  0.00  0.00    +0.000 C 
ATOM     17  H   UNL     1      44.415   4.787  11.332  0.00  0.00    +0.000 HD
ENDBRANCH   9  11
ENDBRANCH   1   4
BRANCH   1  18
ATOM     18  O   UNL     1      48.396   5.245  17.451  0.00  0.00    +0.000 OA
BRANCH  18  22
ATOM     19  C   UNL     1      51.306   2.377  17.430  0.00  0.00    +0.000 A 
ATOM     20  C   UNL     1      51.655   3.698  17.720  0.00  0.00    +0.000 A 
ATOM     21  C   UNL     1      50.674   4.681  17.664  0.00  0.00    +0.000 A 
ATOM     22  C   UNL     1      49.386   4.294  17.322  0.00  0.00    +0.000 A 
ATOM     23  N   UNL     1      49.039   3.045  16.943  0.00  0.00    +0.000 NA
ATOM     24  C   UNL     1      50.010   2.108  17.005  0.00  0.00    +0.000 A 
BRANCH  19  26
ATOM     25  N   UNL     1      51.694   0.098  18.125  0.00  0.00    +0.000 N 
ATOM     26  C   UNL     1      52.236   1.251  17.623  0.00  0.00    +0.000 C 
ATOM     27  O   UNL     1      53.409   1.312  17.283  0.00  0.00    +0.000 OA
ATOM     28  H   UNL     1      52.285  -0.723  18.090  0.00  0.00    +0.000 HD
ATOM     29  H   UNL     1      50.694  -0.054  18.138  0.00  0.00    +0.000 HD
ENDBRANCH  19  26
ENDBRANCH  18  22
ENDBRANCH   1  18
TORSDOF 5
ENDMDL
