MODEL 1
REMARK VINA RESULT:    -7.283      0.000      0.000
REMARK INTER + INTRA:         -10.784
REMARK INTER:                 -10.263
REMARK INTRA:                  -0.522
REMARK UNBOUND:                -0.522
REMARK  Name = 
REMARK  8 active torsions:
REMARK  status: ('A' for Active; 'I' for Inactive)
REMARK    1  A    between atoms: C_1  and  O_2
REMARK    2  A    between atoms: O_2  and  C_3
REMARK    3  A    between atoms: C_3  and  C_5
REMARK    4  A    between atoms: C_5  and  O_6
REMARK    5  A    between atoms: O_6  and  C_7
REMARK    6  A    between atoms: C_10  and  C_11
REMARK    7  A    between atoms: C_11  and  O_12
REMARK    8  A    between atoms: O_12  and  C_13
REMARK                            x       y       z     vdW  Elec       q    Type
REMARK                         _______ _______ _______ _____ _____    ______ ____
ROOT
ATOM      1  C   UNL     1      46.897   4.621  13.402  0.00  0.00    +0.000 A 
ATOM      2  C   UNL     1      46.709   5.747  12.606  0.00  0.00    +0.000 A 
ATOM      3  C   UNL     1      45.710   5.735  11.627  0.00  0.00    +0.000 A 
ATOM      4  C   UNL     1      44.923   4.589  11.475  0.00  0.00    +0.000 A 
ATOM      5  N   UNL     1      45.114   3.478  12.226  0.00  0.00    +0.000 NA
ATOM      6  C   UNL     1      46.098   3.515  13.149  0.00  0.00    +0.000 A 
ENDROOT
BRANCH   1   7
ATOM      7  O   UNL     1      47.854   4.695  14.371  0.00  0.00    +0.000 OA
BRANCH   7   8
ATOM      8  C   UNL     1      47.351   4.876  15.697  0.00  0.00    +0.000 C 
BRANCH   8   9
ATOM      9  C   UNL     1      47.462   3.582  16.485  0.00  0.00    +0.000 C 
ATOM     10  O   UNL     1      46.612   3.122  17.234  0.00  0.00    +0.000 OA
BRANCH   9  12
ATOM     11  C   UNL     1      49.450   2.752  17.381  0.00  0.00    +0.000 C 
ATOM     12  O   UNL     1      48.663   2.989  16.213  0.00  0.00    +0.000 OA
ENDBRANCH   9  12
ENDBRANCH   8   9
ENDBRANCH   7   8
ENDBRANCH   1   7
BRANCH   4  13
ATOM     13  C   UNL     1      43.819   4.531  10.448  0.00  0.00    +0.000 C 
BRANCH  13  14
ATOM     14  O   UNL     1      43.846   3.257   9.804  0.00  0.00    +0.000 OA
BRANCH  14  15
ATOM     15  C   UNL     1      44.845   3.046   8.895  0.00  0.00    +0.000 A 
ATOM     16  C   UNL     1      45.398   4.004   8.040  0.00  0.00    +0.000 A 
ATOM     17  C   UNL     1      46.447   3.658   7.184  0.00  0.00    +0.000 A 
ATOM     18  C   UNL     1      46.945   2.357   7.170  0.00  0.00    +0.000 A 
ATOM     19  C   UNL     1      46.385   1.394   8.007  0.00  0.00    +0.000 A 
ATOM     20  C   UNL     1      45.337   1.739   8.861  0.00  0.00    +0.000 A 
ENDBRANCH  14  15
ENDBRANCH  13  14
ENDBRANCH   4  13
TORSDOF 7
ENDMDL
MODEL 2
REMARK VINA RESULT:    -7.138      0.927      1.465
REMARK INTER + INTRA:         -10.581
REMARK INTER:                  -9.972
REMARK INTRA:                  -0.609
REMARK UNBOUND:                -0.522
REMARK  Name = 
REMARK  8 active torsions:
REMARK  status: ('A' for Active; 'I' for Inactive)
REMARK    1  A    between atoms: C_1  and  O_2
REMARK    2  A    between atoms: O_2  and  C_3
REMARK    3  A    between atoms: C_3  and  C_5
REMARK    4  A    between atoms: C_5  and  O_6
REMARK    5  A    between atoms: O_6  and  C_7
REMARK    6  A    between atoms: C_10  and  C_11
REMARK    7  A    between atoms: C_11  and  O_12
REMARK    8  A    between atoms: O_12  and  C_13
REMARK                            x       y       z     vdW  Elec       q    Type
REMARK                         _______ _______ _______ _____ _____    ______ ____
ROOT
ATOM      1  C   UNL     1      46.758   4.722  13.513  0.00  0.00    +0.000 A 
ATOM      2  C   UNL     1      46.185   3.481  13.250  0.00  0.00    +0.000 A 
ATOM      3  C   UNL     1      45.310   3.347  12.167  0.00  0.00    +0.000 A 
ATOM      4  C   UNL     1      45.033   4.465  11.375  0.00  0.00    +0.000 A 
ATOM      5  N   UNL     1      45.564   5.683  11.637  0.00  0.00    +0.000 NA
ATOM      6  C   UNL     1      46.390   5.785  12.700  0.00  0.00    +0.000 A 
ENDROOT
BRANCH   1   7
ATOM      7  O   UNL     1      47.638   4.795  14.553  0.00  0.00    +0.000 OA
BRANCH   7   8
ATOM      8  C   UNL     1      47.133   4.307  15.799  0.00  0.00    +0.000 C 
BRANCH   8   9
ATOM      9  C   UNL     1      48.091   3.289  16.393  0.00  0.00    +0.000 C 
ATOM     10  O   UNL     1      48.655   2.391  15.783  0.00  0.00    +0.000 OA
BRANCH   9  12
ATOM     11  C   UNL     1      47.617   4.752  18.148  0.00  0.00    +0.000 C 
ATOM     12  O   UNL     1      48.247   3.541  17.728  0.00  0.00    +0.000 OA
ENDBRANCH   9  12
ENDBRANCH   8   9
ENDBRANCH   7   8
ENDBRANCH   1   7
BRANCH   4  13
ATOM     13  C   UNL     1      44.111   4.370  10.184  0.00  0.00    +0.000 C 
BRANCH  13  14
ATOM     14  O   UNL     1      44.214   3.063   9.618  0.00  0.00    +0.000 OA
BRANCH  14  15
ATOM     15  C   UNL     1      45.189   2.872   8.679  0.00  0.00    +0.000 A 
ATOM     16  C   UNL     1      45.724   3.849   7.836  0.00  0.00    +0.000 A 
ATOM     17  C   UNL     1      46.751   3.520   6.945  0.00  0.00    +0.000 A 
ATOM     18  C   UNL     1      47.243   2.218   6.886  0.00  0.00    +0.000 A 
ATOM     19  C   UNL     1      46.700   1.237   7.712  0.00  0.00    +0.000 A 
ATOM     20  C   UNL     1      45.674   1.564   8.601  0.00  0.00    +0.000 A 
ENDBRANCH  14  15
ENDBRANCH  13  14
ENDBRANCH   4  13
TORSDOF 7
ENDMDL
MODEL 3
REMARK VINA RESULT:    -6.506      2.883      6.770
REMARK INTER + INTRA:          -9.690
REMARK INTER:                  -9.315
REMARK INTRA:                  -0.375
REMARK UNBOUND:                -0.522
REMARK  Name = 
REMARK  8 active torsions:
REMARK  status: ('A' for Active; 'I' for Inactive)
REMARK    1  A    between atoms: C_1  and  O_2
REMARK    2  A    between atoms: O_2  and  C_3
REMARK    3  A    between atoms: C_3  and  C_5
REMARK    4  A    between atoms: C_5  and  O_6
REMARK    5  A    between atoms: O_6  and  C_7
REMARK    6  A    between atoms: C_10  and  C_11
REMARK    7  A    between atoms: C_11  and  O_12
REMARK    8  A    between atoms: O_12  and  C_13
REMARK                            x       y       z     vdW  Elec       q    Type
REMARK                         _______ _______ _______ _____ _____    ______ ____
ROOT
ATOM      1  C   UNL     1      44.643   3.040   8.778  0.00  0.00    +0.000 A 
ATOM      2  C   UNL     1      44.446   4.411   8.922  0.00  0.00    +0.000 A 
ATOM      3  C   UNL     1      43.897   4.903  10.111  0.00  0.00    +0.000 A 
ATOM      4  C   UNL     1      43.560   4.002  11.126  0.00  0.00    +0.000 A 
ATOM      5  N   UNL     1      43.722   2.665  10.987  0.00  0.00    +0.000 NA
ATOM      6  C   UNL     1      44.237   2.220   9.822  0.00  0.00    +0.000 A 
ENDROOT
BRANCH   1   7
ATOM      7  O   UNL     1      45.220   2.611   7.619  0.00  0.00    +0.000 OA
BRANCH   7   8
ATOM      8  C   UNL     1      46.650   2.613   7.626  0.00  0.00    +0.000 C 
BRANCH   8   9
ATOM      9  C   UNL     1      47.180   1.222   7.322  0.00  0.00    +0.000 C 
ATOM     10  O   UNL     1      46.808   0.181   7.845  0.00  0.00    +0.000 OA
BRANCH   9  12
ATOM     11  C   UNL     1      47.868   2.329   5.386  0.00  0.00    +0.000 C 
ATOM     12  O   UNL     1      48.134   1.306   6.347  0.00  0.00    +0.000 OA
ENDBRANCH   9  12
ENDBRANCH   8   9
ENDBRANCH   7   8
ENDBRANCH   1   7
BRANCH   4  13
ATOM     13  C   UNL     1      42.983   4.482  12.436  0.00  0.00    +0.000 C 
BRANCH  13  14
ATOM     14  O   UNL     1      43.552   5.751  12.759  0.00  0.00    +0.000 OA
BRANCH  14  15
ATOM     15  C   UNL     1      44.883   5.769  13.071  0.00  0.00    +0.000 A 
ATOM     16  C   UNL     1      45.598   4.741  13.692  0.00  0.00    +0.000 A 
ATOM     17  C   UNL     1      46.972   4.879  13.916  0.00  0.00    +0.000 A 
ATOM     18  C   UNL     1      47.636   6.041  13.529  0.00  0.00    +0.000 A 
ATOM     19  C   UNL     1      46.924   7.075  12.927  0.00  0.00    +0.000 A 
ATOM     20  C   UNL     1      45.553   6.939  12.703  0.00  0.00    +0.000 A 
ENDBRANCH  14  15
ENDBRANCH  13  14
ENDBRANCH   4  13
TORSDOF 7
ENDMDL
MODEL 4
REMARK VINA RESULT:    -6.482      1.565      7.630
REMARK INTER + INTRA:          -9.656
REMARK INTER:                  -9.171
REMARK INTRA:                  -0.485
REMARK UNBOUND:                -0.522
REMARK  Name = 
REMARK  8 active torsions:
REMARK  status: ('A' for Active; 'I' for Inactive)
REMARK    1  A    between atoms: C_1  and  O_2
REMARK    2  A    between atoms: O_2  and  C_3
REMARK    3  A    between atoms: C_3  and  C_5
REMARK    4  A    between atoms: C_5  and  O_6
REMARK    5  A    between atoms: O_6  and  C_7
REMARK    6  A    between atoms: C_10  and  C_11
REMARK    7  A    between atoms: C_11  and  O_12
REMARK    8  A    between atoms: O_12  and  C_13
REMARK                            x       y       z     vdW  Elec       q    Type
REMARK                         _______ _______ _______ _____ _____    ______ ____
ROOT
ATOM      1  C   UNL     1      44.798   4.052  10.704  0.00  0.00    +0.000 A 
ATOM      2  C   UNL     1      45.361   5.310  10.901  0.00  0.00    +0.000 A 
ATOM      3  C   UNL     1      46.021   5.584  12.103  0.00  0.00    +0.000 A 
ATOM      4  C   UNL     1      46.099   4.585  13.078  0.00  0.00    +0.000 A 
ATOM      5  N   UNL     1      45.533   3.366  12.909  0.00  0.00    +0.000 NA
ATOM      6  C   UNL     1      44.887   3.138  11.746  0.00  0.00    +0.000 A 
ENDROOT
BRANCH   1   7
ATOM      7  O   UNL     1      44.202   3.816   9.500  0.00  0.00    +0.000 OA
BRANCH   7   8
ATOM      8  C   UNL     1      44.703   2.677   8.797  0.00  0.00    +0.000 C 
BRANCH   8   9
ATOM      9  C   UNL     1      45.811   3.091   7.844  0.00  0.00    +0.000 C 
ATOM     10  O   UNL     1      46.023   4.226   7.438  0.00  0.00    +0.000 OA
BRANCH   9  12
ATOM     11  C   UNL     1      47.789   2.328   6.869  0.00  0.00    +0.000 C 
ATOM     12  O   UNL     1      46.561   1.995   7.518  0.00  0.00    +0.000 OA
ENDBRANCH   9  12
ENDBRANCH   8   9
ENDBRANCH   7   8
ENDBRANCH   1   7
BRANCH   4  13
ATOM     13  C   UNL     1      46.817   4.823  14.384  0.00  0.00    +0.000 C 
BRANCH  13  14
ATOM     14  O   UNL     1      46.807   3.618  15.149  0.00  0.00    +0.000 OA
BRANCH  14  15
ATOM     15  C   UNL     1      47.567   3.601  16.285  0.00  0.00    +0.000 A 
ATOM     16  C   UNL     1      48.605   2.710  16.570  0.00  0.00    +0.000 A 
ATOM     17  C   UNL     1      49.328   2.833  17.760  0.00  0.00    +0.000 A 
ATOM     18  C   UNL     1      49.016   3.838  18.673  0.00  0.00    +0.000 A 
ATOM     19  C   UNL     1      47.970   4.717  18.403  0.00  0.00    +0.000 A 
ATOM     20  C   UNL     1      47.248   4.594  17.215  0.00  0.00    +0.000 A 
ENDBRANCH  14  15
ENDBRANCH  13  14
ENDBRANCH   4  13
TORSDOF 7
ENDMDL
MODEL 5
REMARK VINA RESULT:    -6.461      1.823      2.426
REMARK INTER + INTRA:          -9.627
REMARK INTER:                  -9.092
REMARK INTRA:                  -0.535
REMARK UNBOUND:                -0.522
REMARK  Name = 
REMARK  8 active torsions:
REMARK  status: ('A' for Active; 'I' for Inactive)
REMARK    1  A    between atoms: C_1  and  O_2
REMARK    2  A    between atoms: O_2  and  C_3
REMARK    3  A    between atoms: C_3  and  C_5
REMARK    4  A    between atoms: C_5  and  O_6
REMARK    5  A    between atoms: O_6  and  C_7
REMARK    6  A    between atoms: C_10  and  C_11
REMARK    7  A    between atoms: C_11  and  O_12
REMARK    8  A    between atoms: O_12  and  C_13
REMARK                            x       y       z     vdW  Elec       q    Type
REMARK                         _______ _______ _______ _____ _____    ______ ____
ROOT
ATOM      1  C   UNL     1      46.349   6.287  12.743  0.00  0.00    +0.000 A 
ATOM      2  C   UNL     1      46.494   6.579  11.390  0.00  0.00    +0.000 A 
ATOM      3  C   UNL     1      45.805   5.812  10.446  0.00  0.00    +0.000 A 
ATOM      4  C   UNL     1      44.985   4.768  10.887  0.00  0.00    +0.000 A 
ATOM      5  N   UNL     1      44.857   4.457  12.199  0.00  0.00    +0.000 NA
ATOM      6  C   UNL     1      45.549   5.205  13.085  0.00  0.00    +0.000 A 
ENDROOT
BRANCH   1   7
ATOM      7  O   UNL     1      47.007   7.089  13.629  0.00  0.00    +0.000 OA
BRANCH   7   8
ATOM      8  C   UNL     1      48.416   7.191  13.411  0.00  0.00    +0.000 C 
BRANCH   8   9
ATOM      9  C   UNL     1      49.166   7.034  14.723  0.00  0.00    +0.000 C 
ATOM     10  O   UNL     1      49.991   7.815  15.177  0.00  0.00    +0.000 OA
BRANCH   9  12
ATOM     11  C   UNL     1      48.822   5.959  16.765  0.00  0.00    +0.000 C 
ATOM     12  O   UNL     1      48.761   5.883  15.339  0.00  0.00    +0.000 OA
ENDBRANCH   9  12
ENDBRANCH   8   9
ENDBRANCH   7   8
ENDBRANCH   1   7
BRANCH   4  13
ATOM     13  C   UNL     1      44.204   3.922   9.911  0.00  0.00    +0.000 C 
BRANCH  13  14
ATOM     14  O   UNL     1      44.669   4.188   8.588  0.00  0.00    +0.000 OA
BRANCH  14  15
ATOM     15  C   UNL     1      45.566   3.302   8.059  0.00  0.00    +0.000 A 
ATOM     16  C   UNL     1      46.569   3.599   7.132  0.00  0.00    +0.000 A 
ATOM     17  C   UNL     1      47.447   2.599   6.704  0.00  0.00    +0.000 A 
ATOM     18  C   UNL     1      47.326   1.299   7.192  0.00  0.00    +0.000 A 
ATOM     19  C   UNL     1      46.317   0.995   8.102  0.00  0.00    +0.000 A 
ATOM     20  C   UNL     1      45.440   1.993   8.529  0.00  0.00    +0.000 A 
ENDBRANCH  14  15
ENDBRANCH  13  14
ENDBRANCH   4  13
TORSDOF 7
ENDMDL
MODEL 6
REMARK VINA RESULT:    -6.427      2.587      3.439
REMARK INTER + INTRA:          -9.579
REMARK INTER:                  -9.066
REMARK INTRA:                  -0.513
REMARK UNBOUND:                -0.522
REMARK  Name = 
REMARK  8 active torsions:
REMARK  status: ('A' for Active; 'I' for Inactive)
REMARK    1  A    between atoms: C_1  and  O_2
REMARK    2  A    between atoms: O_2  and  C_3
REMARK    3  A    between atoms: C_3  and  C_5
REMARK    4  A    between atoms: C_5  and  O_6
REMARK    5  A    between atoms: O_6  and  C_7
REMARK    6  A    between atoms: C_10  and  C_11
REMARK    7  A    between atoms: C_11  and  O_12
REMARK    8  A    between atoms: O_12  and  C_13
REMARK                            x       y       z     vdW  Elec       q    Type
REMARK                         _______ _______ _______ _____ _____    ______ ____
ROOT
ATOM      1  C   UNL     1      45.886   5.932  12.625  0.00  0.00    +0.000 A 
ATOM      2  C   UNL     1      45.352   4.703  13.000  0.00  0.00    +0.000 A 
ATOM      3  C   UNL     1      44.821   3.860  12.019  0.00  0.00    +0.000 A 
ATOM      4  C   UNL     1      44.843   4.274  10.683  0.00  0.00    +0.000 A 
ATOM      5  N   UNL     1      45.337   5.478  10.310  0.00  0.00    +0.000 NA
ATOM      6  C   UNL     1      45.825   6.278  11.282  0.00  0.00    +0.000 A 
ENDROOT
BRANCH   1   7
ATOM      7  O   UNL     1      46.430   6.703  13.611  0.00  0.00    +0.000 OA
BRANCH   7   8
ATOM      8  C   UNL     1      47.447   7.607  13.172  0.00  0.00    +0.000 C 
BRANCH   8   9
ATOM      9  C   UNL     1      48.821   6.984  13.354  0.00  0.00    +0.000 C 
ATOM     10  O   UNL     1      49.248   6.474  14.381  0.00  0.00    +0.000 OA
BRANCH   9  12
ATOM     11  C   UNL     1      49.659   8.397  11.698  0.00  0.00    +0.000 C 
ATOM     12  O   UNL     1      49.512   7.060  12.177  0.00  0.00    +0.000 OA
ENDBRANCH   9  12
ENDBRANCH   8   9
ENDBRANCH   7   8
ENDBRANCH   1   7
BRANCH   4  13
ATOM     13  C   UNL     1      44.302   3.393   9.584  0.00  0.00    +0.000 C 
BRANCH  13  14
ATOM     14  O   UNL     1      45.161   2.264   9.425  0.00  0.00    +0.000 OA
BRANCH  14  15
ATOM     15  C   UNL     1      45.939   2.233   8.301  0.00  0.00    +0.000 A 
ATOM     16  C   UNL     1      46.708   1.152   7.860  0.00  0.00    +0.000 A 
ATOM     17  C   UNL     1      47.427   1.246   6.664  0.00  0.00    +0.000 A 
ATOM     18  C   UNL     1      47.389   2.415   5.908  0.00  0.00    +0.000 A 
ATOM     19  C   UNL     1      46.639   3.501   6.352  0.00  0.00    +0.000 A 
ATOM     20  C   UNL     1      45.921   3.408   7.546  0.00  0.00    +0.000 A 
ENDBRANCH  14  15
ENDBRANCH  13  14
ENDBRANCH   4  13
TORSDOF 7
ENDMDL
MODEL 7
REMARK VINA RESULT:    -6.025      1.342      1.954
REMARK INTER + INTRA:          -9.013
REMARK INTER:                  -8.489
REMARK INTRA:                  -0.524
REMARK UNBOUND:                -0.522
REMARK  Name = 
REMARK  8 active torsions:
REMARK  status: ('A' for Active; 'I' for Inactive)
REMARK    1  A    between atoms: C_1  and  O_2
REMARK    2  A    between atoms: O_2  and  C_3
REMARK    3  A    between atoms: C_3  and  C_5
REMARK    4  A    between atoms: C_5  and  O_6
REMARK    5  A    between atoms: O_6  and  C_7
REMARK    6  A    between atoms: C_10  and  C_11
REMARK    7  A    between atoms: C_11  and  O_12
REMARK    8  A    between atoms: O_12  and  C_13
REMARK                            x       y       z     vdW  Elec       q    Type
REMARK                         _______ _______ _______ _____ _____    ______ ____
ROOT
ATOM      1  C   UNL     1      47.655   5.397  14.616  0.00  0.00    +0.000 A 
ATOM      2  C   UNL     1      47.948   6.462  13.768  0.00  0.00    +0.000 A 
ATOM      3  C   UNL     1      47.148   6.682  12.643  0.00  0.00    +0.000 A 
ATOM      4  C   UNL     1      46.071   5.826  12.398  0.00  0.00    +0.000 A 
ATOM      5  N   UNL     1      45.791   4.771  13.200  0.00  0.00    +0.000 NA
ATOM      6  C   UNL     1      46.593   4.574  14.268  0.00  0.00    +0.000 A 
ENDROOT
BRANCH   1   7
ATOM      7  O   UNL     1      48.437   5.247  15.723  0.00  0.00    +0.000 OA
BRANCH   7   8
ATOM      8  C   UNL     1      47.752   4.752  16.877  0.00  0.00    +0.000 C 
BRANCH   8   9
ATOM      9  C   UNL     1      48.663   3.838  17.679  0.00  0.00    +0.000 C 
ATOM     10  O   UNL     1      48.439   3.406  18.801  0.00  0.00    +0.000 OA
BRANCH   9  12
ATOM     11  C   UNL     1      50.164   2.177  17.022  0.00  0.00    +0.000 C 
ATOM     12  O   UNL     1      49.777   3.550  16.942  0.00  0.00    +0.000 OA
ENDBRANCH   9  12
ENDBRANCH   8   9
ENDBRANCH   7   8
ENDBRANCH   1   7
BRANCH   4  13
ATOM     13  C   UNL     1      45.165   6.031  11.208  0.00  0.00    +0.000 C 
BRANCH  13  14
ATOM     14  O   UNL     1      44.437   4.828  10.963  0.00  0.00    +0.000 OA
BRANCH  14  15
ATOM     15  C   UNL     1      44.899   4.019   9.963  0.00  0.00    +0.000 A 
ATOM     16  C   UNL     1      44.834   2.623   9.935  0.00  0.00    +0.000 A 
ATOM     17  C   UNL     1      45.313   1.921   8.825  0.00  0.00    +0.000 A 
ATOM     18  C   UNL     1      45.863   2.604   7.742  0.00  0.00    +0.000 A 
ATOM     19  C   UNL     1      45.946   3.994   7.773  0.00  0.00    +0.000 A 
ATOM     20  C   UNL     1      45.469   4.696   8.882  0.00  0.00    +0.000 A 
ENDBRANCH  14  15
ENDBRANCH  13  14
ENDBRANCH   4  13
TORSDOF 7
ENDMDL
MODEL 8
REMARK VINA RESULT:    -5.718      2.793      7.048
REMARK INTER + INTRA:          -8.579
REMARK INTER:                  -7.873
REMARK INTRA:                  -0.706
REMARK UNBOUND:                -0.522
REMARK  Name = 
REMARK  8 active torsions:
REMARK  status: ('A' for Active; 'I' for Inactive)
REMARK    1  A    between atoms: C_1  and  O_2
REMARK    2  A    between atoms: O_2  and  C_3
REMARK    3  A    between atoms: C_3  and  C_5
REMARK    4  A    between atoms: C_5  and  O_6
REMARK    5  A    between atoms: O_6  and  C_7
REMARK    6  A    between atoms: C_10  and  C_11
REMARK    7  A    between atoms: C_11  and  O_12
REMARK    8  A    between atoms: O_12  and  C_13
REMARK                            x       y       z     vdW  Elec       q    Type
REMARK                         _______ _______ _______ _____ _____    ______ ____
ROOT
ATOM      1  C   UNL     1      44.914   4.263  10.732  0.00  0.00    +0.000 A 
ATOM      2  C   UNL     1      45.440   5.520  10.451  0.00  0.00    +0.000 A 
ATOM      3  C   UNL     1      46.228   6.163  11.411  0.00  0.00    +0.000 A 
ATOM      4  C   UNL     1      46.469   5.524  12.631  0.00  0.00    +0.000 A 
ATOM      5  N   UNL     1      45.941   4.312  12.926  0.00  0.00    +0.000 NA
ATOM      6  C   UNL     1      45.169   3.725  11.987  0.00  0.00    +0.000 A 
ENDROOT
BRANCH   1   7
ATOM      7  O   UNL     1      44.187   3.656   9.750  0.00  0.00    +0.000 OA
BRANCH   7   8
ATOM      8  C   UNL     1      44.487   2.273   9.552  0.00  0.00    +0.000 C 
BRANCH   8   9
ATOM      9  C   UNL     1      45.531   2.111   8.460  0.00  0.00    +0.000 C 
ATOM     10  O   UNL     1      46.321   1.182   8.353  0.00  0.00    +0.000 OA
BRANCH   9  12
ATOM     11  C   UNL     1      46.717   3.687   7.214  0.00  0.00    +0.000 C 
ATOM     12  O   UNL     1      45.443   3.162   7.591  0.00  0.00    +0.000 OA
ENDBRANCH   9  12
ENDBRANCH   8   9
ENDBRANCH   7   8
ENDBRANCH   1   7
BRANCH   4  13
ATOM     13  C   UNL     1      47.328   6.165  13.693  0.00  0.00    +0.000 C 
BRANCH  13  14
ATOM     14  O   UNL     1      48.696   6.094  13.292  0.00  0.00    +0.000 OA
BRANCH  14  15
ATOM     15  C   UNL     1      49.351   7.280  13.113  0.00  0.00    +0.000 A 
ATOM     16  C   UNL     1      49.708   8.184  14.118  0.00  0.00    +0.000 A 
ATOM     17  C   UNL     1      50.414   9.347  13.795  0.00  0.00    +0.000 A 
ATOM     18  C   UNL     1      50.761   9.618  12.474  0.00  0.00    +0.000 A 
ATOM     19  C   UNL     1      50.391   8.729  11.467  0.00  0.00    +0.000 A 
ATOM     20  C   UNL     1      49.686   7.568  11.788  0.00  0.00    +0.000 A 
ENDBRANCH  14  15
ENDBRANCH  13  14
ENDBRANCH   4  13
TORSDOF 7
ENDMDL
MODEL 9
REMARK VINA RESULT:    -5.709      1.967      7.939
REMARK INTER + INTRA:          -8.568
REMARK INTER:                  -8.005
REMARK INTRA:                  -0.563
REMARK UNBOUND:                -0.522
REMARK  Name = 
REMARK  8 active torsions:
REMARK  status: ('A' for Active; 'I' for Inactive)
REMARK    1  A    between atoms: C_1  and  O_2
REMARK    2  A    between atoms: O_2  and  C_3
REMARK    3  A    between atoms: C_3  and  C_5
REMARK    4  A    between atoms: C_5  and  O_6
REMARK    5  A    between atoms: O_6  and  C_7
REMARK    6  A    between atoms: C_10  and  C_11
REMARK    7  A    between atoms: C_11  and  O_12
REMARK    8  A    between atoms: O_12  and  C_13
REMARK                            x       y       z     vdW  Elec       q    Type
REMARK                         _______ _______ _______ _____ _____    ______ ____
ROOT
ATOM      1  C   UNL     1      45.516   5.155  11.526  0.00  0.00    +0.000 A 
ATOM      2  C   UNL     1      46.292   6.110  12.175  0.00  0.00    +0.000 A 
ATOM      3  C   UNL     1      46.839   5.813  13.427  0.00  0.00    +0.000 A 
ATOM      4  C   UNL     1      46.591   4.560  13.996  0.00  0.00    +0.000 A 
ATOM      5  N   UNL     1      45.816   3.632  13.386  0.00  0.00    +0.000 NA
ATOM      6  C   UNL     1      45.287   3.955  12.187  0.00  0.00    +0.000 A 
ENDROOT
BRANCH   1   7
ATOM      7  O   UNL     1      45.039   5.474  10.288  0.00  0.00    +0.000 OA
BRANCH   7   8
ATOM      8  C   UNL     1      44.552   4.363   9.531  0.00  0.00    +0.000 C 
BRANCH   8   9
ATOM      9  C   UNL     1      45.505   4.043   8.392  0.00  0.00    +0.000 C 
ATOM     10  O   UNL     1      46.328   4.808   7.907  0.00  0.00    +0.000 OA
BRANCH   9  12
ATOM     11  C   UNL     1      44.796   1.915   9.034  0.00  0.00    +0.000 C 
ATOM     12  O   UNL     1      45.320   2.747   7.998  0.00  0.00    +0.000 OA
ENDBRANCH   9  12
ENDBRANCH   8   9
ENDBRANCH   7   8
ENDBRANCH   1   7
BRANCH   4  13
ATOM     13  C   UNL     1      47.174   4.182  15.336  0.00  0.00    +0.000 C 
BRANCH  13  14
ATOM     14  O   UNL     1      48.245   5.073  15.648  0.00  0.00    +0.000 OA
BRANCH  14  15
ATOM     15  C   UNL     1      48.647   5.122  16.953  0.00  0.00    +0.000 A 
ATOM     16  C   UNL     1      49.286   6.196  17.579  0.00  0.00    +0.000 A 
ATOM     17  C   UNL     1      49.608   6.126  18.938  0.00  0.00    +0.000 A 
ATOM     18  C   UNL     1      49.300   4.985  19.676  0.00  0.00    +0.000 A 
ATOM     19  C   UNL     1      48.679   3.906  19.053  0.00  0.00    +0.000 A 
ATOM     20  C   UNL     1      48.359   3.975  17.696  0.00  0.00    +0.000 A 
ENDBRANCH  14  15
ENDBRANCH  13  14
ENDBRANCH   4  13
TORSDOF 7
ENDMDL
