MODEL 1
REMARK VINA RESULT:    -8.568      0.000      0.000
REMARK INTER + INTRA:         -11.672
REMARK INTER:                 -11.072
REMARK INTRA:                  -0.600
REMARK UNBOUND:                -0.600
REMARK  Name = 
REMARK  5 active torsions:
REMARK  status: ('A' for Active; 'I' for Inactive)
REMARK    1  A    between atoms: C_2  and  C_4
REMARK    2  A    between atoms: C_7  and  N_8
REMARK    3  A    between atoms: N_8  and  C_9
REMARK    4  A    between atoms: C_9  and  C_10
REMARK    5  A    between atoms: C_14  and  C_15
REMARK                            x       y       z     vdW  Elec       q    Type
REMARK                         _______ _______ _______ _____ _____    ______ ____
ROOT
ATOM      1  C   UNL     1      43.890   4.549  11.274  0.00  0.00    +0.000 C 
ENDROOT
BRANCH   1   2
ATOM      2  C   UNL     1      44.964   5.423  11.870  0.00  0.00    +0.000 A 
ATOM      3  C   UNL     1      45.317   6.626  11.276  0.00  0.00    +0.000 A 
ATOM      4  N   UNL     1      46.274   7.449  11.753  0.00  0.00    +0.000 NA
ATOM      5  C   UNL     1      46.920   7.050  12.876  0.00  0.00    +0.000 A 
ATOM      6  C   UNL     1      46.680   5.859  13.567  0.00  0.00    +0.000 A 
ATOM      7  C   UNL     1      45.669   5.045  13.025  0.00  0.00    +0.000 A 
BRANCH   6   8
ATOM      8  C   UNL     1      47.440   5.478  14.776  0.00  0.00    +0.000 A 
ATOM      9  C   UNL     1      48.565   6.191  15.209  0.00  0.00    +0.000 A 
ATOM     10  N   UNL     1      49.311   5.892  16.305  0.00  0.00    +0.000 NA
ATOM     11  C   UNL     1      48.930   4.810  17.017  0.00  0.00    +0.000 A 
ATOM     12  C   UNL     1      47.839   4.027  16.687  0.00  0.00    +0.000 A 
ATOM     13 CL   UNL     1      47.416   2.659  17.634  0.00  0.00    +0.000 Cl
ATOM     14  C   UNL     1      47.088   4.368  15.564  0.00  0.00    +0.000 A 
ENDBRANCH   6   8
ENDBRANCH   1   2
BRANCH   1  15
ATOM     15  N   UNL     1      43.820   4.775   9.832  0.00  0.00    +0.000 N 
ATOM     16  H   UNL     1      43.974   5.751   9.598  0.00  0.00    +0.000 HD
BRANCH  15  20
ATOM     17  C   UNL     1      46.372   2.296   7.760  0.00  0.00    +0.000 A 
ATOM     18  C   UNL     1      46.330   3.654   7.487  0.00  0.00    +0.000 A 
ATOM     19  N   UNL     1      45.494   4.508   8.140  0.00  0.00    +0.000 NA
ATOM     20  C   UNL     1      44.687   3.966   9.078  0.00  0.00    +0.000 A 
ATOM     21  C   UNL     1      44.749   2.588   9.339  0.00  0.00    +0.000 A 
ATOM     22  N   UNL     1      45.571   1.718   8.694  0.00  0.00    +0.000 NA
BRANCH  17  24
ATOM     23  N   UNL     1      48.477   2.017   6.595  0.00  0.00    +0.000 N 
ATOM     24  C   UNL     1      47.322   1.418   7.023  0.00  0.00    +0.000 C 
ATOM     25  O   UNL     1      47.090   0.235   6.810  0.00  0.00    +0.000 OA
ATOM     26  H   UNL     1      49.156   1.480   6.076  0.00  0.00    +0.000 HD
ATOM     27  H   UNL     1      48.636   3.002   6.780  0.00  0.00    +0.000 HD
ENDBRANCH  17  24
ENDBRANCH  15  20
ENDBRANCH   1  15
TORSDOF 5
ENDMDL
MODEL 2
REMARK VINA RESULT:    -8.564      2.723      3.671
REMARK INTER + INTRA:         -11.667
REMARK INTER:                 -11.127
REMARK INTRA:                  -0.540
REMARK UNBOUND:                -0.600
REMARK  Name = 
REMARK  5 active torsions:
REMARK  status: ('A' for Active; 'I' for Inactive)
REMARK    1  A    between atoms: C_2  and  C_4
REMARK    2  A    between atoms: C_7  and  N_8
REMARK    3  A    between atoms: N_8  and  C_9
REMARK    4  A    between atoms: C_9  and  C_10
REMARK    5  A    between atoms: C_14  and  C_15
REMARK                            x       y       z     vdW  Elec       q    Type
REMARK                         _______ _______ _______ _____ _____    ______ ____
ROOT
ATOM      1  C   UNL     1      43.450   4.584  11.002  0.00  0.00    +0.000 C 
ENDROOT
BRANCH   1   2
ATOM      2  C   UNL     1      44.647   4.899  11.863  0.00  0.00    +0.000 A 
ATOM      3  C   UNL     1      44.990   4.085  12.933  0.00  0.00    +0.000 A 
ATOM      4  N   UNL     1      46.042   4.315  13.746  0.00  0.00    +0.000 NA
ATOM      5  C   UNL     1      46.787   5.417  13.487  0.00  0.00    +0.000 A 
ATOM      6  C   UNL     1      46.547   6.331  12.457  0.00  0.00    +0.000 A 
ATOM      7  C   UNL     1      45.441   6.035  11.640  0.00  0.00    +0.000 A 
BRANCH   6   8
ATOM      8  C   UNL     1      47.392   7.525  12.245  0.00  0.00    +0.000 A 
ATOM      9  C   UNL     1      46.904   8.827  12.412  0.00  0.00    +0.000 A 
ATOM     10  N   UNL     1      47.622   9.966  12.228  0.00  0.00    +0.000 NA
ATOM     11  C   UNL     1      48.907   9.812  11.840  0.00  0.00    +0.000 A 
ATOM     12  C   UNL     1      49.500   8.579  11.641  0.00  0.00    +0.000 A 
ATOM     13 CL   UNL     1      51.137   8.458  11.141  0.00  0.00    +0.000 Cl
ATOM     14  C   UNL     1      48.738   7.430  11.851  0.00  0.00    +0.000 A 
ENDBRANCH   6   8
ENDBRANCH   1   2
BRANCH   1  15
ATOM     15  N   UNL     1      43.753   4.899   9.608  0.00  0.00    +0.000 N 
ATOM     16  H   UNL     1      44.143   5.832   9.510  0.00  0.00    +0.000 HD
BRANCH  15  20
ATOM     17  C   UNL     1      46.212   2.071   7.901  0.00  0.00    +0.000 A 
ATOM     18  C   UNL     1      46.327   3.407   7.555  0.00  0.00    +0.000 A 
ATOM     19  N   UNL     1      45.528   4.374   8.087  0.00  0.00    +0.000 NA
ATOM     20  C   UNL     1      44.597   3.968   8.976  0.00  0.00    +0.000 A 
ATOM     21  C   UNL     1      44.500   2.609   9.313  0.00  0.00    +0.000 A 
ATOM     22  N   UNL     1      45.283   1.628   8.790  0.00  0.00    +0.000 NA
BRANCH  17  24
ATOM     23  N   UNL     1      46.898  -0.238   7.651  0.00  0.00    +0.000 N 
ATOM     24  C   UNL     1      47.128   1.065   7.297  0.00  0.00    +0.000 C 
ATOM     25  O   UNL     1      48.033   1.378   6.534  0.00  0.00    +0.000 OA
ATOM     26  H   UNL     1      47.494  -0.967   7.287  0.00  0.00    +0.000 HD
ATOM     27  H   UNL     1      46.145  -0.464   8.292  0.00  0.00    +0.000 HD
ENDBRANCH  17  24
ENDBRANCH  15  20
ENDBRANCH   1  15
TORSDOF 5
ENDMDL
MODEL 3
REMARK VINA RESULT:    -8.366      2.670      3.374
REMARK INTER + INTRA:         -11.412
REMARK INTER:                 -10.828
REMARK INTRA:                  -0.584
REMARK UNBOUND:                -0.600
REMARK  Name = 
REMARK  5 active torsions:
REMARK  status: ('A' for Active; 'I' for Inactive)
REMARK    1  A    between atoms: C_2  and  C_4
REMARK    2  A    between atoms: C_7  and  N_8
REMARK    3  A    between atoms: N_8  and  C_9
REMARK    4  A    between atoms: C_9  and  C_10
REMARK    5  A    between atoms: C_14  and  C_15
REMARK                            x       y       z     vdW  Elec       q    Type
REMARK                         _______ _______ _______ _____ _____    ______ ____
ROOT
ATOM      1  C   UNL     1      43.647   4.381  11.181  0.00  0.00    +0.000 C 
ENDROOT
BRANCH   1   2
ATOM      2  C   UNL     1      44.883   4.539  12.030  0.00  0.00    +0.000 A 
ATOM      3  C   UNL     1      45.422   3.459  12.715  0.00  0.00    +0.000 A 
ATOM      4  N   UNL     1      46.519   3.536  13.497  0.00  0.00    +0.000 NA
ATOM      5  C   UNL     1      47.105   4.752  13.612  0.00  0.00    +0.000 A 
ATOM      6  C   UNL     1      46.661   5.925  12.995  0.00  0.00    +0.000 A 
ATOM      7  C   UNL     1      45.518   5.782  12.189  0.00  0.00    +0.000 A 
BRANCH   6   8
ATOM      8  C   UNL     1      47.341   7.224  13.182  0.00  0.00    +0.000 A 
ATOM      9  C   UNL     1      48.193   7.475  14.265  0.00  0.00    +0.000 A 
ATOM     10  N   UNL     1      48.842   8.645  14.500  0.00  0.00    +0.000 NA
ATOM     11  C   UNL     1      48.628   9.642  13.614  0.00  0.00    +0.000 A 
ATOM     12  C   UNL     1      47.807   9.515  12.509  0.00  0.00    +0.000 A 
ATOM     13 CL   UNL     1      47.575  10.827  11.427  0.00  0.00    +0.000 Cl
ATOM     14  C   UNL     1      47.166   8.297  12.290  0.00  0.00    +0.000 A 
ENDBRANCH   6   8
ENDBRANCH   1   2
BRANCH   1  15
ATOM     15  N   UNL     1      43.895   4.928   9.850  0.00  0.00    +0.000 N 
ATOM     16  H   UNL     1      44.222   5.889   9.895  0.00  0.00    +0.000 HD
BRANCH  15  20
ATOM     17  C   UNL     1      46.474   2.567   7.676  0.00  0.00    +0.000 A 
ATOM     18  C   UNL     1      46.530   3.948   7.580  0.00  0.00    +0.000 A 
ATOM     19  N   UNL     1      45.690   4.766   8.272  0.00  0.00    +0.000 NA
ATOM     20  C   UNL     1      44.778   4.165   9.066  0.00  0.00    +0.000 A 
ATOM     21  C   UNL     1      44.741   2.765   9.149  0.00  0.00    +0.000 A 
ATOM     22  N   UNL     1      45.566   1.930   8.463  0.00  0.00    +0.000 NA
BRANCH  17  24
ATOM     23  N   UNL     1      48.546   2.374   6.438  0.00  0.00    +0.000 N 
ATOM     24  C   UNL     1      47.434   1.728   6.907  0.00  0.00    +0.000 C 
ATOM     25  O   UNL     1      47.244   0.535   6.704  0.00  0.00    +0.000 OA
ATOM     26  H   UNL     1      49.228   1.864   5.896  0.00  0.00    +0.000 HD
ATOM     27  H   UNL     1      48.670   3.365   6.616  0.00  0.00    +0.000 HD
ENDBRANCH  17  24
ENDBRANCH  15  20
ENDBRANCH   1  15
TORSDOF 5
ENDMDL
MODEL 4
REMARK VINA RESULT:    -7.780      2.578      3.163
REMARK INTER + INTRA:         -10.654
REMARK INTER:                 -10.070
REMARK INTRA:                  -0.584
REMARK UNBOUND:                -0.600
REMARK  Name = 
REMARK  5 active torsions:
REMARK  status: ('A' for Active; 'I' for Inactive)
REMARK    1  A    between atoms: C_2  and  C_4
REMARK    2  A    between atoms: C_7  and  N_8
REMARK    3  A    between atoms: N_8  and  C_9
REMARK    4  A    between atoms: C_9  and  C_10
REMARK    5  A    between atoms: C_14  and  C_15
REMARK                            x       y       z     vdW  Elec       q    Type
REMARK                         _______ _______ _______ _____ _____    ______ ____
ROOT
ATOM      1  C   UNL     1      44.415   3.244  11.565  0.00  0.00    +0.000 C 
ENDROOT
BRANCH   1   2
ATOM      2  C   UNL     1      44.773   4.700  11.725  0.00  0.00    +0.000 A 
ATOM      3  C   UNL     1      43.876   5.699  11.372  0.00  0.00    +0.000 A 
ATOM      4  N   UNL     1      44.137   7.018  11.483  0.00  0.00    +0.000 NA
ATOM      5  C   UNL     1      45.358   7.362  11.960  0.00  0.00    +0.000 A 
ATOM      6  C   UNL     1      46.361   6.466  12.336  0.00  0.00    +0.000 A 
ATOM      7  C   UNL     1      46.029   5.105  12.204  0.00  0.00    +0.000 A 
BRANCH   6   8
ATOM      8  C   UNL     1      47.680   6.915  12.831  0.00  0.00    +0.000 A 
ATOM      9  C   UNL     1      48.204   6.489  14.058  0.00  0.00    +0.000 A 
ATOM     10  N   UNL     1      49.402   6.867  14.575  0.00  0.00    +0.000 NA
ATOM     11  C   UNL     1      50.131   7.734  13.838  0.00  0.00    +0.000 A 
ATOM     12  C   UNL     1      49.717   8.226  12.613  0.00  0.00    +0.000 A 
ATOM     13 CL   UNL     1      50.691   9.332  11.733  0.00  0.00    +0.000 Cl
ATOM     14  C   UNL     1      48.488   7.808  12.106  0.00  0.00    +0.000 A 
ENDBRANCH   6   8
ENDBRANCH   1   2
BRANCH   1  15
ATOM     15  N   UNL     1      43.859   3.021  10.232  0.00  0.00    +0.000 N 
ATOM     16  H   UNL     1      43.236   3.774   9.955  0.00  0.00    +0.000 HD
BRANCH  15  20
ATOM     17  C   UNL     1      46.602   2.535   7.199  0.00  0.00    +0.000 A 
ATOM     18  C   UNL     1      46.322   1.495   8.071  0.00  0.00    +0.000 A 
ATOM     19  N   UNL     1      45.431   1.616   9.094  0.00  0.00    +0.000 NA
ATOM     20  C   UNL     1      44.824   2.815   9.231  0.00  0.00    +0.000 A 
ATOM     21  C   UNL     1      45.122   3.852   8.334  0.00  0.00    +0.000 A 
ATOM     22  N   UNL     1      46.012   3.755   7.311  0.00  0.00    +0.000 NA
BRANCH  17  24
ATOM     23  N   UNL     1      47.500   3.238   5.064  0.00  0.00    +0.000 N 
ATOM     24  C   UNL     1      47.573   2.333   6.089  0.00  0.00    +0.000 C 
ATOM     25  O   UNL     1      48.386   1.418   6.088  0.00  0.00    +0.000 OA
ATOM     26  H   UNL     1      48.122   3.147   4.273  0.00  0.00    +0.000 HD
ATOM     27  H   UNL     1      46.810   3.980   5.089  0.00  0.00    +0.000 HD
ENDBRANCH  17  24
ENDBRANCH  15  20
ENDBRANCH   1  15
TORSDOF 5
ENDMDL
MODEL 5
REMARK VINA RESULT:    -7.635      3.455      7.465
REMARK INTER + INTRA:         -10.467
REMARK INTER:                 -10.272
REMARK INTRA:                  -0.195
REMARK UNBOUND:                -0.600
REMARK  Name = 
REMARK  5 active torsions:
REMARK  status: ('A' for Active; 'I' for Inactive)
REMARK    1  A    between atoms: C_2  and  C_4
REMARK    2  A    between atoms: C_7  and  N_8
REMARK    3  A    between atoms: N_8  and  C_9
REMARK    4  A    between atoms: C_9  and  C_10
REMARK    5  A    between atoms: C_14  and  C_15
REMARK                            x       y       z     vdW  Elec       q    Type
REMARK                         _______ _______ _______ _____ _____    ______ ____
ROOT
ATOM      1  C   UNL     1      45.793   7.075  12.489  0.00  0.00    +0.000 C 
ENDROOT
BRANCH   1   2
ATOM      2  C   UNL     1      45.057   6.085  11.622  0.00  0.00    +0.000 A 
ATOM      3  C   UNL     1      43.719   5.793  11.850  0.00  0.00    +0.000 A 
ATOM      4  N   UNL     1      43.007   4.912  11.117  0.00  0.00    +0.000 NA
ATOM      5  C   UNL     1      43.661   4.282  10.110  0.00  0.00    +0.000 A 
ATOM      6  C   UNL     1      45.007   4.466   9.781  0.00  0.00    +0.000 A 
ATOM      7  C   UNL     1      45.696   5.400  10.576  0.00  0.00    +0.000 A 
BRANCH   6   8
ATOM      8  C   UNL     1      45.660   3.728   8.680  0.00  0.00    +0.000 A 
ATOM      9  C   UNL     1      46.119   4.365   7.520  0.00  0.00    +0.000 A 
ATOM     10  N   UNL     1      46.721   3.747   6.470  0.00  0.00    +0.000 NA
ATOM     11  C   UNL     1      46.871   2.408   6.563  0.00  0.00    +0.000 A 
ATOM     12  C   UNL     1      46.456   1.670   7.656  0.00  0.00    +0.000 A 
ATOM     13 CL   UNL     1      46.672  -0.033   7.704  0.00  0.00    +0.000 Cl
ATOM     14  C   UNL     1      45.853   2.336   8.722  0.00  0.00    +0.000 A 
ENDBRANCH   6   8
ENDBRANCH   1   2
BRANCH   1  15
ATOM     15  N   UNL     1      47.174   6.633  12.672  0.00  0.00    +0.000 N 
ATOM     16  H   UNL     1      47.812   7.421  12.746  0.00  0.00    +0.000 HD
BRANCH  15  20
ATOM     17  C   UNL     1      47.576   4.026  15.834  0.00  0.00    +0.000 A 
ATOM     18  C   UNL     1      48.167   5.278  15.872  0.00  0.00    +0.000 A 
ATOM     19  N   UNL     1      48.069   6.167  14.845  0.00  0.00    +0.000 NA
ATOM     20  C   UNL     1      47.364   5.769  13.765  0.00  0.00    +0.000 A 
ATOM     21  C   UNL     1      46.771   4.496  13.750  0.00  0.00    +0.000 A 
ATOM     22  N   UNL     1      46.862   3.593  14.761  0.00  0.00    +0.000 NA
BRANCH  17  24
ATOM     23  N   UNL     1      48.977   2.700  17.297  0.00  0.00    +0.000 N 
ATOM     24  C   UNL     1      47.705   3.107  16.998  0.00  0.00    +0.000 C 
ATOM     25  O   UNL     1      46.737   2.735  17.650  0.00  0.00    +0.000 OA
ATOM     26  H   UNL     1      49.131   2.064  18.066  0.00  0.00    +0.000 HD
ATOM     27  H   UNL     1      49.757   3.019  16.733  0.00  0.00    +0.000 HD
ENDBRANCH  17  24
ENDBRANCH  15  20
ENDBRANCH   1  15
TORSDOF 5
ENDMDL
MODEL 6
REMARK VINA RESULT:    -7.290      1.784      2.213
REMARK INTER + INTRA:         -10.021
REMARK INTER:                  -9.455
REMARK INTRA:                  -0.566
REMARK UNBOUND:                -0.600
REMARK  Name = 
REMARK  5 active torsions:
REMARK  status: ('A' for Active; 'I' for Inactive)
REMARK    1  A    between atoms: C_2  and  C_4
REMARK    2  A    between atoms: C_7  and  N_8
REMARK    3  A    between atoms: N_8  and  C_9
REMARK    4  A    between atoms: C_9  and  C_10
REMARK    5  A    between atoms: C_14  and  C_15
REMARK                            x       y       z     vdW  Elec       q    Type
REMARK                         _______ _______ _______ _____ _____    ______ ____
ROOT
ATOM      1  C   UNL     1      44.618   4.848  11.506  0.00  0.00    +0.000 C 
ENDROOT
BRANCH   1   2
ATOM      2  C   UNL     1      45.258   6.140  11.947  0.00  0.00    +0.000 A 
ATOM      3  C   UNL     1      44.676   7.364  11.645  0.00  0.00    +0.000 A 
ATOM      4  N   UNL     1      45.202   8.554  12.002  0.00  0.00    +0.000 NA
ATOM      5  C   UNL     1      46.371   8.527  12.687  0.00  0.00    +0.000 A 
ATOM      6  C   UNL     1      47.073   7.372  13.042  0.00  0.00    +0.000 A 
ATOM      7  C   UNL     1      46.474   6.162  12.648  0.00  0.00    +0.000 A 
BRANCH   6   8
ATOM      8  C   UNL     1      48.356   7.419  13.775  0.00  0.00    +0.000 A 
ATOM      9  C   UNL     1      49.472   8.108  13.285  0.00  0.00    +0.000 A 
ATOM     10  N   UNL     1      50.681   8.186  13.903  0.00  0.00    +0.000 NA
ATOM     11  C   UNL     1      50.802   7.530  15.077  0.00  0.00    +0.000 A 
ATOM     12  C   UNL     1      49.771   6.813  15.658  0.00  0.00    +0.000 A 
ATOM     13 CL   UNL     1      49.998   5.996  17.151  0.00  0.00    +0.000 Cl
ATOM     14  C   UNL     1      48.541   6.764  15.005  0.00  0.00    +0.000 A 
ENDBRANCH   6   8
ENDBRANCH   1   2
BRANCH   1  15
ATOM     15  N   UNL     1      44.293   4.923  10.083  0.00  0.00    +0.000 N 
ATOM     16  H   UNL     1      44.337   5.878   9.739  0.00  0.00    +0.000 HD
BRANCH  15  20
ATOM     17  C   UNL     1      46.582   2.605   7.564  0.00  0.00    +0.000 A 
ATOM     18  C   UNL     1      45.797   2.020   8.544  0.00  0.00    +0.000 A 
ATOM     19  N   UNL     1      45.034   2.748   9.405  0.00  0.00    +0.000 NA
ATOM     20  C   UNL     1      45.079   4.091   9.267  0.00  0.00    +0.000 A 
ATOM     21  C   UNL     1      45.879   4.662   8.265  0.00  0.00    +0.000 A 
ATOM     22  N   UNL     1      46.653   3.953   7.400  0.00  0.00    +0.000 NA
BRANCH  17  24
ATOM     23  N   UNL     1      48.354   2.397   5.927  0.00  0.00    +0.000 N 
ATOM     24  C   UNL     1      47.380   1.752   6.642  0.00  0.00    +0.000 C 
ATOM     25  O   UNL     1      47.181   0.549   6.525  0.00  0.00    +0.000 OA
ATOM     26  H   UNL     1      48.920   1.877   5.273  0.00  0.00    +0.000 HD
ATOM     27  H   UNL     1      48.488   3.396   6.040  0.00  0.00    +0.000 HD
ENDBRANCH  17  24
ENDBRANCH  15  20
ENDBRANCH   1  15
TORSDOF 5
ENDMDL
MODEL 7
REMARK VINA RESULT:    -6.792      3.731      7.888
REMARK INTER + INTRA:          -9.378
REMARK INTER:                  -8.909
REMARK INTRA:                  -0.469
REMARK UNBOUND:                -0.600
REMARK  Name = 
REMARK  5 active torsions:
REMARK  status: ('A' for Active; 'I' for Inactive)
REMARK    1  A    between atoms: C_2  and  C_4
REMARK    2  A    between atoms: C_7  and  N_8
REMARK    3  A    between atoms: N_8  and  C_9
REMARK    4  A    between atoms: C_9  and  C_10
REMARK    5  A    between atoms: C_14  and  C_15
REMARK                            x       y       z     vdW  Elec       q    Type
REMARK                         _______ _______ _______ _____ _____    ______ ____
ROOT
ATOM      1  C   UNL     1      48.369   7.574  13.397  0.00  0.00    +0.000 C 
ENDROOT
BRANCH   1   2
ATOM      2  C   UNL     1      47.072   7.457  12.638  0.00  0.00    +0.000 A 
ATOM      3  C   UNL     1      46.116   8.461  12.699  0.00  0.00    +0.000 A 
ATOM      4  N   UNL     1      44.932   8.413  12.052  0.00  0.00    +0.000 NA
ATOM      5  C   UNL     1      44.683   7.304  11.313  0.00  0.00    +0.000 A 
ATOM      6  C   UNL     1      45.545   6.213  11.177  0.00  0.00    +0.000 A 
ATOM      7  C   UNL     1      46.764   6.322  11.869  0.00  0.00    +0.000 A 
BRANCH   6   8
ATOM      8  C   UNL     1      45.197   5.025  10.368  0.00  0.00    +0.000 A 
ATOM      9  C   UNL     1      44.320   4.036  10.830  0.00  0.00    +0.000 A 
ATOM     10  N   UNL     1      43.964   2.918  10.143  0.00  0.00    +0.000 NA
ATOM     11  C   UNL     1      44.518   2.759   8.922  0.00  0.00    +0.000 A 
ATOM     12  C   UNL     1      45.398   3.666   8.361  0.00  0.00    +0.000 A 
ATOM     13 CL   UNL     1      46.071   3.396   6.805  0.00  0.00    +0.000 Cl
ATOM     14  C   UNL     1      45.733   4.808   9.087  0.00  0.00    +0.000 A 
ENDBRANCH   6   8
ENDBRANCH   1   2
BRANCH   1  15
ATOM     15  N   UNL     1      48.090   7.763  14.818  0.00  0.00    +0.000 N 
ATOM     16  H   UNL     1      47.126   8.043  14.976  0.00  0.00    +0.000 HD
BRANCH  15  20
ATOM     17  C   UNL     1      48.834   4.426  17.112  0.00  0.00    +0.000 A 
ATOM     18  C   UNL     1      49.324   5.666  17.490  0.00  0.00    +0.000 A 
ATOM     19  N   UNL     1      49.111   6.793  16.756  0.00  0.00    +0.000 NA
ATOM     20  C   UNL     1      48.395   6.649  15.620  0.00  0.00    +0.000 A 
ATOM     21  C   UNL     1      47.907   5.384  15.259  0.00  0.00    +0.000 A 
ATOM     22  N   UNL     1      48.113   4.246  15.974  0.00  0.00    +0.000 NA
BRANCH  17  24
ATOM     23  N   UNL     1      48.510   3.262  19.210  0.00  0.00    +0.000 N 
ATOM     24  C   UNL     1      49.086   3.235  17.969  0.00  0.00    +0.000 C 
ATOM     25  O   UNL     1      49.766   2.289  17.591  0.00  0.00    +0.000 OA
ATOM     26  H   UNL     1      48.655   2.490  19.845  0.00  0.00    +0.000 HD
ATOM     27  H   UNL     1      47.959   4.064  19.497  0.00  0.00    +0.000 HD
ENDBRANCH  17  24
ENDBRANCH  15  20
ENDBRANCH   1  15
TORSDOF 5
ENDMDL
MODEL 8
REMARK VINA RESULT:    -6.395      3.641      6.132
REMARK INTER + INTRA:          -8.864
REMARK INTER:                  -8.411
REMARK INTRA:                  -0.453
REMARK UNBOUND:                -0.600
REMARK  Name = 
REMARK  5 active torsions:
REMARK  status: ('A' for Active; 'I' for Inactive)
REMARK    1  A    between atoms: C_2  and  C_4
REMARK    2  A    between atoms: C_7  and  N_8
REMARK    3  A    between atoms: N_8  and  C_9
REMARK    4  A    between atoms: C_9  and  C_10
REMARK    5  A    between atoms: C_14  and  C_15
REMARK                            x       y       z     vdW  Elec       q    Type
REMARK                         _______ _______ _______ _____ _____    ______ ____
ROOT
ATOM      1  C   UNL     1      47.045   4.214  16.169  0.00  0.00    +0.000 C 
ENDROOT
BRANCH   1   2
ATOM      2  C   UNL     1      48.230   4.379  17.086  0.00  0.00    +0.000 A 
ATOM      3  C   UNL     1      48.266   5.396  18.029  0.00  0.00    +0.000 A 
ATOM      4  N   UNL     1      49.299   5.604  18.872  0.00  0.00    +0.000 NA
ATOM      5  C   UNL     1      50.356   4.761  18.766  0.00  0.00    +0.000 A 
ATOM      6  C   UNL     1      50.461   3.708  17.853  0.00  0.00    +0.000 A 
ATOM      7  C   UNL     1      49.352   3.538  17.004  0.00  0.00    +0.000 A 
BRANCH   6   8
ATOM      8  C   UNL     1      51.655   2.840  17.779  0.00  0.00    +0.000 A 
ATOM      9  C   UNL     1      51.575   1.486  17.430  0.00  0.00    +0.000 A 
ATOM     10  N   UNL     1      52.630   0.632  17.350  0.00  0.00    +0.000 NA
ATOM     11  C   UNL     1      53.844   1.143  17.647  0.00  0.00    +0.000 A 
ATOM     12  C   UNL     1      54.047   2.463  18.007  0.00  0.00    +0.000 A 
ATOM     13 CL   UNL     1      55.619   3.044  18.378  0.00  0.00    +0.000 Cl
ATOM     14  C   UNL     1      52.946   3.316  18.067  0.00  0.00    +0.000 A 
ENDBRANCH   6   8
ENDBRANCH   1   2
BRANCH   1  15
ATOM     15  N   UNL     1      47.144   5.165  15.064  0.00  0.00    +0.000 N 
ATOM     16  H   UNL     1      48.112   5.360  14.824  0.00  0.00    +0.000 HD
BRANCH  15  20
ATOM     17  C   UNL     1      44.980   4.194  11.698  0.00  0.00    +0.000 A 
ATOM     18  C   UNL     1      45.554   3.203  12.478  0.00  0.00    +0.000 A 
ATOM     19  N   UNL     1      46.286   3.480  13.593  0.00  0.00    +0.000 NA
ATOM     20  C   UNL     1      46.439   4.784  13.909  0.00  0.00    +0.000 A 
ATOM     21  C   UNL     1      45.846   5.770  13.105  0.00  0.00    +0.000 A 
ATOM     22  N   UNL     1      45.117   5.516  11.986  0.00  0.00    +0.000 NA
BRANCH  17  24
ATOM     23  N   UNL     1      44.004   4.815   9.571  0.00  0.00    +0.000 N 
ATOM     24  C   UNL     1      44.175   3.825  10.502  0.00  0.00    +0.000 C 
ATOM     25  O   UNL     1      43.692   2.709  10.355  0.00  0.00    +0.000 OA
ATOM     26  H   UNL     1      43.455   4.633   8.743  0.00  0.00    +0.000 HD
ATOM     27  H   UNL     1      44.409   5.731   9.725  0.00  0.00    +0.000 HD
ENDBRANCH  17  24
ENDBRANCH  15  20
ENDBRANCH   1  15
TORSDOF 5
ENDMDL
MODEL 9
REMARK VINA RESULT:    -6.152      3.044      4.586
REMARK INTER + INTRA:          -8.551
REMARK INTER:                  -7.960
REMARK INTRA:                  -0.590
REMARK UNBOUND:                -0.600
REMARK  Name = 
REMARK  5 active torsions:
REMARK  status: ('A' for Active; 'I' for Inactive)
REMARK    1  A    between atoms: C_2  and  C_4
REMARK    2  A    between atoms: C_7  and  N_8
REMARK    3  A    between atoms: N_8  and  C_9
REMARK    4  A    between atoms: C_9  and  C_10
REMARK    5  A    between atoms: C_14  and  C_15
REMARK                            x       y       z     vdW  Elec       q    Type
REMARK                         _______ _______ _______ _____ _____    ______ ____
ROOT
ATOM      1  C   UNL     1      47.964   7.547  12.702  0.00  0.00    +0.000 C 
ENDROOT
BRANCH   1   2
ATOM      2  C   UNL     1      48.937   7.426  13.848  0.00  0.00    +0.000 A 
ATOM      3  C   UNL     1      50.213   7.963  13.760  0.00  0.00    +0.000 A 
ATOM      4  N   UNL     1      51.133   7.882  14.745  0.00  0.00    +0.000 NA
ATOM      5  C   UNL     1      50.767   7.224  15.872  0.00  0.00    +0.000 A 
ATOM      6  C   UNL     1      49.525   6.622  16.089  0.00  0.00    +0.000 A 
ATOM      7  C   UNL     1      48.606   6.744  15.030  0.00  0.00    +0.000 A 
BRANCH   6   8
ATOM      8  C   UNL     1      49.201   5.902  17.339  0.00  0.00    +0.000 A 
ATOM      9  C   UNL     1      49.499   4.546  17.521  0.00  0.00    +0.000 A 
ATOM     10  N   UNL     1      49.223   3.824  18.639  0.00  0.00    +0.000 NA
ATOM     11  C   UNL     1      48.601   4.479  19.643  0.00  0.00    +0.000 A 
ATOM     12  C   UNL     1      48.255   5.817  19.579  0.00  0.00    +0.000 A 
ATOM     13 CL   UNL     1      47.459   6.585  20.891  0.00  0.00    +0.000 Cl
ATOM     14  C   UNL     1      48.563   6.532  18.422  0.00  0.00    +0.000 A 
ENDBRANCH   6   8
ENDBRANCH   1   2
BRANCH   1  15
ATOM     15  N   UNL     1      46.600   7.381  13.199  0.00  0.00    +0.000 N 
ATOM     16  H   UNL     1      46.051   8.227  13.076  0.00  0.00    +0.000 HD
BRANCH  15  20
ATOM     17  C   UNL     1      44.667   4.076  11.683  0.00  0.00    +0.000 A 
ATOM     18  C   UNL     1      44.919   5.176  10.880  0.00  0.00    +0.000 A 
ATOM     19  N   UNL     1      45.546   6.294  11.342  0.00  0.00    +0.000 NA
ATOM     20  C   UNL     1      45.912   6.288  12.642  0.00  0.00    +0.000 A 
ATOM     21  C   UNL     1      45.648   5.161  13.436  0.00  0.00    +0.000 A 
ATOM     22  N   UNL     1      45.020   4.039  12.995  0.00  0.00    +0.000 NA
BRANCH  17  24
ATOM     23  N   UNL     1      44.629   2.288  10.050  0.00  0.00    +0.000 N 
ATOM     24  C   UNL     1      43.995   2.877  11.112  0.00  0.00    +0.000 C 
ATOM     25  O   UNL     1      42.942   2.441  11.559  0.00  0.00    +0.000 OA
ATOM     26  H   UNL     1      44.216   1.479   9.608  0.00  0.00    +0.000 HD
ATOM     27  H   UNL     1      45.496   2.678   9.697  0.00  0.00    +0.000 HD
ENDBRANCH  17  24
ENDBRANCH  15  20
ENDBRANCH   1  15
TORSDOF 5
ENDMDL
