MODEL 1
REMARK VINA RESULT:    -6.385      0.000      0.000
REMARK INTER + INTRA:          -8.236
REMARK INTER:                  -7.692
REMARK INTRA:                  -0.545
REMARK UNBOUND:                -0.545
REMARK  Name = 
REMARK  4 active torsions:
REMARK  status: ('A' for Active; 'I' for Inactive)
REMARK    1  A    between atoms: N_1  and  C_2
REMARK    2  A    between atoms: C_2  and  C_3
REMARK    3  A    between atoms: C_6  and  C_7
REMARK    4  A    between atoms: C_7  and  N_8
REMARK                            x       y       z     vdW  Elec       q    Type
REMARK                         _______ _______ _______ _____ _____    ______ ____
ROOT
ATOM      1  C   UNL     1      47.105   2.979   7.234  0.00  0.00    +0.000 C 
ATOM      2  C   UNL     1      46.346   4.190   7.807  0.00  0.00    +0.000 C 
ATOM      3  C   UNL     1      44.856   3.908   7.996  0.00  0.00    +0.000 C 
ATOM      4  C   UNL     1      44.598   2.696   8.905  0.00  0.00    +0.000 C 
ATOM      5  C   UNL     1      45.346   1.469   8.349  0.00  0.00    +0.000 C 
ATOM      6  C   UNL     1      46.833   1.727   8.089  0.00  0.00    +0.000 C 
ENDROOT
BRANCH   1   7
ATOM      7  C   UNL     1      46.786   2.721   5.746  0.00  0.00    +0.000 C 
BRANCH   7   8
ATOM      8  N   UNL     1      48.002   2.494   4.971  0.00  0.00    +0.000 NA
ATOM      9  H   UNL     1      48.325   3.375   4.573  0.00  0.00    +0.000 HD
ATOM     10  H   UNL     1      47.801   1.878   4.184  0.00  0.00    +0.000 HD
ENDBRANCH   7   8
ENDBRANCH   1   7
BRANCH   4  11
ATOM     11  C   UNL     1      44.974   2.944  10.382  0.00  0.00    +0.000 C 
BRANCH  11  12
ATOM     12  N   UNL     1      44.345   4.113  10.977  0.00  0.00    +0.000 N 
ATOM     13  C   UNL     1      42.998   4.242  11.230  0.00  0.00    +0.000 A 
ATOM     14  C   UNL     1      42.772   5.519  11.697  0.00  0.00    +0.000 A 
ATOM     15  C   UNL     1      44.022   6.190  11.722  0.00  0.00    +0.000 A 
ATOM     16  C   UNL     1      44.471   7.463  12.058  0.00  0.00    +0.000 A 
ATOM     17  N   UNL     1      45.789   7.758  11.959  0.00  0.00    +0.000 NA
ATOM     18  C   UNL     1      46.615   6.784  11.527  0.00  0.00    +0.000 A 
ATOM     19  N   UNL     1      46.303   5.528  11.163  0.00  0.00    +0.000 NA
ATOM     20  C   UNL     1      44.983   5.291  11.281  0.00  0.00    +0.000 A 
ENDBRANCH  11  12
ENDBRANCH   4  11
TORSDOF 4
ENDMDL
MODEL 2
REMARK VINA RESULT:    -6.062      2.019      5.848
REMARK INTER + INTRA:          -7.848
REMARK INTER:                  -7.324
REMARK INTRA:                  -0.523
REMARK UNBOUND:                -0.545
REMARK  Name = 
REMARK  4 active torsions:
REMARK  status: ('A' for Active; 'I' for Inactive)
REMARK    1  A    between atoms: N_1  and  C_2
REMARK    2  A    between atoms: C_2  and  C_3
REMARK    3  A    between atoms: C_6  and  C_7
REMARK    4  A    between atoms: C_7  and  N_8
REMARK                            x       y       z     vdW  Elec       q    Type
REMARK                         _______ _______ _______ _____ _____    ______ ____
ROOT
ATOM      1  C   UNL     1      48.073   7.758  12.431  0.00  0.00    +0.000 C 
ATOM      2  C   UNL     1      47.629   6.296  12.246  0.00  0.00    +0.000 C 
ATOM      3  C   UNL     1      46.398   5.950  13.083  0.00  0.00    +0.000 C 
ATOM      4  C   UNL     1      45.202   6.865  12.776  0.00  0.00    +0.000 C 
ATOM      5  C   UNL     1      45.623   8.337  12.958  0.00  0.00    +0.000 C 
ATOM      6  C   UNL     1      46.888   8.711  12.180  0.00  0.00    +0.000 C 
ENDROOT
BRANCH   1   7
ATOM      7  C   UNL     1      48.720   8.020  13.807  0.00  0.00    +0.000 C 
BRANCH   7   8
ATOM      8  N   UNL     1      49.758   7.037  14.105  0.00  0.00    +0.000 NA
ATOM      9  H   UNL     1      50.639   7.515  14.292  0.00  0.00    +0.000 HD
ATOM     10  H   UNL     1      49.918   6.444  13.292  0.00  0.00    +0.000 HD
ENDBRANCH   7   8
ENDBRANCH   1   7
BRANCH   4  11
ATOM     11  C   UNL     1      44.597   6.636  11.374  0.00  0.00    +0.000 C 
BRANCH  11  12
ATOM     12  N   UNL     1      44.263   5.252  11.080  0.00  0.00    +0.000 N 
ATOM     13  C   UNL     1      43.485   4.441  11.876  0.00  0.00    +0.000 A 
ATOM     14  C   UNL     1      43.479   3.179  11.322  0.00  0.00    +0.000 A 
ATOM     15  C   UNL     1      44.285   3.223  10.156  0.00  0.00    +0.000 A 
ATOM     16  C   UNL     1      44.694   2.315   9.184  0.00  0.00    +0.000 A 
ATOM     17  N   UNL     1      45.491   2.730   8.171  0.00  0.00    +0.000 NA
ATOM     18  C   UNL     1      45.858   4.026   8.158  0.00  0.00    +0.000 A 
ATOM     19  N   UNL     1      45.542   4.991   9.039  0.00  0.00    +0.000 NA
ATOM     20  C   UNL     1      44.750   4.524  10.022  0.00  0.00    +0.000 A 
ENDBRANCH  11  12
ENDBRANCH   4  11
TORSDOF 4
ENDMDL
MODEL 3
REMARK VINA RESULT:    -5.796      1.504      5.877
REMARK INTER + INTRA:          -7.527
REMARK INTER:                  -6.986
REMARK INTRA:                  -0.540
REMARK UNBOUND:                -0.545
REMARK  Name = 
REMARK  4 active torsions:
REMARK  status: ('A' for Active; 'I' for Inactive)
REMARK    1  A    between atoms: N_1  and  C_2
REMARK    2  A    between atoms: C_2  and  C_3
REMARK    3  A    between atoms: C_6  and  C_7
REMARK    4  A    between atoms: C_7  and  N_8
REMARK                            x       y       z     vdW  Elec       q    Type
REMARK                         _______ _______ _______ _____ _____    ______ ____
ROOT
ATOM      1  C   UNL     1      45.212   7.435  11.419  0.00  0.00    +0.000 C 
ATOM      2  C   UNL     1      46.080   6.270  10.913  0.00  0.00    +0.000 C 
ATOM      3  C   UNL     1      45.593   4.915  11.425  0.00  0.00    +0.000 C 
ATOM      4  C   UNL     1      44.130   4.634  11.046  0.00  0.00    +0.000 C 
ATOM      5  C   UNL     1      43.240   5.789  11.545  0.00  0.00    +0.000 C 
ATOM      6  C   UNL     1      43.728   7.171  11.102  0.00  0.00    +0.000 C 
ENDROOT
BRANCH   1   7
ATOM      7  C   UNL     1      45.420   7.732  12.919  0.00  0.00    +0.000 C 
BRANCH   7   8
ATOM      8  N   UNL     1      45.691   9.147  13.153  0.00  0.00    +0.000 NA
ATOM      9  H   UNL     1      45.798   9.627  12.260  0.00  0.00    +0.000 HD
ATOM     10  H   UNL     1      46.577   9.254  13.645  0.00  0.00    +0.000 HD
ENDBRANCH   7   8
ENDBRANCH   1   7
BRANCH   4  11
ATOM     11  C   UNL     1      43.923   4.396   9.534  0.00  0.00    +0.000 C 
BRANCH  11  12
ATOM     12  N   UNL     1      44.596   3.218   9.011  0.00  0.00    +0.000 N 
ATOM     13  C   UNL     1      44.279   1.918   9.336  0.00  0.00    +0.000 A 
ATOM     14  C   UNL     1      45.197   1.090   8.726  0.00  0.00    +0.000 A 
ATOM     15  C   UNL     1      46.105   1.914   8.013  0.00  0.00    +0.000 A 
ATOM     16  C   UNL     1      47.237   1.716   7.229  0.00  0.00    +0.000 A 
ATOM     17  N   UNL     1      47.870   2.781   6.682  0.00  0.00    +0.000 NA
ATOM     18  C   UNL     1      47.363   4.004   6.933  0.00  0.00    +0.000 A 
ATOM     19  N   UNL     1      46.291   4.324   7.679  0.00  0.00    +0.000 NA
ATOM     20  C   UNL     1      45.702   3.229   8.196  0.00  0.00    +0.000 A 
ENDBRANCH  11  12
ENDBRANCH   4  11
TORSDOF 4
ENDMDL
MODEL 4
REMARK VINA RESULT:    -5.380      4.209      6.192
REMARK INTER + INTRA:          -7.025
REMARK INTER:                  -6.756
REMARK INTRA:                  -0.269
REMARK UNBOUND:                -0.545
REMARK  Name = 
REMARK  4 active torsions:
REMARK  status: ('A' for Active; 'I' for Inactive)
REMARK    1  A    between atoms: N_1  and  C_2
REMARK    2  A    between atoms: C_2  and  C_3
REMARK    3  A    between atoms: C_6  and  C_7
REMARK    4  A    between atoms: C_7  and  N_8
REMARK                            x       y       z     vdW  Elec       q    Type
REMARK                         _______ _______ _______ _____ _____    ______ ____
ROOT
ATOM      1  C   UNL     1      45.008   4.455  10.782  0.00  0.00    +0.000 C 
ATOM      2  C   UNL     1      45.819   5.760  10.703  0.00  0.00    +0.000 C 
ATOM      3  C   UNL     1      45.610   6.652  11.926  0.00  0.00    +0.000 C 
ATOM      4  C   UNL     1      45.962   5.938  13.241  0.00  0.00    +0.000 C 
ATOM      5  C   UNL     1      45.157   4.627  13.344  0.00  0.00    +0.000 C 
ATOM      6  C   UNL     1      45.293   3.729  12.111  0.00  0.00    +0.000 C 
ENDROOT
BRANCH   1   7
ATOM      7  C   UNL     1      43.494   4.676  10.579  0.00  0.00    +0.000 C 
BRANCH   7   8
ATOM      8  N   UNL     1      42.706   3.675  11.292  0.00  0.00    +0.000 NA
ATOM      9  H   UNL     1      42.250   3.057  10.623  0.00  0.00    +0.000 HD
ATOM     10  H   UNL     1      41.961   4.131  11.818  0.00  0.00    +0.000 HD
ENDBRANCH   7   8
ENDBRANCH   1   7
BRANCH   4  11
ATOM     11  C   UNL     1      47.473   5.669  13.409  0.00  0.00    +0.000 C 
BRANCH  11  12
ATOM     12  N   UNL     1      47.987   5.928  14.744  0.00  0.00    +0.000 N 
ATOM     13  C   UNL     1      48.633   7.080  15.132  0.00  0.00    +0.000 A 
ATOM     14  C   UNL     1      49.060   6.913  16.432  0.00  0.00    +0.000 A 
ATOM     15  C   UNL     1      48.666   5.614  16.845  0.00  0.00    +0.000 A 
ATOM     16  C   UNL     1      48.801   4.843  17.995  0.00  0.00    +0.000 A 
ATOM     17  N   UNL     1      48.271   3.598  18.034  0.00  0.00    +0.000 NA
ATOM     18  C   UNL     1      47.631   3.158  16.933  0.00  0.00    +0.000 A 
ATOM     19  N   UNL     1      47.447   3.798  15.765  0.00  0.00    +0.000 NA
ATOM     20  C   UNL     1      47.992   5.028  15.783  0.00  0.00    +0.000 A 
ENDBRANCH  11  12
ENDBRANCH   4  11
TORSDOF 4
ENDMDL
MODEL 5
REMARK VINA RESULT:    -5.369      5.145      7.993
REMARK INTER + INTRA:          -7.012
REMARK INTER:                  -6.812
REMARK INTRA:                  -0.200
REMARK UNBOUND:                -0.545
REMARK  Name = 
REMARK  4 active torsions:
REMARK  status: ('A' for Active; 'I' for Inactive)
REMARK    1  A    between atoms: N_1  and  C_2
REMARK    2  A    between atoms: C_2  and  C_3
REMARK    3  A    between atoms: C_6  and  C_7
REMARK    4  A    between atoms: C_7  and  N_8
REMARK                            x       y       z     vdW  Elec       q    Type
REMARK                         _______ _______ _______ _____ _____    ______ ____
ROOT
ATOM      1  C   UNL     1      49.443   3.814  18.079  0.00  0.00    +0.000 C 
ATOM      2  C   UNL     1      48.417   2.758  17.631  0.00  0.00    +0.000 C 
ATOM      3  C   UNL     1      47.063   3.373  17.278  0.00  0.00    +0.000 C 
ATOM      4  C   UNL     1      47.173   4.444  16.181  0.00  0.00    +0.000 C 
ATOM      5  C   UNL     1      48.194   5.515  16.610  0.00  0.00    +0.000 C 
ATOM      6  C   UNL     1      49.548   4.935  17.029  0.00  0.00    +0.000 C 
ENDROOT
BRANCH   1   7
ATOM      7  C   UNL     1      49.141   4.386  19.481  0.00  0.00    +0.000 C 
BRANCH   7   8
ATOM      8  N   UNL     1      48.453   3.410  20.321  0.00  0.00    +0.000 NA
ATOM      9  H   UNL     1      47.446   3.556  20.260  0.00  0.00    +0.000 HD
ATOM     10  H   UNL     1      48.708   3.553  21.297  0.00  0.00    +0.000 HD
ENDBRANCH   7   8
ENDBRANCH   1   7
BRANCH   4  11
ATOM     11  C   UNL     1      47.532   3.868  14.794  0.00  0.00    +0.000 C 
BRANCH  11  12
ATOM     12  N   UNL     1      47.048   4.654  13.670  0.00  0.00    +0.000 N 
ATOM     13  C   UNL     1      47.579   5.856  13.261  0.00  0.00    +0.000 A 
ATOM     14  C   UNL     1      46.795   6.343  12.237  0.00  0.00    +0.000 A 
ATOM     15  C   UNL     1      45.749   5.409  12.022  0.00  0.00    +0.000 A 
ATOM     16  C   UNL     1      44.646   5.313  11.179  0.00  0.00    +0.000 A 
ATOM     17  N   UNL     1      43.836   4.231  11.253  0.00  0.00    +0.000 NA
ATOM     18  C   UNL     1      44.143   3.284  12.162  0.00  0.00    +0.000 A 
ATOM     19  N   UNL     1      45.166   3.267  13.035  0.00  0.00    +0.000 NA
ATOM     20  C   UNL     1      45.936   4.365  12.917  0.00  0.00    +0.000 A 
ENDBRANCH  11  12
ENDBRANCH   4  11
TORSDOF 4
ENDMDL
MODEL 6
REMARK VINA RESULT:    -5.304      3.572      5.843
REMARK INTER + INTRA:          -6.934
REMARK INTER:                  -6.506
REMARK INTRA:                  -0.428
REMARK UNBOUND:                -0.545
REMARK  Name = 
REMARK  4 active torsions:
REMARK  status: ('A' for Active; 'I' for Inactive)
REMARK    1  A    between atoms: N_1  and  C_2
REMARK    2  A    between atoms: C_2  and  C_3
REMARK    3  A    between atoms: C_6  and  C_7
REMARK    4  A    between atoms: C_7  and  N_8
REMARK                            x       y       z     vdW  Elec       q    Type
REMARK                         _______ _______ _______ _____ _____    ______ ____
ROOT
ATOM      1  C   UNL     1      44.898   3.696  11.137  0.00  0.00    +0.000 C 
ATOM      2  C   UNL     1      45.283   5.043  10.500  0.00  0.00    +0.000 C 
ATOM      3  C   UNL     1      44.993   6.227  11.422  0.00  0.00    +0.000 C 
ATOM      4  C   UNL     1      45.708   6.106  12.777  0.00  0.00    +0.000 C 
ATOM      5  C   UNL     1      45.334   4.763  13.435  0.00  0.00    +0.000 C 
ATOM      6  C   UNL     1      45.555   3.554  12.523  0.00  0.00    +0.000 C 
ENDROOT
BRANCH   1   7
ATOM      7  C   UNL     1      43.371   3.484  11.216  0.00  0.00    +0.000 C 
BRANCH   7   8
ATOM      8  N   UNL     1      43.040   2.151  11.711  0.00  0.00    +0.000 NA
ATOM      9  H   UNL     1      42.054   1.957  11.541  0.00  0.00    +0.000 HD
ATOM     10  H   UNL     1      43.173   2.113  12.720  0.00  0.00    +0.000 HD
ENDBRANCH   7   8
ENDBRANCH   1   7
BRANCH   4  11
ATOM     11  C   UNL     1      47.241   6.261  12.679  0.00  0.00    +0.000 C 
BRANCH  11  12
ATOM     12  N   UNL     1      47.821   7.155  13.668  0.00  0.00    +0.000 N 
ATOM     13  C   UNL     1      48.052   8.499  13.479  0.00  0.00    +0.000 A 
ATOM     14  C   UNL     1      48.702   8.982  14.595  0.00  0.00    +0.000 A 
ATOM     15  C   UNL     1      48.878   7.894  15.488  0.00  0.00    +0.000 A 
ATOM     16  C   UNL     1      49.458   7.706  16.738  0.00  0.00    +0.000 A 
ATOM     17  N   UNL     1      49.432   6.480  17.312  0.00  0.00    +0.000 NA
ATOM     18  C   UNL     1      48.838   5.483  16.628  0.00  0.00    +0.000 A 
ATOM     19  N   UNL     1      48.258   5.535  15.416  0.00  0.00    +0.000 NA
ATOM     20  C   UNL     1      48.312   6.775  14.894  0.00  0.00    +0.000 A 
ENDBRANCH  11  12
ENDBRANCH   4  11
TORSDOF 4
ENDMDL
MODEL 7
REMARK VINA RESULT:    -5.249      2.511      6.329
REMARK INTER + INTRA:          -6.868
REMARK INTER:                  -6.500
REMARK INTRA:                  -0.368
REMARK UNBOUND:                -0.545
REMARK  Name = 
REMARK  4 active torsions:
REMARK  status: ('A' for Active; 'I' for Inactive)
REMARK    1  A    between atoms: N_1  and  C_2
REMARK    2  A    between atoms: C_2  and  C_3
REMARK    3  A    between atoms: C_6  and  C_7
REMARK    4  A    between atoms: C_7  and  N_8
REMARK                            x       y       z     vdW  Elec       q    Type
REMARK                         _______ _______ _______ _____ _____    ______ ____
ROOT
ATOM      1  C   UNL     1      48.796   9.192  12.111  0.00  0.00    +0.000 C 
ATOM      2  C   UNL     1      48.960   7.717  11.705  0.00  0.00    +0.000 C 
ATOM      3  C   UNL     1      48.240   6.766  12.661  0.00  0.00    +0.000 C 
ATOM      4  C   UNL     1      46.739   7.076  12.779  0.00  0.00    +0.000 C 
ATOM      5  C   UNL     1      46.551   8.550  13.188  0.00  0.00    +0.000 C 
ATOM      6  C   UNL     1      47.305   9.534  12.289  0.00  0.00    +0.000 C 
ENDROOT
BRANCH   1   7
ATOM      7  C   UNL     1      49.610   9.563  13.369  0.00  0.00    +0.000 C 
BRANCH   7   8
ATOM      8  N   UNL     1      50.675  10.512  13.058  0.00  0.00    +0.000 NA
ATOM      9  H   UNL     1      51.294  10.113  12.354  0.00  0.00    +0.000 HD
ATOM     10  H   UNL     1      51.246  10.676  13.886  0.00  0.00    +0.000 HD
ENDBRANCH   7   8
ENDBRANCH   1   7
BRANCH   4  11
ATOM     11  C   UNL     1      45.943   6.757  11.495  0.00  0.00    +0.000 C 
BRANCH  11  12
ATOM     12  N   UNL     1      45.355   5.427  11.465  0.00  0.00    +0.000 N 
ATOM     13  C   UNL     1      44.955   4.715  12.574  0.00  0.00    +0.000 A 
ATOM     14  C   UNL     1      44.546   3.467  12.155  0.00  0.00    +0.000 A 
ATOM     15  C   UNL     1      44.710   3.417  10.747  0.00  0.00    +0.000 A 
ATOM     16  C   UNL     1      44.510   2.471   9.747  0.00  0.00    +0.000 A 
ATOM     17  N   UNL     1      44.780   2.789   8.459  0.00  0.00    +0.000 NA
ATOM     18  C   UNL     1      45.242   4.029   8.206  0.00  0.00    +0.000 A 
ATOM     19  N   UNL     1      45.488   5.020   9.081  0.00  0.00    +0.000 NA
ATOM     20  C   UNL     1      45.202   4.650  10.343  0.00  0.00    +0.000 A 
ENDBRANCH  11  12
ENDBRANCH   4  11
TORSDOF 4
ENDMDL
MODEL 8
REMARK VINA RESULT:    -5.234      3.355      5.558
REMARK INTER + INTRA:          -6.850
REMARK INTER:                  -6.536
REMARK INTRA:                  -0.314
REMARK UNBOUND:                -0.545
REMARK  Name = 
REMARK  4 active torsions:
REMARK  status: ('A' for Active; 'I' for Inactive)
REMARK    1  A    between atoms: N_1  and  C_2
REMARK    2  A    between atoms: C_2  and  C_3
REMARK    3  A    between atoms: C_6  and  C_7
REMARK    4  A    between atoms: C_7  and  N_8
REMARK                            x       y       z     vdW  Elec       q    Type
REMARK                         _______ _______ _______ _____ _____    ______ ____
ROOT
ATOM      1  C   UNL     1      44.858   3.732  11.250  0.00  0.00    +0.000 C 
ATOM      2  C   UNL     1      45.192   4.988  10.425  0.00  0.00    +0.000 C 
ATOM      3  C   UNL     1      44.903   6.280  11.188  0.00  0.00    +0.000 C 
ATOM      4  C   UNL     1      45.661   6.357  12.523  0.00  0.00    +0.000 C 
ATOM      5  C   UNL     1      45.339   5.109  13.368  0.00  0.00    +0.000 C 
ATOM      6  C   UNL     1      45.559   3.791  12.620  0.00  0.00    +0.000 C 
ENDROOT
BRANCH   1   7
ATOM      7  C   UNL     1      43.339   3.505  11.407  0.00  0.00    +0.000 C 
BRANCH   7   8
ATOM      8  N   UNL     1      43.040   2.119  11.758  0.00  0.00    +0.000 NA
ATOM      9  H   UNL     1      43.006   1.552  10.912  0.00  0.00    +0.000 HD
ATOM     10  H   UNL     1      42.115   2.062  12.182  0.00  0.00    +0.000 HD
ENDBRANCH   7   8
ENDBRANCH   1   7
BRANCH   4  11
ATOM     11  C   UNL     1      47.186   6.527  12.354  0.00  0.00    +0.000 C 
BRANCH  11  12
ATOM     12  N   UNL     1      47.625   7.903  12.183  0.00  0.00    +0.000 N 
ATOM     13  C   UNL     1      46.816   9.010  12.299  0.00  0.00    +0.000 A 
ATOM     14  C   UNL     1      47.562  10.121  11.968  0.00  0.00    +0.000 A 
ATOM     15  C   UNL     1      48.866   9.673  11.634  0.00  0.00    +0.000 A 
ATOM     16  C   UNL     1      50.051  10.263  11.208  0.00  0.00    +0.000 A 
ATOM     17  N   UNL     1      51.142   9.493  10.984  0.00  0.00    +0.000 NA
ATOM     18  C   UNL     1      51.020   8.166  11.184  0.00  0.00    +0.000 A 
ATOM     19  N   UNL     1      49.933   7.480  11.579  0.00  0.00    +0.000 NA
ATOM     20  C   UNL     1      48.882   8.294  11.787  0.00  0.00    +0.000 A 
ENDBRANCH  11  12
ENDBRANCH   4  11
TORSDOF 4
ENDMDL
MODEL 9
REMARK VINA RESULT:    -5.183      2.606      4.546
REMARK INTER + INTRA:          -6.789
REMARK INTER:                  -6.261
REMARK INTRA:                  -0.528
REMARK UNBOUND:                -0.545
REMARK  Name = 
REMARK  4 active torsions:
REMARK  status: ('A' for Active; 'I' for Inactive)
REMARK    1  A    between atoms: N_1  and  C_2
REMARK    2  A    between atoms: C_2  and  C_3
REMARK    3  A    between atoms: C_6  and  C_7
REMARK    4  A    between atoms: C_7  and  N_8
REMARK                            x       y       z     vdW  Elec       q    Type
REMARK                         _______ _______ _______ _____ _____    ______ ____
ROOT
ATOM      1  C   UNL     1      43.757   3.629  10.635  0.00  0.00    +0.000 C 
ATOM      2  C   UNL     1      44.028   3.511  12.145  0.00  0.00    +0.000 C 
ATOM      3  C   UNL     1      45.473   3.851  12.507  0.00  0.00    +0.000 C 
ATOM      4  C   UNL     1      45.878   5.261  12.047  0.00  0.00    +0.000 C 
ATOM      5  C   UNL     1      45.618   5.401  10.534  0.00  0.00    +0.000 C 
ATOM      6  C   UNL     1      44.196   5.013  10.121  0.00  0.00    +0.000 C 
ENDROOT
BRANCH   1   7
ATOM      7  C   UNL     1      44.412   2.495   9.817  0.00  0.00    +0.000 C 
BRANCH   7   8
ATOM      8  N   UNL     1      44.391   2.785   8.387  0.00  0.00    +0.000 NA
ATOM      9  H   UNL     1      44.239   1.923   7.865  0.00  0.00    +0.000 HD
ATOM     10  H   UNL     1      45.297   3.145   8.093  0.00  0.00    +0.000 HD
ENDBRANCH   7   8
ENDBRANCH   1   7
BRANCH   4  11
ATOM     11  C   UNL     1      45.174   6.389  12.832  0.00  0.00    +0.000 C 
BRANCH  11  12
ATOM     12  N   UNL     1      45.717   7.717  12.597  0.00  0.00    +0.000 N 
ATOM     13  C   UNL     1      46.888   8.199  13.138  0.00  0.00    +0.000 A 
ATOM     14  C   UNL     1      47.016   9.521  12.772  0.00  0.00    +0.000 A 
ATOM     15  C   UNL     1      45.882   9.856  11.988  0.00  0.00    +0.000 A 
ATOM     16  C   UNL     1      45.406  10.996  11.348  0.00  0.00    +0.000 A 
ATOM     17  N   UNL     1      44.241  10.942  10.659  0.00  0.00    +0.000 NA
ATOM     18  C   UNL     1      43.587   9.764  10.632  0.00  0.00    +0.000 A 
ATOM     19  N   UNL     1      43.935   8.605  11.217  0.00  0.00    +0.000 NA
ATOM     20  C   UNL     1      45.098   8.716  11.885  0.00  0.00    +0.000 A 
ENDBRANCH  11  12
ENDBRANCH   4  11
TORSDOF 4
ENDMDL
