MODEL 1
REMARK VINA RESULT:    -8.757      0.000      0.000
REMARK INTER + INTRA:         -11.200
REMARK INTER:                 -10.805
REMARK INTRA:                  -0.396
REMARK UNBOUND:                -0.396
REMARK  Name = 
REMARK  8 active torsions:
REMARK  status: ('A' for Active; 'I' for Inactive)
REMARK    1  A    between atoms: C_1  and  C_2
REMARK    2  A    between atoms: C_7  and  C_8
REMARK    3  A    between atoms: C_8  and  C_9
REMARK    4  A    between atoms: C_8  and  C_10
REMARK    5  A    between atoms: C_8  and  C_11
REMARK    6  A    between atoms: C_11  and  N_12
REMARK    7  A    between atoms: C_16  and  C_17
REMARK    8  A    between atoms: C_26  and  C_27
REMARK                            x       y       z     vdW  Elec       q    Type
REMARK                         _______ _______ _______ _____ _____    ______ ____
ROOT
ATOM      1  C   UNL     1      44.123   4.558  12.219  0.00  0.00    +0.000 C 
ATOM      2  C   UNL     1      45.084   3.363  12.454  0.00  0.00    +0.000 C 
ATOM      3  C   UNL     1      43.222   4.689  13.465  0.00  0.00    +0.000 C 
ENDROOT
BRANCH   1  10
ATOM      4  C   UNL     1      48.853  10.439  12.745  0.00  0.00    +0.000 C 
ATOM      5  C   UNL     1      49.758   9.255  12.419  0.00  0.00    +0.000 C 
ATOM      6  C   UNL     1      49.126   8.227  11.465  0.00  0.00    +0.000 C 
ATOM      7  N   UNL     1      48.342   7.199  12.149  0.00  0.00    +0.000 N 
ATOM      8  C   UNL     1      46.965   7.193  12.025  0.00  0.00    +0.000 A 
ATOM      9  C   UNL     1      46.282   5.977  12.149  0.00  0.00    +0.000 A 
ATOM     10  C   UNL     1      44.885   5.891  12.037  0.00  0.00    +0.000 A 
ATOM     11  C   UNL     1      44.216   7.090  11.777  0.00  0.00    +0.000 A 
ATOM     12  C   UNL     1      44.954   8.259  11.648  0.00  0.00    +0.000 A 
ATOM     13  N   UNL     1      46.299   8.328  11.751  0.00  0.00    +0.000 NA
ATOM     14  C   UNL     1      48.951   6.634  13.357  0.00  0.00    +0.000 C 
ATOM     15  C   UNL     1      49.518   7.722  14.289  0.00  0.00    +0.000 C 
ATOM     16  C   UNL     1      48.465   8.389  15.169  0.00  0.00    +0.000 C 
ATOM     17  O   UNL     1      50.338   8.677  13.600  0.00  0.00    +0.000 OA
ENDBRANCH   1  10
BRANCH   1  18
ATOM     18  C   UNL     1      43.269   4.267  10.949  0.00  0.00    +0.000 C 
BRANCH  18  19
ATOM     19  N   UNL     1      43.857   4.800   9.717  0.00  0.00    +0.000 N 
ATOM     20  C   UNL     1      44.782   4.038   9.021  0.00  0.00    +0.000 A 
ATOM     21  C   UNL     1      44.764   2.638   8.962  0.00  0.00    +0.000 A 
ATOM     22  N   UNL     1      45.644   1.882   8.256  0.00  0.00    +0.000 NA
ATOM     23  C   UNL     1      46.565   2.604   7.562  0.00  0.00    +0.000 A 
ATOM     24  C   UNL     1      46.593   3.988   7.593  0.00  0.00    +0.000 A 
ATOM     25  N   UNL     1      45.713   4.726   8.328  0.00  0.00    +0.000 NA
ATOM     26  H   UNL     1      44.208   5.755   9.742  0.00  0.00    +0.000 HD
BRANCH  23  27
ATOM     27  C   UNL     1      47.556   1.845   6.752  0.00  0.00    +0.000 C 
ATOM     28  N   UNL     1      48.674   2.537   6.370  0.00  0.00    +0.000 N 
ATOM     29  O   UNL     1      47.378   0.672   6.446  0.00  0.00    +0.000 OA
ATOM     30  H   UNL     1      48.796   3.504   6.649  0.00  0.00    +0.000 HD
ATOM     31  H   UNL     1      49.389   2.068   5.831  0.00  0.00    +0.000 HD
ENDBRANCH  23  27
ENDBRANCH  18  19
ENDBRANCH   1  18
TORSDOF 4
ENDMDL
MODEL 2
REMARK VINA RESULT:    -8.266      1.176      2.243
REMARK INTER + INTRA:         -10.595
REMARK INTER:                  -9.964
REMARK INTRA:                  -0.630
REMARK UNBOUND:                -0.396
REMARK  Name = 
REMARK  8 active torsions:
REMARK  status: ('A' for Active; 'I' for Inactive)
REMARK    1  A    between atoms: C_1  and  C_2
REMARK    2  A    between atoms: C_7  and  C_8
REMARK    3  A    between atoms: C_8  and  C_9
REMARK    4  A    between atoms: C_8  and  C_10
REMARK    5  A    between atoms: C_8  and  C_11
REMARK    6  A    between atoms: C_11  and  N_12
REMARK    7  A    between atoms: C_16  and  C_17
REMARK    8  A    between atoms: C_26  and  C_27
REMARK                            x       y       z     vdW  Elec       q    Type
REMARK                         _______ _______ _______ _____ _____    ______ ____
ROOT
ATOM      1  C   UNL     1      43.773   5.492  12.101  0.00  0.00    +0.000 C 
ATOM      2  C   UNL     1      42.661   5.116  13.115  0.00  0.00    +0.000 C 
ATOM      3  C   UNL     1      43.356   6.809  11.413  0.00  0.00    +0.000 C 
ENDROOT
BRANCH   1  10
ATOM      4  C   UNL     1      50.645   7.897  14.158  0.00  0.00    +0.000 C 
ATOM      5  C   UNL     1      49.756   9.129  14.301  0.00  0.00    +0.000 C 
ATOM      6  C   UNL     1      48.331   8.819  14.789  0.00  0.00    +0.000 C 
ATOM      7  N   UNL     1      47.398   8.502  13.708  0.00  0.00    +0.000 N 
ATOM      8  C   UNL     1      46.931   7.209  13.563  0.00  0.00    +0.000 A 
ATOM      9  C   UNL     1      45.677   7.006  12.975  0.00  0.00    +0.000 A 
ATOM     10  C   UNL     1      45.137   5.724  12.792  0.00  0.00    +0.000 A 
ATOM     11  C   UNL     1      45.918   4.658  13.249  0.00  0.00    +0.000 A 
ATOM     12  C   UNL     1      47.146   4.928  13.839  0.00  0.00    +0.000 A 
ATOM     13  N   UNL     1      47.652   6.169  14.016  0.00  0.00    +0.000 NA
ATOM     14  C   UNL     1      47.476   9.368  12.528  0.00  0.00    +0.000 C 
ATOM     15  C   UNL     1      48.929   9.594  12.064  0.00  0.00    +0.000 C 
ATOM     16  C   UNL     1      49.493   8.451  11.227  0.00  0.00    +0.000 C 
ATOM     17  O   UNL     1      49.805   9.969  13.137  0.00  0.00    +0.000 OA
ENDBRANCH   1  10
BRANCH   1  18
ATOM     18  C   UNL     1      43.905   4.343  11.058  0.00  0.00    +0.000 C 
BRANCH  18  19
ATOM     19  N   UNL     1      44.244   4.814   9.712  0.00  0.00    +0.000 N 
ATOM     20  C   UNL     1      45.123   4.076   8.935  0.00  0.00    +0.000 A 
ATOM     21  C   UNL     1      45.233   2.680   8.982  0.00  0.00    +0.000 A 
ATOM     22  N   UNL     1      46.065   1.943   8.201  0.00  0.00    +0.000 NA
ATOM     23  C   UNL     1      46.795   2.677   7.319  0.00  0.00    +0.000 A 
ATOM     24  C   UNL     1      46.692   4.056   7.243  0.00  0.00    +0.000 A 
ATOM     25  N   UNL     1      45.866   4.777   8.054  0.00  0.00    +0.000 NA
ATOM     26  H   UNL     1      44.500   5.795   9.611  0.00  0.00    +0.000 HD
BRANCH  23  27
ATOM     27  C   UNL     1      47.720   1.937   6.419  0.00  0.00    +0.000 C 
ATOM     28  N   UNL     1      48.268   2.663   5.394  0.00  0.00    +0.000 N 
ATOM     29  O   UNL     1      47.975   0.751   6.587  0.00  0.00    +0.000 OA
ATOM     30  H   UNL     1      48.045   3.646   5.290  0.00  0.00    +0.000 HD
ATOM     31  H   UNL     1      48.915   2.216   4.759  0.00  0.00    +0.000 HD
ENDBRANCH  23  27
ENDBRANCH  18  19
ENDBRANCH   1  18
TORSDOF 4
ENDMDL
MODEL 3
REMARK VINA RESULT:    -7.624      2.876      3.688
REMARK INTER + INTRA:          -9.802
REMARK INTER:                  -9.252
REMARK INTRA:                  -0.550
REMARK UNBOUND:                -0.396
REMARK  Name = 
REMARK  8 active torsions:
REMARK  status: ('A' for Active; 'I' for Inactive)
REMARK    1  A    between atoms: C_1  and  C_2
REMARK    2  A    between atoms: C_7  and  C_8
REMARK    3  A    between atoms: C_8  and  C_9
REMARK    4  A    between atoms: C_8  and  C_10
REMARK    5  A    between atoms: C_8  and  C_11
REMARK    6  A    between atoms: C_11  and  N_12
REMARK    7  A    between atoms: C_16  and  C_17
REMARK    8  A    between atoms: C_26  and  C_27
REMARK                            x       y       z     vdW  Elec       q    Type
REMARK                         _______ _______ _______ _____ _____    ______ ____
ROOT
ATOM      1  C   UNL     1      44.244   5.233  12.490  0.00  0.00    +0.000 C 
ATOM      2  C   UNL     1      43.131   4.918  13.524  0.00  0.00    +0.000 C 
ATOM      3  C   UNL     1      43.928   6.607  11.862  0.00  0.00    +0.000 C 
ENDROOT
BRANCH   1  10
ATOM      4  C   UNL     1      50.106   5.485  17.267  0.00  0.00    +0.000 C 
ATOM      5  C   UNL     1      49.481   4.114  17.508  0.00  0.00    +0.000 C 
ATOM      6  C   UNL     1      48.915   3.451  16.241  0.00  0.00    +0.000 C 
ATOM      7  N   UNL     1      47.531   3.825  15.954  0.00  0.00    +0.000 N 
ATOM      8  C   UNL     1      47.251   4.635  14.869  0.00  0.00    +0.000 A 
ATOM      9  C   UNL     1      45.999   4.527  14.251  0.00  0.00    +0.000 A 
ATOM     10  C   UNL     1      45.641   5.316  13.147  0.00  0.00    +0.000 A 
ATOM     11  C   UNL     1      46.615   6.207  12.689  0.00  0.00    +0.000 A 
ATOM     12  C   UNL     1      47.843   6.254  13.336  0.00  0.00    +0.000 A 
ATOM     13  N   UNL     1      48.179   5.483  14.394  0.00  0.00    +0.000 NA
ATOM     14  C   UNL     1      46.624   3.837  17.106  0.00  0.00    +0.000 C 
ATOM     15  C   UNL     1      47.235   4.561  18.322  0.00  0.00    +0.000 C 
ATOM     16  C   UNL     1      47.123   6.080  18.255  0.00  0.00    +0.000 C 
ATOM     17  O   UNL     1      48.569   4.125  18.619  0.00  0.00    +0.000 OA
ENDBRANCH   1  10
BRANCH   1  18
ATOM     18  C   UNL     1      44.244   4.117  11.403  0.00  0.00    +0.000 C 
BRANCH  18  19
ATOM     19  N   UNL     1      44.366   4.634  10.037  0.00  0.00    +0.000 N 
ATOM     20  C   UNL     1      45.206   3.992   9.140  0.00  0.00    +0.000 A 
ATOM     21  C   UNL     1      45.451   2.613   9.140  0.00  0.00    +0.000 A 
ATOM     22  N   UNL     1      46.244   1.968   8.246  0.00  0.00    +0.000 NA
ATOM     23  C   UNL     1      46.786   2.779   7.298  0.00  0.00    +0.000 A 
ATOM     24  C   UNL     1      46.546   4.143   7.268  0.00  0.00    +0.000 A 
ATOM     25  N   UNL     1      45.764   4.772   8.191  0.00  0.00    +0.000 NA
ATOM     26  H   UNL     1      44.515   5.636   9.929  0.00  0.00    +0.000 HD
BRANCH  23  27
ATOM     27  C   UNL     1      47.657   2.142   6.273  0.00  0.00    +0.000 C 
ATOM     28  N   UNL     1      47.932   2.899   5.165  0.00  0.00    +0.000 N 
ATOM     29  O   UNL     1      48.098   1.008   6.415  0.00  0.00    +0.000 OA
ATOM     30  H   UNL     1      47.559   3.838   5.084  0.00  0.00    +0.000 HD
ATOM     31  H   UNL     1      48.530   2.523   4.443  0.00  0.00    +0.000 HD
ENDBRANCH  23  27
ENDBRANCH  18  19
ENDBRANCH   1  18
TORSDOF 4
ENDMDL
MODEL 4
REMARK VINA RESULT:    -6.959      3.779      6.533
REMARK INTER + INTRA:          -8.983
REMARK INTER:                  -8.070
REMARK INTRA:                  -0.913
REMARK UNBOUND:                -0.396
REMARK  Name = 
REMARK  8 active torsions:
REMARK  status: ('A' for Active; 'I' for Inactive)
REMARK    1  A    between atoms: C_1  and  C_2
REMARK    2  A    between atoms: C_7  and  C_8
REMARK    3  A    between atoms: C_8  and  C_9
REMARK    4  A    between atoms: C_8  and  C_10
REMARK    5  A    between atoms: C_8  and  C_11
REMARK    6  A    between atoms: C_11  and  N_12
REMARK    7  A    between atoms: C_16  and  C_17
REMARK    8  A    between atoms: C_26  and  C_27
REMARK                            x       y       z     vdW  Elec       q    Type
REMARK                         _______ _______ _______ _____ _____    ______ ____
ROOT
ATOM      1  C   UNL     1      49.890   8.420  13.260  0.00  0.00    +0.000 C 
ATOM      2  C   UNL     1      49.334   9.688  12.559  0.00  0.00    +0.000 C 
ATOM      3  C   UNL     1      51.430   8.520  13.262  0.00  0.00    +0.000 C 
ENDROOT
BRANCH   1  10
ATOM      4  C   UNL     1      47.484   6.084  20.042  0.00  0.00    +0.000 C 
ATOM      5  C   UNL     1      48.835   5.398  19.864  0.00  0.00    +0.000 C 
ATOM      6  C   UNL     1      49.878   6.251  19.122  0.00  0.00    +0.000 C 
ATOM      7  N   UNL     1      49.823   6.107  17.667  0.00  0.00    +0.000 N 
ATOM      8  C   UNL     1      49.367   7.156  16.891  0.00  0.00    +0.000 A 
ATOM      9  C   UNL     1      49.833   7.275  15.576  0.00  0.00    +0.000 A 
ATOM     10  C   UNL     1      49.414   8.311  14.727  0.00  0.00    +0.000 A 
ATOM     11  C   UNL     1      48.516   9.230  15.277  0.00  0.00    +0.000 A 
ATOM     12  C   UNL     1      48.106   9.065  16.594  0.00  0.00    +0.000 A 
ATOM     13  N   UNL     1      48.522   8.067  17.404  0.00  0.00    +0.000 NA
ATOM     14  C   UNL     1      49.675   4.735  17.170  0.00  0.00    +0.000 C 
ATOM     15  C   UNL     1      48.580   3.956  17.925  0.00  0.00    +0.000 C 
ATOM     16  C   UNL     1      47.165   4.254  17.438  0.00  0.00    +0.000 C 
ATOM     17  O   UNL     1      48.700   4.064  19.351  0.00  0.00    +0.000 OA
ENDBRANCH   1  10
BRANCH   1  18
ATOM     18  C   UNL     1      49.421   7.165  12.464  0.00  0.00    +0.000 C 
BRANCH  18  19
ATOM     19  N   UNL     1      48.141   7.357  11.777  0.00  0.00    +0.000 N 
ATOM     20  C   UNL     1      47.078   6.517  12.072  0.00  0.00    +0.000 A 
ATOM     21  C   UNL     1      46.851   5.949  13.333  0.00  0.00    +0.000 A 
ATOM     22  N   UNL     1      45.795   5.153  13.643  0.00  0.00    +0.000 NA
ATOM     23  C   UNL     1      44.926   4.955  12.615  0.00  0.00    +0.000 A 
ATOM     24  C   UNL     1      45.122   5.518  11.365  0.00  0.00    +0.000 A 
ATOM     25  N   UNL     1      46.203   6.296  11.070  0.00  0.00    +0.000 NA
ATOM     26  H   UNL     1      48.166   7.470  10.765  0.00  0.00    +0.000 HD
BRANCH  23  27
ATOM     27  C   UNL     1      43.736   4.104  12.883  0.00  0.00    +0.000 C 
ATOM     28  N   UNL     1      43.886   2.766  12.631  0.00  0.00    +0.000 N 
ATOM     29  O   UNL     1      42.686   4.575  13.304  0.00  0.00    +0.000 OA
ATOM     30  H   UNL     1      44.773   2.407  12.294  0.00  0.00    +0.000 HD
ATOM     31  H   UNL     1      43.116   2.137  12.809  0.00  0.00    +0.000 HD
ENDBRANCH  23  27
ENDBRANCH  18  19
ENDBRANCH   1  18
TORSDOF 4
ENDMDL
MODEL 5
REMARK VINA RESULT:    -6.927      3.390      8.037
REMARK INTER + INTRA:          -8.942
REMARK INTER:                  -8.146
REMARK INTRA:                  -0.796
REMARK UNBOUND:                -0.396
REMARK  Name = 
REMARK  8 active torsions:
REMARK  status: ('A' for Active; 'I' for Inactive)
REMARK    1  A    between atoms: C_1  and  C_2
REMARK    2  A    between atoms: C_7  and  C_8
REMARK    3  A    between atoms: C_8  and  C_9
REMARK    4  A    between atoms: C_8  and  C_10
REMARK    5  A    between atoms: C_8  and  C_11
REMARK    6  A    between atoms: C_11  and  N_12
REMARK    7  A    between atoms: C_16  and  C_17
REMARK    8  A    between atoms: C_26  and  C_27
REMARK                            x       y       z     vdW  Elec       q    Type
REMARK                         _______ _______ _______ _____ _____    ______ ____
ROOT
ATOM      1  C   UNL     1      49.153   8.546  12.422  0.00  0.00    +0.000 C 
ATOM      2  C   UNL     1      49.967   7.441  11.699  0.00  0.00    +0.000 C 
ATOM      3  C   UNL     1      49.355   9.864  11.646  0.00  0.00    +0.000 C 
ENDROOT
BRANCH   1  10
ATOM      4  C   UNL     1      42.278   5.489  11.624  0.00  0.00    +0.000 C 
ATOM      5  C   UNL     1      43.051   4.469  12.454  0.00  0.00    +0.000 C 
ATOM      6  C   UNL     1      44.045   5.093  13.448  0.00  0.00    +0.000 C 
ATOM      7  N   UNL     1      45.365   5.346  12.873  0.00  0.00    +0.000 N 
ATOM      8  C   UNL     1      45.776   6.647  12.647  0.00  0.00    +0.000 A 
ATOM      9  C   UNL     1      47.146   6.936  12.668  0.00  0.00    +0.000 A 
ATOM     10  C   UNL     1      47.639   8.231  12.446  0.00  0.00    +0.000 A 
ATOM     11  C   UNL     1      46.680   9.222  12.218  0.00  0.00    +0.000 A 
ATOM     12  C   UNL     1      45.335   8.873  12.227  0.00  0.00    +0.000 A 
ATOM     13  N   UNL     1      44.873   7.623  12.449  0.00  0.00    +0.000 NA
ATOM     14  C   UNL     1      45.913   4.271  12.040  0.00  0.00    +0.000 C 
ATOM     15  C   UNL     1      44.878   3.728  11.034  0.00  0.00    +0.000 C 
ATOM     16  C   UNL     1      44.729   4.584   9.780  0.00  0.00    +0.000 C 
ATOM     17  O   UNL     1      43.614   3.426  11.642  0.00  0.00    +0.000 OA
ENDBRANCH   1  10
BRANCH   1  18
ATOM     18  C   UNL     1      49.681   8.679  13.882  0.00  0.00    +0.000 C 
BRANCH  18  19
ATOM     19  N   UNL     1      50.494   7.538  14.313  0.00  0.00    +0.000 N 
ATOM     20  C   UNL     1      50.134   6.840  15.455  0.00  0.00    +0.000 A 
ATOM     21  C   UNL     1      48.812   6.659  15.883  0.00  0.00    +0.000 A 
ATOM     22  N   UNL     1      48.444   5.949  16.980  0.00  0.00    +0.000 NA
ATOM     23  C   UNL     1      49.484   5.381  17.649  0.00  0.00    +0.000 A 
ATOM     24  C   UNL     1      50.798   5.533  17.236  0.00  0.00    +0.000 A 
ATOM     25  N   UNL     1      51.145   6.271  16.144  0.00  0.00    +0.000 NA
ATOM     26  H   UNL     1      51.503   7.669  14.343  0.00  0.00    +0.000 HD
BRANCH  23  27
ATOM     27  C   UNL     1      49.159   4.574  18.856  0.00  0.00    +0.000 C 
ATOM     28  N   UNL     1      48.125   3.686  18.723  0.00  0.00    +0.000 N 
ATOM     29  O   UNL     1      49.780   4.700  19.904  0.00  0.00    +0.000 OA
ATOM     30  H   UNL     1      47.638   3.599  17.838  0.00  0.00    +0.000 HD
ATOM     31  H   UNL     1      47.869   3.100  19.505  0.00  0.00    +0.000 HD
ENDBRANCH  23  27
ENDBRANCH  18  19
ENDBRANCH   1  18
TORSDOF 4
ENDMDL
MODEL 6
REMARK VINA RESULT:    -6.926      3.477      5.738
REMARK INTER + INTRA:          -8.941
REMARK INTER:                  -8.351
REMARK INTRA:                  -0.590
REMARK UNBOUND:                -0.396
REMARK  Name = 
REMARK  8 active torsions:
REMARK  status: ('A' for Active; 'I' for Inactive)
REMARK    1  A    between atoms: C_1  and  C_2
REMARK    2  A    between atoms: C_7  and  C_8
REMARK    3  A    between atoms: C_8  and  C_9
REMARK    4  A    between atoms: C_8  and  C_10
REMARK    5  A    between atoms: C_8  and  C_11
REMARK    6  A    between atoms: C_11  and  N_12
REMARK    7  A    between atoms: C_16  and  C_17
REMARK    8  A    between atoms: C_26  and  C_27
REMARK                            x       y       z     vdW  Elec       q    Type
REMARK                         _______ _______ _______ _____ _____    ______ ____
ROOT
ATOM      1  C   UNL     1      47.850   8.836  13.179  0.00  0.00    +0.000 C 
ATOM      2  C   UNL     1      47.885  10.357  12.878  0.00  0.00    +0.000 C 
ATOM      3  C   UNL     1      48.627   8.116  12.058  0.00  0.00    +0.000 C 
ENDROOT
BRANCH   1  10
ATOM      4  C   UNL     1      49.789   5.934  19.892  0.00  0.00    +0.000 C 
ATOM      5  C   UNL     1      49.888   4.755  18.929  0.00  0.00    +0.000 C 
ATOM      6  C   UNL     1      50.392   5.133  17.526  0.00  0.00    +0.000 C 
ATOM      7  N   UNL     1      49.327   5.548  16.613  0.00  0.00    +0.000 N 
ATOM      8  C   UNL     1      49.234   6.873  16.227  0.00  0.00    +0.000 A 
ATOM      9  C   UNL     1      48.658   7.175  14.987  0.00  0.00    +0.000 A 
ATOM     10  C   UNL     1      48.527   8.494  14.527  0.00  0.00    +0.000 A 
ATOM     11  C   UNL     1      49.022   9.491  15.373  0.00  0.00    +0.000 A 
ATOM     12  C   UNL     1      49.597   9.123  16.582  0.00  0.00    +0.000 A 
ATOM     13  N   UNL     1      49.724   7.848  17.011  0.00  0.00    +0.000 NA
ATOM     14  C   UNL     1      48.114   4.725  16.637  0.00  0.00    +0.000 C 
ATOM     15  C   UNL     1      47.637   4.429  18.072  0.00  0.00    +0.000 C 
ATOM     16  C   UNL     1      46.843   5.566  18.705  0.00  0.00    +0.000 C 
ATOM     17  O   UNL     1      48.692   3.959  18.925  0.00  0.00    +0.000 OA
ENDBRANCH   1  10
BRANCH   1  18
ATOM     18  C   UNL     1      46.364   8.368  13.208  0.00  0.00    +0.000 C 
BRANCH  18  19
ATOM     19  N   UNL     1      45.857   7.960  11.896  0.00  0.00    +0.000 N 
ATOM     20  C   UNL     1      45.387   6.667  11.722  0.00  0.00    +0.000 A 
ATOM     21  C   UNL     1      44.752   5.918  12.721  0.00  0.00    +0.000 A 
ATOM     22  N   UNL     1      44.257   4.665  12.553  0.00  0.00    +0.000 NA
ATOM     23  C   UNL     1      44.403   4.174  11.293  0.00  0.00    +0.000 A 
ATOM     24  C   UNL     1      45.014   4.901  10.284  0.00  0.00    +0.000 A 
ATOM     25  N   UNL     1      45.524   6.150  10.483  0.00  0.00    +0.000 NA
ATOM     26  H   UNL     1      46.426   8.187  11.083  0.00  0.00    +0.000 HD
BRANCH  23  27
ATOM     27  C   UNL     1      43.872   2.810  11.027  0.00  0.00    +0.000 C 
ATOM     28  N   UNL     1      44.448   2.135   9.984  0.00  0.00    +0.000 N 
ATOM     29  O   UNL     1      42.973   2.324  11.702  0.00  0.00    +0.000 OA
ATOM     30  H   UNL     1      45.198   2.562   9.452  0.00  0.00    +0.000 HD
ATOM     31  H   UNL     1      44.138   1.198   9.766  0.00  0.00    +0.000 HD
ENDBRANCH  23  27
ENDBRANCH  18  19
ENDBRANCH   1  18
TORSDOF 4
ENDMDL
MODEL 7
REMARK VINA RESULT:    -6.065      4.148      7.260
REMARK INTER + INTRA:          -7.878
REMARK INTER:                  -7.341
REMARK INTRA:                  -0.538
REMARK UNBOUND:                -0.396
REMARK  Name = 
REMARK  8 active torsions:
REMARK  status: ('A' for Active; 'I' for Inactive)
REMARK    1  A    between atoms: C_1  and  C_2
REMARK    2  A    between atoms: C_7  and  C_8
REMARK    3  A    between atoms: C_8  and  C_9
REMARK    4  A    between atoms: C_8  and  C_10
REMARK    5  A    between atoms: C_8  and  C_11
REMARK    6  A    between atoms: C_11  and  N_12
REMARK    7  A    between atoms: C_16  and  C_17
REMARK    8  A    between atoms: C_26  and  C_27
REMARK                            x       y       z     vdW  Elec       q    Type
REMARK                         _______ _______ _______ _____ _____    ______ ____
ROOT
ATOM      1  C   UNL     1      49.805   9.025  14.443  0.00  0.00    +0.000 C 
ATOM      2  C   UNL     1      49.121  10.295  15.014  0.00  0.00    +0.000 C 
ATOM      3  C   UNL     1      51.190   9.439  13.904  0.00  0.00    +0.000 C 
ENDROOT
BRANCH   1  10
ATOM      4  C   UNL     1      49.854   4.893  20.781  0.00  0.00    +0.000 C 
ATOM      5  C   UNL     1      48.377   5.002  20.413  0.00  0.00    +0.000 C 
ATOM      6  C   UNL     1      48.106   4.985  18.899  0.00  0.00    +0.000 C 
ATOM      7  N   UNL     1      48.166   6.308  18.279  0.00  0.00    +0.000 N 
ATOM      8  C   UNL     1      49.212   6.620  17.430  0.00  0.00    +0.000 A 
ATOM      9  C   UNL     1      49.003   7.571  16.424  0.00  0.00    +0.000 A 
ATOM     10  C   UNL     1      50.016   7.942  15.526  0.00  0.00    +0.000 A 
ATOM     11  C   UNL     1      51.244   7.292  15.684  0.00  0.00    +0.000 A 
ATOM     12  C   UNL     1      51.380   6.345  16.691  0.00  0.00    +0.000 A 
ATOM     13  N   UNL     1      50.394   5.992  17.545  0.00  0.00    +0.000 NA
ATOM     14  C   UNL     1      47.500   7.386  19.017  0.00  0.00    +0.000 C 
ATOM     15  C   UNL     1      47.857   7.374  20.516  0.00  0.00    +0.000 C 
ATOM     16  C   UNL     1      49.200   8.023  20.836  0.00  0.00    +0.000 C 
ATOM     17  O   UNL     1      47.724   6.074  21.111  0.00  0.00    +0.000 OA
ENDBRANCH   1  10
BRANCH   1  18
ATOM     18  C   UNL     1      48.917   8.453  13.298  0.00  0.00    +0.000 C 
BRANCH  18  19
ATOM     19  N   UNL     1      48.906   6.989  13.246  0.00  0.00    +0.000 N 
ATOM     20  C   UNL     1      47.693   6.320  13.194  0.00  0.00    +0.000 A 
ATOM     21  C   UNL     1      46.545   6.818  12.563  0.00  0.00    +0.000 A 
ATOM     22  N   UNL     1      45.362   6.157  12.475  0.00  0.00    +0.000 NA
ATOM     23  C   UNL     1      45.372   4.921  13.042  0.00  0.00    +0.000 A 
ATOM     24  C   UNL     1      46.499   4.401  13.658  0.00  0.00    +0.000 A 
ATOM     25  N   UNL     1      47.670   5.093  13.754  0.00  0.00    +0.000 NA
ATOM     26  H   UNL     1      49.497   6.493  13.910  0.00  0.00    +0.000 HD
BRANCH  23  27
ATOM     27  C   UNL     1      44.115   4.129  12.974  0.00  0.00    +0.000 C 
ATOM     28  N   UNL     1      44.247   2.825  12.577  0.00  0.00    +0.000 N 
ATOM     29  O   UNL     1      43.027   4.618  13.255  0.00  0.00    +0.000 OA
ATOM     30  H   UNL     1      45.164   2.449  12.361  0.00  0.00    +0.000 HD
ATOM     31  H   UNL     1      43.429   2.235  12.526  0.00  0.00    +0.000 HD
ENDBRANCH  23  27
ENDBRANCH  18  19
ENDBRANCH   1  18
TORSDOF 4
ENDMDL
MODEL 8
REMARK VINA RESULT:    -5.996      3.348      5.927
REMARK INTER + INTRA:          -7.794
REMARK INTER:                  -7.309
REMARK INTRA:                  -0.485
REMARK UNBOUND:                -0.396
REMARK  Name = 
REMARK  8 active torsions:
REMARK  status: ('A' for Active; 'I' for Inactive)
REMARK    1  A    between atoms: C_1  and  C_2
REMARK    2  A    between atoms: C_7  and  C_8
REMARK    3  A    between atoms: C_8  and  C_9
REMARK    4  A    between atoms: C_8  and  C_10
REMARK    5  A    between atoms: C_8  and  C_11
REMARK    6  A    between atoms: C_11  and  N_12
REMARK    7  A    between atoms: C_16  and  C_17
REMARK    8  A    between atoms: C_26  and  C_27
REMARK                            x       y       z     vdW  Elec       q    Type
REMARK                         _______ _______ _______ _____ _____    ______ ____
ROOT
ATOM      1  C   UNL     1      48.061   9.187  12.962  0.00  0.00    +0.000 C 
ATOM      2  C   UNL     1      48.336  10.713  12.910  0.00  0.00    +0.000 C 
ATOM      3  C   UNL     1      48.917   8.517  11.866  0.00  0.00    +0.000 C 
ENDROOT
BRANCH   1  10
ATOM      4  C   UNL     1      50.174   7.944  20.120  0.00  0.00    +0.000 C 
ATOM      5  C   UNL     1      48.861   8.711  20.242  0.00  0.00    +0.000 C 
ATOM      6  C   UNL     1      47.830   8.365  19.154  0.00  0.00    +0.000 C 
ATOM      7  N   UNL     1      47.970   9.168  17.940  0.00  0.00    +0.000 N 
ATOM      8  C   UNL     1      48.429   8.578  16.777  0.00  0.00    +0.000 A 
ATOM      9  C   UNL     1      48.032   9.114  15.546  0.00  0.00    +0.000 A 
ATOM     10  C   UNL     1      48.459   8.571  14.323  0.00  0.00    +0.000 A 
ATOM     11  C   UNL     1      49.291   7.451  14.407  0.00  0.00    +0.000 A 
ATOM     12  C   UNL     1      49.633   6.958  15.659  0.00  0.00    +0.000 A 
ATOM     13  N   UNL     1      49.210   7.485  16.829  0.00  0.00    +0.000 NA
ATOM     14  C   UNL     1      48.195  10.602  18.149  0.00  0.00    +0.000 C 
ATOM     15  C   UNL     1      49.275  10.873  19.214  0.00  0.00    +0.000 C 
ATOM     16  C   UNL     1      50.702  10.755  18.690  0.00  0.00    +0.000 C 
ATOM     17  O   UNL     1      49.073  10.120  20.419  0.00  0.00    +0.000 OA
ENDBRANCH   1  10
BRANCH   1  18
ATOM     18  C   UNL     1      46.544   8.946  12.702  0.00  0.00    +0.000 C 
BRANCH  18  19
ATOM     19  N   UNL     1      46.046   7.696  13.283  0.00  0.00    +0.000 N 
ATOM     20  C   UNL     1      45.557   6.705  12.446  0.00  0.00    +0.000 A 
ATOM     21  C   UNL     1      46.037   6.460  11.153  0.00  0.00    +0.000 A 
ATOM     22  N   UNL     1      45.591   5.470  10.336  0.00  0.00    +0.000 NA
ATOM     23  C   UNL     1      44.626   4.687  10.889  0.00  0.00    +0.000 A 
ATOM     24  C   UNL     1      44.146   4.901  12.171  0.00  0.00    +0.000 A 
ATOM     25  N   UNL     1      44.594   5.916  12.964  0.00  0.00    +0.000 NA
ATOM     26  H   UNL     1      45.406   7.770  14.072  0.00  0.00    +0.000 HD
BRANCH  23  27
ATOM     27  C   UNL     1      44.096   3.572  10.059  0.00  0.00    +0.000 C 
ATOM     28  N   UNL     1      44.160   3.750   8.703  0.00  0.00    +0.000 N 
ATOM     29  O   UNL     1      43.630   2.556  10.562  0.00  0.00    +0.000 OA
ATOM     30  H   UNL     1      44.561   4.598   8.318  0.00  0.00    +0.000 HD
ATOM     31  H   UNL     1      43.828   3.019   8.089  0.00  0.00    +0.000 HD
ENDBRANCH  23  27
ENDBRANCH  18  19
ENDBRANCH   1  18
TORSDOF 4
ENDMDL
MODEL 9
REMARK VINA RESULT:    -5.951      3.308      6.093
REMARK INTER + INTRA:          -7.739
REMARK INTER:                  -7.214
REMARK INTRA:                  -0.525
REMARK UNBOUND:                -0.396
REMARK  Name = 
REMARK  8 active torsions:
REMARK  status: ('A' for Active; 'I' for Inactive)
REMARK    1  A    between atoms: C_1  and  C_2
REMARK    2  A    between atoms: C_7  and  C_8
REMARK    3  A    between atoms: C_8  and  C_9
REMARK    4  A    between atoms: C_8  and  C_10
REMARK    5  A    between atoms: C_8  and  C_11
REMARK    6  A    between atoms: C_11  and  N_12
REMARK    7  A    between atoms: C_16  and  C_17
REMARK    8  A    between atoms: C_26  and  C_27
REMARK                            x       y       z     vdW  Elec       q    Type
REMARK                         _______ _______ _______ _____ _____    ______ ____
ROOT
ATOM      1  C   UNL     1      49.077   7.684  15.448  0.00  0.00    +0.000 C 
ATOM      2  C   UNL     1      48.992   6.547  16.499  0.00  0.00    +0.000 C 
ATOM      3  C   UNL     1      48.608   8.988  16.127  0.00  0.00    +0.000 C 
ENDROOT
BRANCH   1  10
ATOM      4  C   UNL     1      55.373   8.428  11.318  0.00  0.00    +0.000 C 
ATOM      5  C   UNL     1      54.455   9.536  10.810  0.00  0.00    +0.000 C 
ATOM      6  C   UNL     1      53.581  10.176  11.902  0.00  0.00    +0.000 C 
ATOM      7  N   UNL     1      52.312   9.480  12.118  0.00  0.00    +0.000 N 
ATOM      8  C   UNL     1      52.111   8.768  13.286  0.00  0.00    +0.000 A 
ATOM      9  C   UNL     1      50.805   8.611  13.765  0.00  0.00    +0.000 A 
ATOM     10  C   UNL     1      50.522   7.901  14.941  0.00  0.00    +0.000 A 
ATOM     11  C   UNL     1      51.624   7.372  15.619  0.00  0.00    +0.000 A 
ATOM     12  C   UNL     1      52.896   7.579  15.101  0.00  0.00    +0.000 A 
ATOM     13  N   UNL     1      53.156   8.271  13.970  0.00  0.00    +0.000 NA
ATOM     14  C   UNL     1      51.594   9.077  10.905  0.00  0.00    +0.000 C 
ATOM     15  C   UNL     1      52.521   8.398   9.877  0.00  0.00    +0.000 C 
ATOM     16  C   UNL     1      52.793   6.926  10.171  0.00  0.00    +0.000 C 
ATOM     17  O   UNL     1      53.727   9.138   9.638  0.00  0.00    +0.000 OA
ENDBRANCH   1  10
BRANCH   1  18
ATOM     18  C   UNL     1      48.151   7.324  14.248  0.00  0.00    +0.000 C 
BRANCH  18  19
ATOM     19  N   UNL     1      47.645   5.950  14.296  0.00  0.00    +0.000 N 
ATOM     20  C   UNL     1      46.677   5.550  13.387  0.00  0.00    +0.000 A 
ATOM     21  C   UNL     1      46.576   6.040  12.078  0.00  0.00    +0.000 A 
ATOM     22  N   UNL     1      45.654   5.631  11.169  0.00  0.00    +0.000 NA
ATOM     23  C   UNL     1      44.818   4.659  11.622  0.00  0.00    +0.000 A 
ATOM     24  C   UNL     1      44.908   4.148  12.907  0.00  0.00    +0.000 A 
ATOM     25  N   UNL     1      45.828   4.591  13.811  0.00  0.00    +0.000 NA
ATOM     26  H   UNL     1      47.376   5.581  15.206  0.00  0.00    +0.000 HD
BRANCH  23  27
ATOM     27  C   UNL     1      43.789   4.150  10.677  0.00  0.00    +0.000 C 
ATOM     28  N   UNL     1      43.891   4.591   9.384  0.00  0.00    +0.000 N 
ATOM     29  O   UNL     1      42.904   3.382  11.036  0.00  0.00    +0.000 OA
ATOM     30  H   UNL     1      44.642   5.217   9.117  0.00  0.00    +0.000 HD
ATOM     31  H   UNL     1      43.228   4.266   8.694  0.00  0.00    +0.000 HD
ENDBRANCH  23  27
ENDBRANCH  18  19
ENDBRANCH   1  18
TORSDOF 4
ENDMDL
