MODEL 1
REMARK VINA RESULT:    -8.248      0.000      0.000
REMARK INTER + INTRA:         -12.118
REMARK INTER:                 -11.142
REMARK INTRA:                  -0.976
REMARK UNBOUND:                -0.976
REMARK  Name = 
REMARK  7 active torsions:
REMARK  status: ('A' for Active; 'I' for Inactive)
REMARK    1  A    between atoms: C_1  and  C_2
REMARK    2  A    between atoms: C_5  and  C_6
REMARK    3  A    between atoms: N_8  and  C_9
REMARK    4  A    between atoms: C_9  and  C_10
REMARK    5  A    between atoms: C_13  and  C_14
REMARK    6  A    between atoms: C_14  and  N_15
REMARK    7  A    between atoms: C_16  and  C_18
REMARK                            x       y       z     vdW  Elec       q    Type
REMARK                         _______ _______ _______ _____ _____    ______ ____
ROOT
ATOM      1  C   UNL     1      46.232   5.062  13.551  0.00  0.00    +0.000 A 
ATOM      2  C   UNL     1      46.561   4.363  14.720  0.00  0.00    +0.000 A 
ATOM      3  C   UNL     1      47.576   4.823  15.569  0.00  0.00    +0.000 A 
ATOM      4  C   UNL     1      48.273   6.002  15.284  0.00  0.00    +0.000 A 
ATOM      5  C   UNL     1      47.951   6.698  14.110  0.00  0.00    +0.000 A 
ATOM      6  C   UNL     1      46.937   6.238  13.260  0.00  0.00    +0.000 A 
ENDROOT
BRANCH   1   7
ATOM      7  C   UNL     1      45.157   4.558  12.625  0.00  0.00    +0.000 C 
BRANCH   7  10
ATOM      8  C   UNL     1      44.801   3.902  10.282  0.00  0.00    +0.000 C 
ATOM      9  O   UNL     1      43.579   4.002  10.375  0.00  0.00    +0.000 OA
ATOM     10  N   UNL     1      45.658   4.143  11.337  0.00  0.00    +0.000 N 
ATOM     11  H   UNL     1      46.664   4.064  11.182  0.00  0.00    +0.000 HD
BRANCH   8  16
ATOM     12  C   UNL     1      47.313   2.604   5.329  0.00  0.00    +0.000 C 
ATOM     13  C   UNL     1      46.617   2.870   6.626  0.00  0.00    +0.000 A 
ATOM     14  C   UNL     1      46.280   1.841   7.494  0.00  0.00    +0.000 A 
ATOM     15  C   UNL     1      45.669   2.157   8.704  0.00  0.00    +0.000 A 
ATOM     16  C   UNL     1      45.432   3.495   8.991  0.00  0.00    +0.000 A 
ATOM     17  N   UNL     1      45.763   4.483   8.130  0.00  0.00    +0.000 NA
ATOM     18  N   UNL     1      46.367   4.161   6.938  0.00  0.00    +0.000 NA
ENDBRANCH   8  16
ENDBRANCH   7  10
ENDBRANCH   1   7
BRANCH   4  19
ATOM     19  C   UNL     1      49.245   6.575  16.284  0.00  0.00    +0.000 C 
BRANCH  19  20
ATOM     20  N   UNL     1      49.916   5.630  17.150  0.00  0.00    +0.000 N 
ATOM     21  C   UNL     1      51.296   5.567  17.061  0.00  0.00    +0.000 C 
ATOM     22  O   UNL     1      51.905   6.301  16.282  0.00  0.00    +0.000 OA
ATOM     23  H   UNL     1      49.408   5.157  17.895  0.00  0.00    +0.000 HD
BRANCH  21  24
ATOM     24  C   UNL     1      52.030   4.581  17.862  0.00  0.00    +0.000 A 
ATOM     25  C   UNL     1      53.054   5.019  18.697  0.00  0.00    +0.000 A 
ATOM     26  S   UNL     1      53.960   3.759  19.398  0.00  0.00    +0.000 S 
ATOM     27  C   UNL     1      53.061   2.588  18.554  0.00  0.00    +0.000 A 
ATOM     28  N   UNL     1      53.443   1.286  18.539  0.00  0.00    +0.000 NA
ATOM     29  C   UNL     1      52.690   0.518  17.821  0.00  0.00    +0.000 A 
ATOM     30  N   UNL     1      51.544   0.932  17.185  0.00  0.00    +0.000 N 
ATOM     31  C   UNL     1      51.063   2.218  17.265  0.00  0.00    +0.000 A 
ATOM     32  O   UNL     1      49.945   2.527  16.863  0.00  0.00    +0.000 OA
ATOM     33  C   UNL     1      51.975   3.146  17.900  0.00  0.00    +0.000 A 
ATOM     34  H   UNL     1      50.954   0.265  16.721  0.00  0.00    +0.000 HD
ENDBRANCH  21  24
ENDBRANCH  19  20
ENDBRANCH   4  19
TORSDOF 6
ENDMDL
MODEL 2
REMARK VINA RESULT:    -7.869      1.403      1.821
REMARK INTER + INTRA:         -11.605
REMARK INTER:                 -10.738
REMARK INTRA:                  -0.867
REMARK UNBOUND:                -0.976
REMARK  Name = 
REMARK  7 active torsions:
REMARK  status: ('A' for Active; 'I' for Inactive)
REMARK    1  A    between atoms: C_1  and  C_2
REMARK    2  A    between atoms: C_5  and  C_6
REMARK    3  A    between atoms: N_8  and  C_9
REMARK    4  A    between atoms: C_9  and  C_10
REMARK    5  A    between atoms: C_13  and  C_14
REMARK    6  A    between atoms: C_14  and  N_15
REMARK    7  A    between atoms: C_16  and  C_18
REMARK                            x       y       z     vdW  Elec       q    Type
REMARK                         _______ _______ _______ _____ _____    ______ ____
ROOT
ATOM      1  C   UNL     1      45.986   6.835  12.476  0.00  0.00    +0.000 A 
ATOM      2  C   UNL     1      46.133   8.169  12.876  0.00  0.00    +0.000 A 
ATOM      3  C   UNL     1      47.109   8.532  13.813  0.00  0.00    +0.000 A 
ATOM      4  C   UNL     1      47.975   7.578  14.359  0.00  0.00    +0.000 A 
ATOM      5  C   UNL     1      47.822   6.241  13.966  0.00  0.00    +0.000 A 
ATOM      6  C   UNL     1      46.846   5.876  13.029  0.00  0.00    +0.000 A 
ENDROOT
BRANCH   1   7
ATOM      7  C   UNL     1      44.923   6.437  11.485  0.00  0.00    +0.000 C 
BRANCH   7  10
ATOM      8  C   UNL     1      44.986   4.444  10.046  0.00  0.00    +0.000 C 
ATOM      9  O   UNL     1      44.144   3.855  10.720  0.00  0.00    +0.000 OA
ATOM     10  N   UNL     1      45.441   5.711  10.350  0.00  0.00    +0.000 N 
ATOM     11  H   UNL     1      46.126   6.151   9.733  0.00  0.00    +0.000 HD
BRANCH   8  16
ATOM     12  C   UNL     1      47.382   2.206   5.379  0.00  0.00    +0.000 C 
ATOM     13  C   UNL     1      46.710   2.723   6.612  0.00  0.00    +0.000 A 
ATOM     14  C   UNL     1      46.275   1.868   7.614  0.00  0.00    +0.000 A 
ATOM     15  C   UNL     1      45.691   2.413   8.754  0.00  0.00    +0.000 A 
ATOM     16  C   UNL     1      45.581   3.795   8.839  0.00  0.00    +0.000 A 
ATOM     17  N   UNL     1      46.007   4.612   7.850  0.00  0.00    +0.000 NA
ATOM     18  N   UNL     1      46.582   4.064   6.728  0.00  0.00    +0.000 NA
ENDBRANCH   8  16
ENDBRANCH   7  10
ENDBRANCH   1   7
BRANCH   4  19
ATOM     19  C   UNL     1      49.123   8.003  15.236  0.00  0.00    +0.000 C 
BRANCH  19  20
ATOM     20  N   UNL     1      50.013   6.957  15.693  0.00  0.00    +0.000 N 
ATOM     21  C   UNL     1      49.837   6.504  16.988  0.00  0.00    +0.000 C 
ATOM     22  O   UNL     1      48.947   6.974  17.698  0.00  0.00    +0.000 OA
ATOM     23  H   UNL     1      50.627   6.477  15.038  0.00  0.00    +0.000 HD
BRANCH  21  24
ATOM     24  C   UNL     1      50.751   5.494  17.535  0.00  0.00    +0.000 A 
ATOM     25  C   UNL     1      51.983   5.904  18.038  0.00  0.00    +0.000 A 
ATOM     26  S   UNL     1      53.027   4.619  18.438  0.00  0.00    +0.000 S 
ATOM     27  C   UNL     1      51.896   3.475  17.885  0.00  0.00    +0.000 A 
ATOM     28  N   UNL     1      52.229   2.166  17.752  0.00  0.00    +0.000 NA
ATOM     29  C   UNL     1      51.283   1.420  17.281  0.00  0.00    +0.000 A 
ATOM     30  N   UNL     1      50.011   1.863  17.008  0.00  0.00    +0.000 N 
ATOM     31  C   UNL     1      49.602   3.157  17.232  0.00  0.00    +0.000 A 
ATOM     32  O   UNL     1      48.422   3.492  17.175  0.00  0.00    +0.000 OA
ATOM     33  C   UNL     1      50.679   4.060  17.579  0.00  0.00    +0.000 A 
ATOM     34  H   UNL     1      49.298   1.214  16.733  0.00  0.00    +0.000 HD
ENDBRANCH  21  24
ENDBRANCH  19  20
ENDBRANCH   4  19
TORSDOF 6
ENDMDL
MODEL 3
REMARK VINA RESULT:    -6.843      5.883      8.808
REMARK INTER + INTRA:         -10.220
REMARK INTER:                  -9.243
REMARK INTRA:                  -0.976
REMARK UNBOUND:                -0.976
REMARK  Name = 
REMARK  7 active torsions:
REMARK  status: ('A' for Active; 'I' for Inactive)
REMARK    1  A    between atoms: C_1  and  C_2
REMARK    2  A    between atoms: C_5  and  C_6
REMARK    3  A    between atoms: N_8  and  C_9
REMARK    4  A    between atoms: C_9  and  C_10
REMARK    5  A    between atoms: C_13  and  C_14
REMARK    6  A    between atoms: C_14  and  N_15
REMARK    7  A    between atoms: C_16  and  C_18
REMARK                            x       y       z     vdW  Elec       q    Type
REMARK                         _______ _______ _______ _____ _____    ______ ____
ROOT
ATOM      1  C   UNL     1      50.658   8.766  11.251  0.00  0.00    +0.000 A 
ATOM      2  C   UNL     1      49.773   9.843  11.390  0.00  0.00    +0.000 A 
ATOM      3  C   UNL     1      48.443   9.631  11.777  0.00  0.00    +0.000 A 
ATOM      4  C   UNL     1      47.969   8.345  12.054  0.00  0.00    +0.000 A 
ATOM      5  C   UNL     1      48.852   7.266  11.907  0.00  0.00    +0.000 A 
ATOM      6  C   UNL     1      50.182   7.475  11.519  0.00  0.00    +0.000 A 
ENDROOT
BRANCH   1   7
ATOM      7  C   UNL     1      52.083   8.987  10.814  0.00  0.00    +0.000 C 
BRANCH   7  10
ATOM      8  C   UNL     1      52.896   8.254   8.612  0.00  0.00    +0.000 C 
ATOM      9  O   UNL     1      52.768   9.375   8.123  0.00  0.00    +0.000 OA
ATOM     10  N   UNL     1      52.574   7.963   9.922  0.00  0.00    +0.000 N 
ATOM     11  H   UNL     1      52.727   7.015  10.269  0.00  0.00    +0.000 HD
BRANCH   8  16
ATOM     12  C   UNL     1      54.611   3.912   5.335  0.00  0.00    +0.000 C 
ATOM     13  C   UNL     1      54.233   5.046   6.236  0.00  0.00    +0.000 A 
ATOM     14  C   UNL     1      55.191   5.875   6.800  0.00  0.00    +0.000 A 
ATOM     15  C   UNL     1      54.774   6.936   7.599  0.00  0.00    +0.000 A 
ATOM     16  C   UNL     1      53.410   7.121   7.786  0.00  0.00    +0.000 A 
ATOM     17  N   UNL     1      52.491   6.299   7.232  0.00  0.00    +0.000 NA
ATOM     18  N   UNL     1      52.914   5.254   6.445  0.00  0.00    +0.000 NA
ENDBRANCH   8  16
ENDBRANCH   7  10
ENDBRANCH   1   7
BRANCH   4  19
ATOM     19  C   UNL     1      46.590   8.147  12.627  0.00  0.00    +0.000 C 
BRANCH  19  20
ATOM     20  N   UNL     1      45.751   7.163  11.975  0.00  0.00    +0.000 N 
ATOM     21  C   UNL     1      45.694   5.907  12.552  0.00  0.00    +0.000 C 
ATOM     22  O   UNL     1      46.325   5.662  13.580  0.00  0.00    +0.000 OA
ATOM     23  H   UNL     1      45.118   7.436  11.226  0.00  0.00    +0.000 HD
BRANCH  21  24
ATOM     24  C   UNL     1      44.918   4.845  11.900  0.00  0.00    +0.000 A 
ATOM     25  C   UNL     1      44.056   4.071  12.672  0.00  0.00    +0.000 A 
ATOM     26  S   UNL     1      43.386   2.744  11.839  0.00  0.00    +0.000 S 
ATOM     27  C   UNL     1      44.281   3.119  10.442  0.00  0.00    +0.000 A 
ATOM     28  N   UNL     1      44.334   2.261   9.391  0.00  0.00    +0.000 NA
ATOM     29  C   UNL     1      45.086   2.658   8.417  0.00  0.00    +0.000 A 
ATOM     30  N   UNL     1      45.723   3.875   8.376  0.00  0.00    +0.000 N 
ATOM     31  C   UNL     1      45.605   4.818   9.370  0.00  0.00    +0.000 A 
ATOM     32  O   UNL     1      46.010   5.969   9.235  0.00  0.00    +0.000 OA
ATOM     33  C   UNL     1      44.928   4.338  10.556  0.00  0.00    +0.000 A 
ATOM     34  H   UNL     1      46.215   4.160   7.550  0.00  0.00    +0.000 HD
ENDBRANCH  21  24
ENDBRANCH  19  20
ENDBRANCH   4  19
TORSDOF 6
ENDMDL
MODEL 4
REMARK VINA RESULT:    -6.803      1.941      2.678
REMARK INTER + INTRA:         -10.165
REMARK INTER:                  -9.233
REMARK INTRA:                  -0.933
REMARK UNBOUND:                -0.976
REMARK  Name = 
REMARK  7 active torsions:
REMARK  status: ('A' for Active; 'I' for Inactive)
REMARK    1  A    between atoms: C_1  and  C_2
REMARK    2  A    between atoms: C_5  and  C_6
REMARK    3  A    between atoms: N_8  and  C_9
REMARK    4  A    between atoms: C_9  and  C_10
REMARK    5  A    between atoms: C_13  and  C_14
REMARK    6  A    between atoms: C_14  and  N_15
REMARK    7  A    between atoms: C_16  and  C_18
REMARK                            x       y       z     vdW  Elec       q    Type
REMARK                         _______ _______ _______ _____ _____    ______ ____
ROOT
ATOM      1  C   UNL     1      45.927   6.208  13.010  0.00  0.00    +0.000 A 
ATOM      2  C   UNL     1      45.748   7.590  12.868  0.00  0.00    +0.000 A 
ATOM      3  C   UNL     1      46.640   8.492  13.463  0.00  0.00    +0.000 A 
ATOM      4  C   UNL     1      47.743   8.039  14.195  0.00  0.00    +0.000 A 
ATOM      5  C   UNL     1      47.917   6.656  14.345  0.00  0.00    +0.000 A 
ATOM      6  C   UNL     1      47.026   5.752  13.752  0.00  0.00    +0.000 A 
ENDROOT
BRANCH   1   7
ATOM      7  C   UNL     1      44.958   5.235  12.391  0.00  0.00    +0.000 C 
BRANCH   7  10
ATOM      8  C   UNL     1      44.723   4.447  10.073  0.00  0.00    +0.000 C 
ATOM      9  O   UNL     1      43.570   4.864   9.983  0.00  0.00    +0.000 OA
ATOM     10  N   UNL     1      45.481   4.572  11.220  0.00  0.00    +0.000 N 
ATOM     11  H   UNL     1      46.440   4.223  11.217  0.00  0.00    +0.000 HD
BRANCH   8  16
ATOM     12  C   UNL     1      47.318   2.057   5.592  0.00  0.00    +0.000 C 
ATOM     13  C   UNL     1      46.597   2.613   6.779  0.00  0.00    +0.000 A 
ATOM     14  C   UNL     1      46.176   1.798   7.819  0.00  0.00    +0.000 A 
ATOM     15  C   UNL     1      45.544   2.380   8.914  0.00  0.00    +0.000 A 
ATOM     16  C   UNL     1      45.372   3.758   8.918  0.00  0.00    +0.000 A 
ATOM     17  N   UNL     1      45.784   4.536   7.892  0.00  0.00    +0.000 NA
ATOM     18  N   UNL     1      46.408   3.951   6.815  0.00  0.00    +0.000 NA
ENDBRANCH   8  16
ENDBRANCH   7  10
ENDBRANCH   1   7
BRANCH   4  19
ATOM     19  C   UNL     1      48.783   9.010  14.689  0.00  0.00    +0.000 C 
BRANCH  19  20
ATOM     20  N   UNL     1      49.827   8.470  15.533  0.00  0.00    +0.000 N 
ATOM     21  C   UNL     1      50.998   8.078  14.909  0.00  0.00    +0.000 C 
ATOM     22  O   UNL     1      51.129   8.204  13.691  0.00  0.00    +0.000 OA
ATOM     23  H   UNL     1      49.756   8.528  16.547  0.00  0.00    +0.000 HD
BRANCH  21  24
ATOM     24  C   UNL     1      52.068   7.457  15.699  0.00  0.00    +0.000 A 
ATOM     25  C   UNL     1      53.376   7.903  15.530  0.00  0.00    +0.000 A 
ATOM     26  S   UNL     1      54.538   6.958  16.341  0.00  0.00    +0.000 S 
ATOM     27  C   UNL     1      53.340   5.881  16.887  0.00  0.00    +0.000 A 
ATOM     28  N   UNL     1      53.670   4.708  17.485  0.00  0.00    +0.000 NA
ATOM     29  C   UNL     1      52.658   3.971  17.809  0.00  0.00    +0.000 A 
ATOM     30  N   UNL     1      51.345   4.348  17.654  0.00  0.00    +0.000 N 
ATOM     31  C   UNL     1      50.969   5.573  17.155  0.00  0.00    +0.000 A 
ATOM     32  O   UNL     1      49.810   5.976  17.206  0.00  0.00    +0.000 OA
ATOM     33  C   UNL     1      52.065   6.345  16.609  0.00  0.00    +0.000 A 
ATOM     34  H   UNL     1      50.608   3.769  18.012  0.00  0.00    +0.000 HD
ENDBRANCH  21  24
ENDBRANCH  19  20
ENDBRANCH   4  19
TORSDOF 6
ENDMDL
MODEL 5
REMARK VINA RESULT:    -6.591      3.422      4.092
REMARK INTER + INTRA:          -9.879
REMARK INTER:                  -8.967
REMARK INTRA:                  -0.912
REMARK UNBOUND:                -0.976
REMARK  Name = 
REMARK  7 active torsions:
REMARK  status: ('A' for Active; 'I' for Inactive)
REMARK    1  A    between atoms: C_1  and  C_2
REMARK    2  A    between atoms: C_5  and  C_6
REMARK    3  A    between atoms: N_8  and  C_9
REMARK    4  A    between atoms: C_9  and  C_10
REMARK    5  A    between atoms: C_13  and  C_14
REMARK    6  A    between atoms: C_14  and  N_15
REMARK    7  A    between atoms: C_16  and  C_18
REMARK                            x       y       z     vdW  Elec       q    Type
REMARK                         _______ _______ _______ _____ _____    ______ ____
ROOT
ATOM      1  C   UNL     1      45.529   5.296  12.569  0.00  0.00    +0.000 A 
ATOM      2  C   UNL     1      44.945   6.556  12.381  0.00  0.00    +0.000 A 
ATOM      3  C   UNL     1      45.544   7.708  12.905  0.00  0.00    +0.000 A 
ATOM      4  C   UNL     1      46.750   7.637  13.610  0.00  0.00    +0.000 A 
ATOM      5  C   UNL     1      47.330   6.376  13.807  0.00  0.00    +0.000 A 
ATOM      6  C   UNL     1      46.732   5.222  13.285  0.00  0.00    +0.000 A 
ENDROOT
BRANCH   1   7
ATOM      7  C   UNL     1      44.876   4.052  12.027  0.00  0.00    +0.000 C 
BRANCH   7  10
ATOM      8  C   UNL     1      44.918   3.851   9.576  0.00  0.00    +0.000 C 
ATOM      9  O   UNL     1      43.877   4.492   9.444  0.00  0.00    +0.000 OA
ATOM     10  N   UNL     1      45.480   3.574  10.806  0.00  0.00    +0.000 N 
ATOM     11  H   UNL     1      46.359   3.056  10.841  0.00  0.00    +0.000 HD
BRANCH   8  16
ATOM     12  C   UNL     1      47.748   2.082   4.952  0.00  0.00    +0.000 C 
ATOM     13  C   UNL     1      46.976   2.470   6.172  0.00  0.00    +0.000 A 
ATOM     14  C   UNL     1      46.683   1.550   7.169  0.00  0.00    +0.000 A 
ATOM     15  C   UNL     1      45.993   1.980   8.299  0.00  0.00    +0.000 A 
ATOM     16  C   UNL     1      45.638   3.320   8.380  0.00  0.00    +0.000 A 
ATOM     17  N   UNL     1      45.927   4.201   7.396  0.00  0.00    +0.000 NA
ATOM     18  N   UNL     1      46.608   3.766   6.284  0.00  0.00    +0.000 NA
ENDBRANCH   8  16
ENDBRANCH   7  10
ENDBRANCH   1   7
BRANCH   4  19
ATOM     19  C   UNL     1      47.468   8.895  14.024  0.00  0.00    +0.000 C 
BRANCH  19  20
ATOM     20  N   UNL     1      47.596   9.132  15.446  0.00  0.00    +0.000 N 
ATOM     21  C   UNL     1      48.826   8.864  16.020  0.00  0.00    +0.000 C 
ATOM     22  O   UNL     1      49.761   8.456  15.329  0.00  0.00    +0.000 OA
ATOM     23  H   UNL     1      46.863   9.619  15.959  0.00  0.00    +0.000 HD
BRANCH  21  24
ATOM     24  C   UNL     1      49.000   9.016  17.469  0.00  0.00    +0.000 A 
ATOM     25  C   UNL     1      49.222  10.287  17.991  0.00  0.00    +0.000 A 
ATOM     26  S   UNL     1      49.621  10.293  19.647  0.00  0.00    +0.000 S 
ATOM     27  C   UNL     1      49.579   8.594  19.705  0.00  0.00    +0.000 A 
ATOM     28  N   UNL     1      50.024   7.917  20.794  0.00  0.00    +0.000 NA
ATOM     29  C   UNL     1      49.972   6.630  20.680  0.00  0.00    +0.000 A 
ATOM     30  N   UNL     1      49.439   5.969  19.599  0.00  0.00    +0.000 N 
ATOM     31  C   UNL     1      48.879   6.618  18.523  0.00  0.00    +0.000 A 
ATOM     32  O   UNL     1      48.233   6.027  17.663  0.00  0.00    +0.000 OA
ATOM     33  C   UNL     1      49.087   8.050  18.530  0.00  0.00    +0.000 A 
ATOM     34  H   UNL     1      49.344   4.970  19.613  0.00  0.00    +0.000 HD
ENDBRANCH  21  24
ENDBRANCH  19  20
ENDBRANCH   4  19
TORSDOF 6
ENDMDL
MODEL 6
REMARK VINA RESULT:    -6.528      3.738     10.074
REMARK INTER + INTRA:          -9.794
REMARK INTER:                  -9.050
REMARK INTRA:                  -0.744
REMARK UNBOUND:                -0.976
REMARK  Name = 
REMARK  7 active torsions:
REMARK  status: ('A' for Active; 'I' for Inactive)
REMARK    1  A    between atoms: C_1  and  C_2
REMARK    2  A    between atoms: C_5  and  C_6
REMARK    3  A    between atoms: N_8  and  C_9
REMARK    4  A    between atoms: C_9  and  C_10
REMARK    5  A    between atoms: C_13  and  C_14
REMARK    6  A    between atoms: C_14  and  N_15
REMARK    7  A    between atoms: C_16  and  C_18
REMARK                            x       y       z     vdW  Elec       q    Type
REMARK                         _______ _______ _______ _____ _____    ______ ____
ROOT
ATOM      1  C   UNL     1      46.626   7.290  12.986  0.00  0.00    +0.000 A 
ATOM      2  C   UNL     1      46.462   5.907  13.140  0.00  0.00    +0.000 A 
ATOM      3  C   UNL     1      45.483   5.217  12.413  0.00  0.00    +0.000 A 
ATOM      4  C   UNL     1      44.658   5.884  11.501  0.00  0.00    +0.000 A 
ATOM      5  C   UNL     1      44.816   7.270  11.353  0.00  0.00    +0.000 A 
ATOM      6  C   UNL     1      45.793   7.962  12.080  0.00  0.00    +0.000 A 
ENDROOT
BRANCH   1   7
ATOM      7  C   UNL     1      47.662   8.039  13.782  0.00  0.00    +0.000 C 
BRANCH   7  10
ATOM      8  C   UNL     1      49.128   6.957  15.434  0.00  0.00    +0.000 C 
ATOM      9  O   UNL     1      50.080   6.920  14.657  0.00  0.00    +0.000 OA
ATOM     10  N   UNL     1      47.896   7.476  15.091  0.00  0.00    +0.000 N 
ATOM     11  H   UNL     1      47.156   7.496  15.794  0.00  0.00    +0.000 HD
BRANCH   8  16
ATOM     12  C   UNL     1      49.873   4.781  20.653  0.00  0.00    +0.000 C 
ATOM     13  C   UNL     1      49.602   5.375  19.307  0.00  0.00    +0.000 A 
ATOM     14  C   UNL     1      48.737   6.448  19.149  0.00  0.00    +0.000 A 
ATOM     15  C   UNL     1      48.555   6.981  17.876  0.00  0.00    +0.000 A 
ATOM     16  C   UNL     1      49.260   6.417  16.821  0.00  0.00    +0.000 A 
ATOM     17  N   UNL     1      50.094   5.367  16.994  0.00  0.00    +0.000 NA
ATOM     18  N   UNL     1      50.267   4.848  18.255  0.00  0.00    +0.000 NA
ENDBRANCH   8  16
ENDBRANCH   7  10
ENDBRANCH   1   7
BRANCH   4  19
ATOM     19  C   UNL     1      43.725   5.109  10.607  0.00  0.00    +0.000 C 
BRANCH  19  20
ATOM     20  N   UNL     1      44.335   4.330   9.551  0.00  0.00    +0.000 N 
ATOM     21  C   UNL     1      44.575   2.994   9.816  0.00  0.00    +0.000 C 
ATOM     22  O   UNL     1      44.263   2.507  10.903  0.00  0.00    +0.000 OA
ATOM     23  H   UNL     1      44.432   4.714   8.613  0.00  0.00    +0.000 HD
BRANCH  21  24
ATOM     24  C   UNL     1      45.255   2.166   8.813  0.00  0.00    +0.000 A 
ATOM     25  C   UNL     1      45.031   0.792   8.809  0.00  0.00    +0.000 A 
ATOM     26  S   UNL     1      46.042  -0.069   7.741  0.00  0.00    +0.000 S 
ATOM     27  C   UNL     1      46.860   1.356   7.302  0.00  0.00    +0.000 A 
ATOM     28  N   UNL     1      47.994   1.313   6.558  0.00  0.00    +0.000 NA
ATOM     29  C   UNL     1      48.531   2.470   6.338  0.00  0.00    +0.000 A 
ATOM     30  N   UNL     1      47.983   3.666   6.733  0.00  0.00    +0.000 N 
ATOM     31  C   UNL     1      46.779   3.759   7.393  0.00  0.00    +0.000 A 
ATOM     32  O   UNL     1      46.205   4.831   7.564  0.00  0.00    +0.000 OA
ATOM     33  C   UNL     1      46.245   2.484   7.821  0.00  0.00    +0.000 A 
ATOM     34  H   UNL     1      48.401   4.532   6.449  0.00  0.00    +0.000 HD
ENDBRANCH  21  24
ENDBRANCH  19  20
ENDBRANCH   4  19
TORSDOF 6
ENDMDL
MODEL 7
REMARK VINA RESULT:    -6.488      2.035      2.765
REMARK INTER + INTRA:          -9.740
REMARK INTER:                  -8.821
REMARK INTRA:                  -0.919
REMARK UNBOUND:                -0.976
REMARK  Name = 
REMARK  7 active torsions:
REMARK  status: ('A' for Active; 'I' for Inactive)
REMARK    1  A    between atoms: C_1  and  C_2
REMARK    2  A    between atoms: C_5  and  C_6
REMARK    3  A    between atoms: N_8  and  C_9
REMARK    4  A    between atoms: C_9  and  C_10
REMARK    5  A    between atoms: C_13  and  C_14
REMARK    6  A    between atoms: C_14  and  N_15
REMARK    7  A    between atoms: C_16  and  C_18
REMARK                            x       y       z     vdW  Elec       q    Type
REMARK                         _______ _______ _______ _____ _____    ______ ____
ROOT
ATOM      1  C   UNL     1      48.308   7.824  13.422  0.00  0.00    +0.000 A 
ATOM      2  C   UNL     1      49.458   8.526  13.038  0.00  0.00    +0.000 A 
ATOM      3  C   UNL     1      50.625   8.467  13.810  0.00  0.00    +0.000 A 
ATOM      4  C   UNL     1      50.681   7.690  14.973  0.00  0.00    +0.000 A 
ATOM      5  C   UNL     1      49.528   6.995  15.363  0.00  0.00    +0.000 A 
ATOM      6  C   UNL     1      48.359   7.054  14.592  0.00  0.00    +0.000 A 
ENDROOT
BRANCH   1   7
ATOM      7  C   UNL     1      47.045   7.904  12.605  0.00  0.00    +0.000 C 
BRANCH   7  10
ATOM      8  C   UNL     1      45.519   6.494  11.289  0.00  0.00    +0.000 C 
ATOM      9  O   UNL     1      44.613   7.325  11.335  0.00  0.00    +0.000 OA
ATOM     10  N   UNL     1      46.745   6.684  11.894  0.00  0.00    +0.000 N 
ATOM     11  H   UNL     1      47.460   5.962  11.796  0.00  0.00    +0.000 HD
BRANCH   8  16
ATOM     12  C   UNL     1      44.608   1.478   8.732  0.00  0.00    +0.000 C 
ATOM     13  C   UNL     1      44.906   2.809   9.347  0.00  0.00    +0.000 A 
ATOM     14  C   UNL     1      45.389   3.866   8.590  0.00  0.00    +0.000 A 
ATOM     15  C   UNL     1      45.610   5.092   9.212  0.00  0.00    +0.000 A 
ATOM     16  C   UNL     1      45.326   5.201  10.567  0.00  0.00    +0.000 A 
ATOM     17  N   UNL     1      44.860   4.158  11.290  0.00  0.00    +0.000 NA
ATOM     18  N   UNL     1      44.645   2.952  10.665  0.00  0.00    +0.000 NA
ENDBRANCH   8  16
ENDBRANCH   7  10
ENDBRANCH   1   7
BRANCH   4  19
ATOM     19  C   UNL     1      51.985   7.502  15.703  0.00  0.00    +0.000 C 
BRANCH  19  20
ATOM     20  N   UNL     1      52.240   6.186  16.249  0.00  0.00    +0.000 N 
ATOM     21  C   UNL     1      52.459   6.104  17.613  0.00  0.00    +0.000 C 
ATOM     22  O   UNL     1      52.420   7.116  18.313  0.00  0.00    +0.000 OA
ATOM     23  H   UNL     1      52.106   5.353  15.679  0.00  0.00    +0.000 HD
BRANCH  21  24
ATOM     24  C   UNL     1      52.792   4.809  18.218  0.00  0.00    +0.000 A 
ATOM     25  C   UNL     1      53.920   4.714  19.028  0.00  0.00    +0.000 A 
ATOM     26  S   UNL     1      54.309   3.120  19.485  0.00  0.00    +0.000 S 
ATOM     27  C   UNL     1      53.027   2.498  18.558  0.00  0.00    +0.000 A 
ATOM     28  N   UNL     1      52.901   1.164  18.340  0.00  0.00    +0.000 NA
ATOM     29  C   UNL     1      51.904   0.840  17.582  0.00  0.00    +0.000 A 
ATOM     30  N   UNL     1      50.981   1.732  17.092  0.00  0.00    +0.000 N 
ATOM     31  C   UNL     1      51.010   3.077  17.380  0.00  0.00    +0.000 A 
ATOM     32  O   UNL     1      50.079   3.828  17.105  0.00  0.00    +0.000 OA
ATOM     33  C   UNL     1      52.211   3.503  18.066  0.00  0.00    +0.000 A 
ATOM     34  H   UNL     1      50.179   1.404  16.587  0.00  0.00    +0.000 HD
ENDBRANCH  21  24
ENDBRANCH  19  20
ENDBRANCH   4  19
TORSDOF 6
ENDMDL
MODEL 8
REMARK VINA RESULT:    -6.469      5.063      5.983
REMARK INTER + INTRA:          -9.714
REMARK INTER:                  -8.881
REMARK INTRA:                  -0.833
REMARK UNBOUND:                -0.976
REMARK  Name = 
REMARK  7 active torsions:
REMARK  status: ('A' for Active; 'I' for Inactive)
REMARK    1  A    between atoms: C_1  and  C_2
REMARK    2  A    between atoms: C_5  and  C_6
REMARK    3  A    between atoms: N_8  and  C_9
REMARK    4  A    between atoms: C_9  and  C_10
REMARK    5  A    between atoms: C_13  and  C_14
REMARK    6  A    between atoms: C_14  and  N_15
REMARK    7  A    between atoms: C_16  and  C_18
REMARK                            x       y       z     vdW  Elec       q    Type
REMARK                         _______ _______ _______ _____ _____    ______ ____
ROOT
ATOM      1  C   UNL     1      45.830   6.571  12.876  0.00  0.00    +0.000 A 
ATOM      2  C   UNL     1      47.076   6.208  13.404  0.00  0.00    +0.000 A 
ATOM      3  C   UNL     1      47.956   7.181  13.897  0.00  0.00    +0.000 A 
ATOM      4  C   UNL     1      47.607   8.536  13.894  0.00  0.00    +0.000 A 
ATOM      5  C   UNL     1      46.364   8.900  13.357  0.00  0.00    +0.000 A 
ATOM      6  C   UNL     1      45.484   7.929  12.863  0.00  0.00    +0.000 A 
ENDROOT
BRANCH   1   7
ATOM      7  C   UNL     1      44.891   5.530  12.325  0.00  0.00    +0.000 C 
BRANCH   7  10
ATOM      8  C   UNL     1      44.658   4.545  10.083  0.00  0.00    +0.000 C 
ATOM      9  O   UNL     1      43.477   4.877   9.993  0.00  0.00    +0.000 OA
ATOM     10  N   UNL     1      45.431   4.812  11.195  0.00  0.00    +0.000 N 
ATOM     11  H   UNL     1      46.412   4.528  11.193  0.00  0.00    +0.000 HD
BRANCH   8  16
ATOM     12  C   UNL     1      47.333   1.976   5.751  0.00  0.00    +0.000 C 
ATOM     13  C   UNL     1      46.589   2.580   6.900  0.00  0.00    +0.000 A 
ATOM     14  C   UNL     1      46.116   1.803   7.947  0.00  0.00    +0.000 A 
ATOM     15  C   UNL     1      45.464   2.429   9.006  0.00  0.00    +0.000 A 
ATOM     16  C   UNL     1      45.326   3.810   8.968  0.00  0.00    +0.000 A 
ATOM     17  N   UNL     1      45.789   4.550   7.936  0.00  0.00    +0.000 NA
ATOM     18  N   UNL     1      46.432   3.922   6.895  0.00  0.00    +0.000 NA
ENDBRANCH   8  16
ENDBRANCH   7  10
ENDBRANCH   1   7
BRANCH   4  19
ATOM     19  C   UNL     1      48.487   9.552  14.575  0.00  0.00    +0.000 C 
BRANCH  19  20
ATOM     20  N   UNL     1      49.887   9.549  14.207  0.00  0.00    +0.000 N 
ATOM     21  C   UNL     1      50.240  10.260  13.075  0.00  0.00    +0.000 C 
ATOM     22  O   UNL     1      49.388  10.873  12.431  0.00  0.00    +0.000 OA
ATOM     23  H   UNL     1      50.588   9.172  14.842  0.00  0.00    +0.000 HD
BRANCH  21  24
ATOM     24  C   UNL     1      51.632  10.239  12.609  0.00  0.00    +0.000 A 
ATOM     25  C   UNL     1      52.526  11.177  13.115  0.00  0.00    +0.000 A 
ATOM     26  S   UNL     1      54.040  11.179  12.335  0.00  0.00    +0.000 S 
ATOM     27  C   UNL     1      53.527   9.975  11.249  0.00  0.00    +0.000 A 
ATOM     28  N   UNL     1      54.277   9.639  10.168  0.00  0.00    +0.000 NA
ATOM     29  C   UNL     1      53.742   8.739   9.408  0.00  0.00    +0.000 A 
ATOM     30  N   UNL     1      52.560   8.096   9.683  0.00  0.00    +0.000 N 
ATOM     31  C   UNL     1      51.825   8.328  10.823  0.00  0.00    +0.000 A 
ATOM     32  O   UNL     1      50.884   7.614  11.156  0.00  0.00    +0.000 OA
ATOM     33  C   UNL     1      52.292   9.457  11.600  0.00  0.00    +0.000 A 
ATOM     34  H   UNL     1      52.247   7.341   9.100  0.00  0.00    +0.000 HD
ENDBRANCH  21  24
ENDBRANCH  19  20
ENDBRANCH   4  19
TORSDOF 6
ENDMDL
MODEL 9
REMARK VINA RESULT:    -6.324      5.580      8.937
REMARK INTER + INTRA:          -9.518
REMARK INTER:                  -8.664
REMARK INTRA:                  -0.854
REMARK UNBOUND:                -0.976
REMARK  Name = 
REMARK  7 active torsions:
REMARK  status: ('A' for Active; 'I' for Inactive)
REMARK    1  A    between atoms: C_1  and  C_2
REMARK    2  A    between atoms: C_5  and  C_6
REMARK    3  A    between atoms: N_8  and  C_9
REMARK    4  A    between atoms: C_9  and  C_10
REMARK    5  A    between atoms: C_13  and  C_14
REMARK    6  A    between atoms: C_14  and  N_15
REMARK    7  A    between atoms: C_16  and  C_18
REMARK                            x       y       z     vdW  Elec       q    Type
REMARK                         _______ _______ _______ _____ _____    ______ ____
ROOT
ATOM      1  C   UNL     1      51.090   8.185  12.190  0.00  0.00    +0.000 A 
ATOM      2  C   UNL     1      50.672   8.398  13.510  0.00  0.00    +0.000 A 
ATOM      3  C   UNL     1      49.326   8.246  13.869  0.00  0.00    +0.000 A 
ATOM      4  C   UNL     1      48.368   7.858  12.926  0.00  0.00    +0.000 A 
ATOM      5  C   UNL     1      48.784   7.653  11.603  0.00  0.00    +0.000 A 
ATOM      6  C   UNL     1      50.129   7.805  11.242  0.00  0.00    +0.000 A 
ENDROOT
BRANCH   1   7
ATOM      7  C   UNL     1      52.532   8.369  11.796  0.00  0.00    +0.000 C 
BRANCH   7  10
ATOM      8  C   UNL     1      53.202   7.616   9.553  0.00  0.00    +0.000 C 
ATOM      9  O   UNL     1      53.527   6.501   9.957  0.00  0.00    +0.000 OA
ATOM     10  N   UNL     1      52.714   8.605  10.384  0.00  0.00    +0.000 N 
ATOM     11  H   UNL     1      52.442   9.501   9.977  0.00  0.00    +0.000 HD
BRANCH   8  16
ATOM     12  C   UNL     1      53.581   8.714   3.969  0.00  0.00    +0.000 C 
ATOM     13  C   UNL     1      53.528   8.493   5.448  0.00  0.00    +0.000 A 
ATOM     14  C   UNL     1      53.607   9.550   6.343  0.00  0.00    +0.000 A 
ATOM     15  C   UNL     1      53.513   9.284   7.706  0.00  0.00    +0.000 A 
ATOM     16  C   UNL     1      53.334   7.966   8.107  0.00  0.00    +0.000 A 
ATOM     17  N   UNL     1      53.264   6.949   7.220  0.00  0.00    +0.000 NA
ATOM     18  N   UNL     1      53.358   7.222   5.876  0.00  0.00    +0.000 NA
ENDBRANCH   8  16
ENDBRANCH   7  10
ENDBRANCH   1   7
BRANCH   4  19
ATOM     19  C   UNL     1      46.960   7.538  13.355  0.00  0.00    +0.000 C 
BRANCH  19  20
ATOM     20  N   UNL     1      46.412   6.279  12.898  0.00  0.00    +0.000 N 
ATOM     21  C   UNL     1      45.391   6.341  11.966  0.00  0.00    +0.000 C 
ATOM     22  O   UNL     1      44.992   7.428  11.548  0.00  0.00    +0.000 OA
ATOM     23  H   UNL     1      46.866   5.399  13.135  0.00  0.00    +0.000 HD
BRANCH  21  24
ATOM     24  C   UNL     1      44.745   5.103  11.515  0.00  0.00    +0.000 A 
ATOM     25  C   UNL     1      43.887   4.435  12.384  0.00  0.00    +0.000 A 
ATOM     26  S   UNL     1      43.380   2.911  11.818  0.00  0.00    +0.000 S 
ATOM     27  C   UNL     1      44.345   3.062  10.426  0.00  0.00    +0.000 A 
ATOM     28  N   UNL     1      44.538   2.010   9.589  0.00  0.00    +0.000 NA
ATOM     29  C   UNL     1      45.329   2.259   8.596  0.00  0.00    +0.000 A 
ATOM     30  N   UNL     1      45.876   3.492   8.331  0.00  0.00    +0.000 N 
ATOM     31  C   UNL     1      45.616   4.608   9.091  0.00  0.00    +0.000 A 
ATOM     32  O   UNL     1      45.946   5.736   8.736  0.00  0.00    +0.000 OA
ATOM     33  C   UNL     1      44.891   4.329  10.313  0.00  0.00    +0.000 A 
ATOM     34  H   UNL     1      46.406   3.640   7.492  0.00  0.00    +0.000 HD
ENDBRANCH  21  24
ENDBRANCH  19  20
ENDBRANCH   4  19
TORSDOF 6
ENDMDL
