MODEL 1
REMARK VINA RESULT:    -7.370      0.000      0.000
REMARK INTER + INTRA:         -10.338
REMARK INTER:                  -9.524
REMARK INTRA:                  -0.814
REMARK UNBOUND:                -0.814
REMARK  Name = 
REMARK  5 active torsions:
REMARK  status: ('A' for Active; 'I' for Inactive)
REMARK    1  A    between atoms: C_2  and  C_18
REMARK    2  A    between atoms: N_3  and  C_4
REMARK    3  A    between atoms: C_4  and  C_5
REMARK    4  A    between atoms: C_8  and  C_9
REMARK    5  A    between atoms: C_9  and  C_10
REMARK                            x       y       z     vdW  Elec       q    Type
REMARK                         _______ _______ _______ _____ _____    ______ ____
ROOT
ATOM      1  O   UNL     1      48.853   5.498  18.222  0.00  0.00    +0.000 OA
ATOM      2  C   UNL     1      49.838   5.407  17.495  0.00  0.00    +0.000 C 
ATOM      3  N   UNL     1      49.913   6.041  16.277  0.00  0.00    +0.000 N 
ATOM      4  H   UNL     1      50.585   5.707  15.594  0.00  0.00    +0.000 HD
ENDROOT
BRANCH   2   5
ATOM      5  C   UNL     1      51.028   4.662  17.912  0.00  0.00    +0.000 A 
ATOM      6  C   UNL     1      52.064   5.309  18.573  0.00  0.00    +0.000 A 
ATOM      7  S   UNL     1      53.377   4.285  18.948  0.00  0.00    +0.000 S 
ATOM      8  C   UNL     1      52.584   2.935  18.284  0.00  0.00    +0.000 A 
ATOM      9  N   UNL     1      53.159   1.697  18.296  0.00  0.00    +0.000 NA
ATOM     10  C   UNL     1      52.430   0.768  17.785  0.00  0.00    +0.000 A 
ATOM     11  N   UNL     1      51.180   0.952  17.256  0.00  0.00    +0.000 N 
ATOM     12  C   UNL     1      50.581   2.183  17.178  0.00  0.00    +0.000 A 
ATOM     13  O   UNL     1      49.500   2.327  16.621  0.00  0.00    +0.000 OA
ATOM     14  C   UNL     1      51.348   3.265  17.763  0.00  0.00    +0.000 A 
ATOM     15  H   UNL     1      50.667   0.181  16.849  0.00  0.00    +0.000 HD
ENDBRANCH   2   5
BRANCH   3  16
ATOM     16  C   UNL     1      48.752   6.708  15.737  0.00  0.00    +0.000 C 
BRANCH  16  17
ATOM     17  C   UNL     1      47.925   5.824  14.832  0.00  0.00    +0.000 A 
ATOM     18  C   UNL     1      47.456   6.315  13.618  0.00  0.00    +0.000 A 
ATOM     19  C   UNL     1      46.637   5.503  12.834  0.00  0.00    +0.000 A 
ATOM     20  C   UNL     1      46.321   4.204  13.247  0.00  0.00    +0.000 A 
ATOM     21  C   UNL     1      46.869   3.789  14.453  0.00  0.00    +0.000 A 
ATOM     22  N   UNL     1      47.656   4.562  15.247  0.00  0.00    +0.000 NA
BRANCH  20  23
ATOM     23  C   UNL     1      45.555   3.286  12.334  0.00  0.00    +0.000 C 
BRANCH  23  24
ATOM     24  C   UNL     1      44.024   3.404  12.146  0.00  0.00    +0.000 C 
ATOM     25  C   UNL     1      43.601   3.925  10.763  0.00  0.00    +0.000 C 
ATOM     26  C   UNL     1      43.293   5.419  10.721  0.00  0.00    +0.000 C 
ATOM     27  C   UNL     1      42.462   5.877  11.913  0.00  0.00    +0.000 C 
ATOM     28  N   UNL     1      43.110   5.517  13.172  0.00  0.00    +0.000 NA
ATOM     29  C   UNL     1      43.254   4.071  13.297  0.00  0.00    +0.000 C 
ATOM     30  H   UNL     1      42.541   5.866  13.944  0.00  0.00    +0.000 HD
ENDBRANCH  23  24
ENDBRANCH  20  23
ENDBRANCH  16  17
ENDBRANCH   3  16
TORSDOF 5
ENDMDL
MODEL 2
REMARK VINA RESULT:    -7.086      4.046      7.987
REMARK INTER + INTRA:          -9.972
REMARK INTER:                  -8.888
REMARK INTRA:                  -1.084
REMARK UNBOUND:                -0.814
REMARK  Name = 
REMARK  5 active torsions:
REMARK  status: ('A' for Active; 'I' for Inactive)
REMARK    1  A    between atoms: C_2  and  C_18
REMARK    2  A    between atoms: N_3  and  C_4
REMARK    3  A    between atoms: C_4  and  C_5
REMARK    4  A    between atoms: C_8  and  C_9
REMARK    5  A    between atoms: C_9  and  C_10
REMARK                            x       y       z     vdW  Elec       q    Type
REMARK                         _______ _______ _______ _____ _____    ______ ____
ROOT
ATOM      1  O   UNL     1      45.651   7.865  12.194  0.00  0.00    +0.000 OA
ATOM      2  C   UNL     1      46.332   6.936  11.771  0.00  0.00    +0.000 C 
ATOM      3  N   UNL     1      47.682   6.845  12.014  0.00  0.00    +0.000 N 
ATOM      4  H   UNL     1      48.246   6.253  11.413  0.00  0.00    +0.000 HD
ENDROOT
BRANCH   2   5
ATOM      5  C   UNL     1      45.730   5.826  11.029  0.00  0.00    +0.000 A 
ATOM      6  C   UNL     1      45.943   5.699   9.662  0.00  0.00    +0.000 A 
ATOM      7  S   UNL     1      45.136   4.365   8.968  0.00  0.00    +0.000 S 
ATOM      8  C   UNL     1      44.516   3.886  10.478  0.00  0.00    +0.000 A 
ATOM      9  N   UNL     1      43.736   2.773  10.603  0.00  0.00    +0.000 NA
ATOM     10  C   UNL     1      43.365   2.517  11.809  0.00  0.00    +0.000 A 
ATOM     11  N   UNL     1      43.692   3.269  12.906  0.00  0.00    +0.000 N 
ATOM     12  C   UNL     1      44.432   4.421  12.824  0.00  0.00    +0.000 A 
ATOM     13  O   UNL     1      44.634   5.116  13.812  0.00  0.00    +0.000 OA
ATOM     14  C   UNL     1      44.899   4.743  11.491  0.00  0.00    +0.000 A 
ATOM     15  H   UNL     1      43.350   3.024  13.826  0.00  0.00    +0.000 HD
ENDBRANCH   2   5
BRANCH   3  16
ATOM     16  C   UNL     1      48.379   7.942  12.643  0.00  0.00    +0.000 C 
BRANCH  16  17
ATOM     17  C   UNL     1      48.613   7.729  14.121  0.00  0.00    +0.000 A 
ATOM     18  C   UNL     1      48.102   8.634  15.044  0.00  0.00    +0.000 A 
ATOM     19  C   UNL     1      48.391   8.454  16.397  0.00  0.00    +0.000 A 
ATOM     20  C   UNL     1      49.156   7.360  16.819  0.00  0.00    +0.000 A 
ATOM     21  C   UNL     1      49.587   6.488  15.828  0.00  0.00    +0.000 A 
ATOM     22  N   UNL     1      49.335   6.647  14.502  0.00  0.00    +0.000 NA
BRANCH  20  23
ATOM     23  C   UNL     1      49.346   7.093  18.287  0.00  0.00    +0.000 C 
BRANCH  23  24
ATOM     24  C   UNL     1      48.671   5.899  19.001  0.00  0.00    +0.000 C 
ATOM     25  C   UNL     1      49.469   4.589  18.924  0.00  0.00    +0.000 C 
ATOM     26  C   UNL     1      49.015   3.638  17.821  0.00  0.00    +0.000 C 
ATOM     27  C   UNL     1      47.498   3.525  17.737  0.00  0.00    +0.000 C 
ATOM     28  N   UNL     1      46.883   4.840  17.573  0.00  0.00    +0.000 NA
ATOM     29  C   UNL     1      47.173   5.704  18.713  0.00  0.00    +0.000 C 
ATOM     30  H   UNL     1      45.872   4.721  17.491  0.00  0.00    +0.000 HD
ENDBRANCH  23  24
ENDBRANCH  20  23
ENDBRANCH  16  17
ENDBRANCH   3  16
TORSDOF 5
ENDMDL
MODEL 3
REMARK VINA RESULT:    -6.766      2.641      3.486
REMARK INTER + INTRA:          -9.558
REMARK INTER:                  -8.082
REMARK INTRA:                  -1.475
REMARK UNBOUND:                -0.814
REMARK  Name = 
REMARK  5 active torsions:
REMARK  status: ('A' for Active; 'I' for Inactive)
REMARK    1  A    between atoms: C_2  and  C_18
REMARK    2  A    between atoms: N_3  and  C_4
REMARK    3  A    between atoms: C_4  and  C_5
REMARK    4  A    between atoms: C_8  and  C_9
REMARK    5  A    between atoms: C_9  and  C_10
REMARK                            x       y       z     vdW  Elec       q    Type
REMARK                         _______ _______ _______ _____ _____    ______ ____
ROOT
ATOM      1  O   UNL     1      48.394   8.628  16.334  0.00  0.00    +0.000 OA
ATOM      2  C   UNL     1      48.848   7.521  16.059  0.00  0.00    +0.000 C 
ATOM      3  N   UNL     1      49.249   7.188  14.786  0.00  0.00    +0.000 N 
ATOM      4  H   UNL     1      49.325   6.206  14.541  0.00  0.00    +0.000 HD
ENDROOT
BRANCH   2   5
ATOM      5  C   UNL     1      49.051   6.501  17.090  0.00  0.00    +0.000 A 
ATOM      6  C   UNL     1      49.843   6.773  18.198  0.00  0.00    +0.000 A 
ATOM      7  S   UNL     1      49.988   5.453  19.271  0.00  0.00    +0.000 S 
ATOM      8  C   UNL     1      48.959   4.494  18.316  0.00  0.00    +0.000 A 
ATOM      9  N   UNL     1      48.635   3.220  18.682  0.00  0.00    +0.000 NA
ATOM     10  C   UNL     1      47.824   2.626  17.878  0.00  0.00    +0.000 A 
ATOM     11  N   UNL     1      47.306   3.178  16.737  0.00  0.00    +0.000 N 
ATOM     12  C   UNL     1      47.640   4.435  16.302  0.00  0.00    +0.000 A 
ATOM     13  O   UNL     1      47.227   4.866  15.233  0.00  0.00    +0.000 OA
ATOM     14  C   UNL     1      48.531   5.161  17.185  0.00  0.00    +0.000 A 
ATOM     15  H   UNL     1      46.689   2.648  16.135  0.00  0.00    +0.000 HD
ENDBRANCH   2   5
BRANCH   3  16
ATOM     16  C   UNL     1      48.989   8.088  13.687  0.00  0.00    +0.000 C 
BRANCH  16  17
ATOM     17  C   UNL     1      47.672   7.820  12.997  0.00  0.00    +0.000 A 
ATOM     18  C   UNL     1      47.588   6.843  12.012  0.00  0.00    +0.000 A 
ATOM     19  C   UNL     1      46.378   6.663  11.341  0.00  0.00    +0.000 A 
ATOM     20  C   UNL     1      45.259   7.433  11.679  0.00  0.00    +0.000 A 
ATOM     21  C   UNL     1      45.429   8.354  12.703  0.00  0.00    +0.000 A 
ATOM     22  N   UNL     1      46.598   8.563  13.363  0.00  0.00    +0.000 NA
BRANCH  20  23
ATOM     23  C   UNL     1      43.924   7.139  11.051  0.00  0.00    +0.000 C 
BRANCH  23  24
ATOM     24  C   UNL     1      43.159   5.823  11.321  0.00  0.00    +0.000 C 
ATOM     25  C   UNL     1      43.136   5.403  12.799  0.00  0.00    +0.000 C 
ATOM     26  C   UNL     1      44.193   4.370  13.177  0.00  0.00    +0.000 C 
ATOM     27  C   UNL     1      44.311   3.254  12.146  0.00  0.00    +0.000 C 
ATOM     28  N   UNL     1      44.571   3.796  10.815  0.00  0.00    +0.000 NA
ATOM     29  C   UNL     1      43.476   4.655  10.373  0.00  0.00    +0.000 C 
ATOM     30  H   UNL     1      44.674   3.019  10.160  0.00  0.00    +0.000 HD
ENDBRANCH  23  24
ENDBRANCH  20  23
ENDBRANCH  16  17
ENDBRANCH   3  16
TORSDOF 5
ENDMDL
MODEL 4
REMARK VINA RESULT:    -6.756      2.801      3.579
REMARK INTER + INTRA:          -9.546
REMARK INTER:                  -9.073
REMARK INTRA:                  -0.473
REMARK UNBOUND:                -0.814
REMARK  Name = 
REMARK  5 active torsions:
REMARK  status: ('A' for Active; 'I' for Inactive)
REMARK    1  A    between atoms: C_2  and  C_18
REMARK    2  A    between atoms: N_3  and  C_4
REMARK    3  A    between atoms: C_4  and  C_5
REMARK    4  A    between atoms: C_8  and  C_9
REMARK    5  A    between atoms: C_9  and  C_10
REMARK                            x       y       z     vdW  Elec       q    Type
REMARK                         _______ _______ _______ _____ _____    ______ ____
ROOT
ATOM      1  O   UNL     1      50.430   6.687  15.600  0.00  0.00    +0.000 OA
ATOM      2  C   UNL     1      49.336   6.761  16.152  0.00  0.00    +0.000 C 
ATOM      3  N   UNL     1      48.154   6.674  15.454  0.00  0.00    +0.000 N 
ATOM      4  H   UNL     1      47.308   7.035  15.882  0.00  0.00    +0.000 HD
ENDROOT
BRANCH   2   5
ATOM      5  C   UNL     1      49.222   6.885  17.607  0.00  0.00    +0.000 A 
ATOM      6  C   UNL     1      49.288   8.133  18.211  0.00  0.00    +0.000 A 
ATOM      7  S   UNL     1      49.170   8.072  19.913  0.00  0.00    +0.000 S 
ATOM      8  C   UNL     1      48.977   6.383  19.893  0.00  0.00    +0.000 A 
ATOM      9  N   UNL     1      48.799   5.675  21.047  0.00  0.00    +0.000 NA
ATOM     10  C   UNL     1      48.638   4.410  20.875  0.00  0.00    +0.000 A 
ATOM     11  N   UNL     1      48.641   3.777  19.661  0.00  0.00    +0.000 N 
ATOM     12  C   UNL     1      48.864   4.437  18.479  0.00  0.00    +0.000 A 
ATOM     13  O   UNL     1      48.946   3.829  17.419  0.00  0.00    +0.000 OA
ATOM     14  C   UNL     1      49.026   5.871  18.611  0.00  0.00    +0.000 A 
ATOM     15  H   UNL     1      48.529   2.773  19.596  0.00  0.00    +0.000 HD
ENDBRANCH   2   5
BRANCH   3  16
ATOM     16  C   UNL     1      48.167   6.658  14.010  0.00  0.00    +0.000 C 
BRANCH  16  17
ATOM     17  C   UNL     1      47.107   5.760  13.416  0.00  0.00    +0.000 A 
ATOM     18  C   UNL     1      45.908   6.300  12.966  0.00  0.00    +0.000 A 
ATOM     19  C   UNL     1      44.918   5.443  12.487  0.00  0.00    +0.000 A 
ATOM     20  C   UNL     1      45.143   4.062  12.431  0.00  0.00    +0.000 A 
ATOM     21  C   UNL     1      46.385   3.620  12.864  0.00  0.00    +0.000 A 
ATOM     22  N   UNL     1      47.362   4.430  13.351  0.00  0.00    +0.000 NA
BRANCH  20  23
ATOM     23  C   UNL     1      44.129   3.157  11.786  0.00  0.00    +0.000 C 
BRANCH  23  24
ATOM     24  C   UNL     1      43.836   3.200  10.268  0.00  0.00    +0.000 C 
ATOM     25  C   UNL     1      44.509   2.074   9.467  0.00  0.00    +0.000 C 
ATOM     26  C   UNL     1      45.818   2.476   8.795  0.00  0.00    +0.000 C 
ATOM     27  C   UNL     1      45.734   3.842   8.125  0.00  0.00    +0.000 C 
ATOM     28  N   UNL     1      45.305   4.865   9.074  0.00  0.00    +0.000 NA
ATOM     29  C   UNL     1      43.973   4.576   9.595  0.00  0.00    +0.000 C 
ATOM     30  H   UNL     1      45.291   5.768   8.597  0.00  0.00    +0.000 HD
ENDBRANCH  23  24
ENDBRANCH  20  23
ENDBRANCH  16  17
ENDBRANCH   3  16
TORSDOF 5
ENDMDL
MODEL 5
REMARK VINA RESULT:    -6.698      4.335      8.559
REMARK INTER + INTRA:          -9.470
REMARK INTER:                  -8.421
REMARK INTRA:                  -1.049
REMARK UNBOUND:                -0.814
REMARK  Name = 
REMARK  5 active torsions:
REMARK  status: ('A' for Active; 'I' for Inactive)
REMARK    1  A    between atoms: C_2  and  C_18
REMARK    2  A    between atoms: N_3  and  C_4
REMARK    3  A    between atoms: C_4  and  C_5
REMARK    4  A    between atoms: C_8  and  C_9
REMARK    5  A    between atoms: C_9  and  C_10
REMARK                            x       y       z     vdW  Elec       q    Type
REMARK                         _______ _______ _______ _____ _____    ______ ____
ROOT
ATOM      1  O   UNL     1      44.567   7.402  11.757  0.00  0.00    +0.000 OA
ATOM      2  C   UNL     1      45.289   6.413  11.674  0.00  0.00    +0.000 C 
ATOM      3  N   UNL     1      46.640   6.466  11.923  0.00  0.00    +0.000 N 
ATOM      4  H   UNL     1      47.233   5.727  11.558  0.00  0.00    +0.000 HD
ENDROOT
BRANCH   2   5
ATOM      5  C   UNL     1      44.739   5.091  11.362  0.00  0.00    +0.000 A 
ATOM      6  C   UNL     1      43.915   4.443  12.272  0.00  0.00    +0.000 A 
ATOM      7  S   UNL     1      43.401   2.902  11.747  0.00  0.00    +0.000 S 
ATOM      8  C   UNL     1      44.222   3.073  10.267  0.00  0.00    +0.000 A 
ATOM      9  N   UNL     1      44.178   2.096   9.315  0.00  0.00    +0.000 NA
ATOM     10  C   UNL     1      44.821   2.377   8.236  0.00  0.00    +0.000 A 
ATOM     11  N   UNL     1      45.512   3.538   8.014  0.00  0.00    +0.000 N 
ATOM     12  C   UNL     1      45.625   4.527   8.958  0.00  0.00    +0.000 A 
ATOM     13  O   UNL     1      46.321   5.515   8.760  0.00  0.00    +0.000 OA
ATOM     14  C   UNL     1      44.897   4.275  10.185  0.00  0.00    +0.000 A 
ATOM     15  H   UNL     1      46.015   3.688   7.150  0.00  0.00    +0.000 HD
ENDBRANCH   2   5
BRANCH   3  16
ATOM     16  C   UNL     1      47.287   7.740  12.133  0.00  0.00    +0.000 C 
BRANCH  16  17
ATOM     17  C   UNL     1      47.991   7.837  13.467  0.00  0.00    +0.000 A 
ATOM     18  C   UNL     1      47.739   8.913  14.310  0.00  0.00    +0.000 A 
ATOM     19  C   UNL     1      48.452   9.017  15.504  0.00  0.00    +0.000 A 
ATOM     20  C   UNL     1      49.384   8.035  15.860  0.00  0.00    +0.000 A 
ATOM     21  C   UNL     1      49.538   6.978  14.974  0.00  0.00    +0.000 A 
ATOM     22  N   UNL     1      48.869   6.858  13.797  0.00  0.00    +0.000 NA
BRANCH  20  23
ATOM     23  C   UNL     1      50.048   8.078  17.210  0.00  0.00    +0.000 C 
BRANCH  23  24
ATOM     24  C   UNL     1      49.618   7.148  18.368  0.00  0.00    +0.000 C 
ATOM     25  C   UNL     1      50.397   5.826  18.433  0.00  0.00    +0.000 C 
ATOM     26  C   UNL     1      49.685   4.643  17.784  0.00  0.00    +0.000 C 
ATOM     27  C   UNL     1      48.205   4.587  18.140  0.00  0.00    +0.000 C 
ATOM     28  N   UNL     1      47.537   5.842  17.802  0.00  0.00    +0.000 NA
ATOM     29  C   UNL     1      48.103   6.959  18.551  0.00  0.00    +0.000 C 
ATOM     30  H   UNL     1      46.545   5.755  18.026  0.00  0.00    +0.000 HD
ENDBRANCH  23  24
ENDBRANCH  20  23
ENDBRANCH  16  17
ENDBRANCH   3  16
TORSDOF 5
ENDMDL
MODEL 6
REMARK VINA RESULT:    -6.665      3.635      7.761
REMARK INTER + INTRA:          -9.428
REMARK INTER:                  -8.279
REMARK INTRA:                  -1.148
REMARK UNBOUND:                -0.814
REMARK  Name = 
REMARK  5 active torsions:
REMARK  status: ('A' for Active; 'I' for Inactive)
REMARK    1  A    between atoms: C_2  and  C_18
REMARK    2  A    between atoms: N_3  and  C_4
REMARK    3  A    between atoms: C_4  and  C_5
REMARK    4  A    between atoms: C_8  and  C_9
REMARK    5  A    between atoms: C_9  and  C_10
REMARK                            x       y       z     vdW  Elec       q    Type
REMARK                         _______ _______ _______ _____ _____    ______ ____
ROOT
ATOM      1  O   UNL     1      47.851   7.008  11.956  0.00  0.00    +0.000 OA
ATOM      2  C   UNL     1      46.817   7.229  12.580  0.00  0.00    +0.000 C 
ATOM      3  N   UNL     1      46.761   8.138  13.610  0.00  0.00    +0.000 N 
ATOM      4  H   UNL     1      46.000   8.071  14.279  0.00  0.00    +0.000 HD
ENDROOT
BRANCH   2   5
ATOM      5  C   UNL     1      45.555   6.577  12.222  0.00  0.00    +0.000 A 
ATOM      6  C   UNL     1      44.532   7.308  11.633  0.00  0.00    +0.000 A 
ATOM      7  S   UNL     1      43.130   6.386  11.319  0.00  0.00    +0.000 S 
ATOM      8  C   UNL     1      43.863   4.971  11.913  0.00  0.00    +0.000 A 
ATOM      9  N   UNL     1      43.202   3.777  11.914  0.00  0.00    +0.000 NA
ATOM     10  C   UNL     1      43.891   2.788  12.366  0.00  0.00    +0.000 A 
ATOM     11  N   UNL     1      45.179   2.874  12.824  0.00  0.00    +0.000 N 
ATOM     12  C   UNL     1      45.867   4.059  12.887  0.00  0.00    +0.000 A 
ATOM     13  O   UNL     1      46.986   4.116  13.382  0.00  0.00    +0.000 OA
ATOM     14  C   UNL     1      45.146   5.203  12.366  0.00  0.00    +0.000 A 
ATOM     15  H   UNL     1      45.659   2.061  13.186  0.00  0.00    +0.000 HD
ENDBRANCH   2   5
BRANCH   3  16
ATOM     16  C   UNL     1      47.974   8.748  14.103  0.00  0.00    +0.000 C 
BRANCH  16  17
ATOM     17  C   UNL     1      48.600   7.985  15.248  0.00  0.00    +0.000 A 
ATOM     18  C   UNL     1      48.294   8.325  16.561  0.00  0.00    +0.000 A 
ATOM     19  C   UNL     1      48.938   7.654  17.600  0.00  0.00    +0.000 A 
ATOM     20  C   UNL     1      49.854   6.632  17.323  0.00  0.00    +0.000 A 
ATOM     21  C   UNL     1      50.064   6.337  15.983  0.00  0.00    +0.000 A 
ATOM     22  N   UNL     1      49.464   6.984  14.950  0.00  0.00    +0.000 NA
BRANCH  20  23
ATOM     23  C   UNL     1      50.440   5.819  18.445  0.00  0.00    +0.000 C 
BRANCH  23  24
ATOM     24  C   UNL     1      49.820   4.477  18.899  0.00  0.00    +0.000 C 
ATOM     25  C   UNL     1      50.082   3.307  17.937  0.00  0.00    +0.000 C 
ATOM     26  C   UNL     1      48.939   3.020  16.969  0.00  0.00    +0.000 C 
ATOM     27  C   UNL     1      47.576   3.060  17.648  0.00  0.00    +0.000 C 
ATOM     28  N   UNL     1      47.368   4.335  18.330  0.00  0.00    +0.000 NA
ATOM     29  C   UNL     1      48.361   4.539  19.380  0.00  0.00    +0.000 C 
ATOM     30  H   UNL     1      46.435   4.335  18.746  0.00  0.00    +0.000 HD
ENDBRANCH  23  24
ENDBRANCH  20  23
ENDBRANCH  16  17
ENDBRANCH   3  16
TORSDOF 5
ENDMDL
MODEL 7
REMARK VINA RESULT:    -6.412      5.755      9.180
REMARK INTER + INTRA:          -9.100
REMARK INTER:                  -8.261
REMARK INTRA:                  -0.838
REMARK UNBOUND:                -0.814
REMARK  Name = 
REMARK  5 active torsions:
REMARK  status: ('A' for Active; 'I' for Inactive)
REMARK    1  A    between atoms: C_2  and  C_18
REMARK    2  A    between atoms: N_3  and  C_4
REMARK    3  A    between atoms: C_4  and  C_5
REMARK    4  A    between atoms: C_8  and  C_9
REMARK    5  A    between atoms: C_9  and  C_10
REMARK                            x       y       z     vdW  Elec       q    Type
REMARK                         _______ _______ _______ _____ _____    ______ ____
ROOT
ATOM      1  O   UNL     1      44.407   7.550  11.298  0.00  0.00    +0.000 OA
ATOM      2  C   UNL     1      44.914   6.617  11.913  0.00  0.00    +0.000 C 
ATOM      3  N   UNL     1      45.806   6.813  12.941  0.00  0.00    +0.000 N 
ATOM      4  H   UNL     1      46.417   6.048  13.210  0.00  0.00    +0.000 HD
ENDROOT
BRANCH   2   5
ATOM      5  C   UNL     1      44.549   5.227  11.629  0.00  0.00    +0.000 A 
ATOM      6  C   UNL     1      43.807   4.496  12.546  0.00  0.00    +0.000 A 
ATOM      7  S   UNL     1      43.508   2.889  12.054  0.00  0.00    +0.000 S 
ATOM      8  C   UNL     1      44.319   3.133  10.579  0.00  0.00    +0.000 A 
ATOM      9  N   UNL     1      44.418   2.137   9.651  0.00  0.00    +0.000 NA
ATOM     10  C   UNL     1      45.033   2.475   8.572  0.00  0.00    +0.000 A 
ATOM     11  N   UNL     1      45.566   3.713   8.329  0.00  0.00    +0.000 N 
ATOM     12  C   UNL     1      45.534   4.730   9.248  0.00  0.00    +0.000 A 
ATOM     13  O   UNL     1      46.095   5.797   9.033  0.00  0.00    +0.000 OA
ATOM     14  C   UNL     1      44.830   4.412  10.474  0.00  0.00    +0.000 A 
ATOM     15  H   UNL     1      46.057   3.909   7.466  0.00  0.00    +0.000 HD
ENDBRANCH   2   5
BRANCH   3  16
ATOM     16  C   UNL     1      46.305   8.139  13.222  0.00  0.00    +0.000 C 
BRANCH  16  17
ATOM     17  C   UNL     1      47.730   8.348  12.763  0.00  0.00    +0.000 A 
ATOM     18  C   UNL     1      48.054   9.446  11.975  0.00  0.00    +0.000 A 
ATOM     19  C   UNL     1      49.361   9.578  11.505  0.00  0.00    +0.000 A 
ATOM     20  C   UNL     1      50.337   8.636  11.850  0.00  0.00    +0.000 A 
ATOM     21  C   UNL     1      49.928   7.596  12.674  0.00  0.00    +0.000 A 
ATOM     22  N   UNL     1      48.659   7.432  13.133  0.00  0.00    +0.000 NA
BRANCH  20  23
ATOM     23  C   UNL     1      51.772   8.857  11.458  0.00  0.00    +0.000 C 
BRANCH  23  24
ATOM     24  C   UNL     1      52.278   8.611  10.018  0.00  0.00    +0.000 C 
ATOM     25  C   UNL     1      52.248   7.137   9.586  0.00  0.00    +0.000 C 
ATOM     26  C   UNL     1      53.583   6.413   9.724  0.00  0.00    +0.000 C 
ATOM     27  C   UNL     1      54.755   7.252   9.228  0.00  0.00    +0.000 C 
ATOM     28  N   UNL     1      54.796   8.546   9.904  0.00  0.00    +0.000 NA
ATOM     29  C   UNL     1      53.588   9.319   9.635  0.00  0.00    +0.000 C 
ATOM     30  H   UNL     1      55.609   9.064   9.569  0.00  0.00    +0.000 HD
ENDBRANCH  23  24
ENDBRANCH  20  23
ENDBRANCH  16  17
ENDBRANCH   3  16
TORSDOF 5
ENDMDL
MODEL 8
REMARK VINA RESULT:    -6.249      3.597      8.631
REMARK INTER + INTRA:          -8.890
REMARK INTER:                  -7.844
REMARK INTRA:                  -1.045
REMARK UNBOUND:                -0.814
REMARK  Name = 
REMARK  5 active torsions:
REMARK  status: ('A' for Active; 'I' for Inactive)
REMARK    1  A    between atoms: C_2  and  C_18
REMARK    2  A    between atoms: N_3  and  C_4
REMARK    3  A    between atoms: C_4  and  C_5
REMARK    4  A    between atoms: C_8  and  C_9
REMARK    5  A    between atoms: C_9  and  C_10
REMARK                            x       y       z     vdW  Elec       q    Type
REMARK                         _______ _______ _______ _____ _____    ______ ____
ROOT
ATOM      1  O   UNL     1      45.656   7.548  12.263  0.00  0.00    +0.000 OA
ATOM      2  C   UNL     1      46.270   6.534  11.942  0.00  0.00    +0.000 C 
ATOM      3  N   UNL     1      47.529   6.257  12.418  0.00  0.00    +0.000 N 
ATOM      4  H   UNL     1      48.107   5.594  11.911  0.00  0.00    +0.000 HD
ENDROOT
BRANCH   2   5
ATOM      5  C   UNL     1      45.667   5.519  11.075  0.00  0.00    +0.000 A 
ATOM      6  C   UNL     1      45.829   5.588   9.698  0.00  0.00    +0.000 A 
ATOM      7  S   UNL     1      45.027   4.339   8.854  0.00  0.00    +0.000 S 
ATOM      8  C   UNL     1      44.479   3.639  10.304  0.00  0.00    +0.000 A 
ATOM      9  N   UNL     1      43.731   2.497  10.302  0.00  0.00    +0.000 NA
ATOM     10  C   UNL     1      43.413   2.068  11.473  0.00  0.00    +0.000 A 
ATOM     11  N   UNL     1      43.764   2.671  12.652  0.00  0.00    +0.000 N 
ATOM     12  C   UNL     1      44.473   3.844  12.704  0.00  0.00    +0.000 A 
ATOM     13  O   UNL     1      44.697   4.402  13.770  0.00  0.00    +0.000 OA
ATOM     14  C   UNL     1      44.880   4.360  11.412  0.00  0.00    +0.000 A 
ATOM     15  H   UNL     1      43.464   2.293  13.540  0.00  0.00    +0.000 HD
ENDBRANCH   2   5
BRANCH   3  16
ATOM     16  C   UNL     1      48.244   7.246  13.191  0.00  0.00    +0.000 C 
BRANCH  16  17
ATOM     17  C   UNL     1      48.436   6.847  14.636  0.00  0.00    +0.000 A 
ATOM     18  C   UNL     1      48.983   7.749  15.541  0.00  0.00    +0.000 A 
ATOM     19  C   UNL     1      49.215   7.334  16.852  0.00  0.00    +0.000 A 
ATOM     20  C   UNL     1      48.872   6.038  17.256  0.00  0.00    +0.000 A 
ATOM     21  C   UNL     1      48.294   5.223  16.293  0.00  0.00    +0.000 A 
ATOM     22  N   UNL     1      48.071   5.594  15.004  0.00  0.00    +0.000 NA
BRANCH  20  23
ATOM     23  C   UNL     1      48.995   5.641  18.702  0.00  0.00    +0.000 C 
BRANCH  23  24
ATOM     24  C   UNL     1      50.328   5.146  19.308  0.00  0.00    +0.000 C 
ATOM     25  C   UNL     1      51.214   6.268  19.874  0.00  0.00    +0.000 C 
ATOM     26  C   UNL     1      52.312   6.741  18.926  0.00  0.00    +0.000 C 
ATOM     27  C   UNL     1      53.023   5.584  18.234  0.00  0.00    +0.000 C 
ATOM     28  N   UNL     1      52.069   4.727  17.534  0.00  0.00    +0.000 NA
ATOM     29  C   UNL     1      51.115   4.131  18.464  0.00  0.00    +0.000 C 
ATOM     30  H   UNL     1      52.585   3.985  17.059  0.00  0.00    +0.000 HD
ENDBRANCH  23  24
ENDBRANCH  20  23
ENDBRANCH  16  17
ENDBRANCH   3  16
TORSDOF 5
ENDMDL
MODEL 9
REMARK VINA RESULT:    -5.771      3.531      4.198
REMARK INTER + INTRA:          -8.272
REMARK INTER:                  -7.125
REMARK INTRA:                  -1.148
REMARK UNBOUND:                -0.814
REMARK  Name = 
REMARK  5 active torsions:
REMARK  status: ('A' for Active; 'I' for Inactive)
REMARK    1  A    between atoms: C_2  and  C_18
REMARK    2  A    between atoms: N_3  and  C_4
REMARK    3  A    between atoms: C_4  and  C_5
REMARK    4  A    between atoms: C_8  and  C_9
REMARK    5  A    between atoms: C_9  and  C_10
REMARK                            x       y       z     vdW  Elec       q    Type
REMARK                         _______ _______ _______ _____ _____    ______ ____
ROOT
ATOM      1  O   UNL     1      51.110   7.428  15.961  0.00  0.00    +0.000 OA
ATOM      2  C   UNL     1      49.990   7.709  16.378  0.00  0.00    +0.000 C 
ATOM      3  N   UNL     1      48.913   7.872  15.538  0.00  0.00    +0.000 N 
ATOM      4  H   UNL     1      48.106   8.387  15.875  0.00  0.00    +0.000 HD
ENDROOT
BRANCH   2   5
ATOM      5  C   UNL     1      49.717   7.826  17.812  0.00  0.00    +0.000 A 
ATOM      6  C   UNL     1      50.298   8.845  18.555  0.00  0.00    +0.000 A 
ATOM      7  S   UNL     1      49.888   8.799  20.212  0.00  0.00    +0.000 S 
ATOM      8  C   UNL     1      48.884   7.446  19.981  0.00  0.00    +0.000 A 
ATOM      9  N   UNL     1      48.191   6.891  21.017  0.00  0.00    +0.000 NA
ATOM     10  C   UNL     1      47.450   5.892  20.687  0.00  0.00    +0.000 A 
ATOM     11  N   UNL     1      47.335   5.385  19.420  0.00  0.00    +0.000 N 
ATOM     12  C   UNL     1      48.047   5.877  18.356  0.00  0.00    +0.000 A 
ATOM     13  O   UNL     1      47.987   5.347  17.254  0.00  0.00    +0.000 OA
ATOM     14  C   UNL     1      48.880   7.022  18.666  0.00  0.00    +0.000 A 
ATOM     15  H   UNL     1      46.749   4.583  19.231  0.00  0.00    +0.000 HD
ENDBRANCH   2   5
BRANCH   3  16
ATOM     16  C   UNL     1      49.108   7.881  14.107  0.00  0.00    +0.000 C 
BRANCH  16  17
ATOM     17  C   UNL     1      47.829   7.661  13.332  0.00  0.00    +0.000 A 
ATOM     18  C   UNL     1      47.782   6.706  12.323  0.00  0.00    +0.000 A 
ATOM     19  C   UNL     1      46.612   6.571  11.576  0.00  0.00    +0.000 A 
ATOM     20  C   UNL     1      45.494   7.362  11.861  0.00  0.00    +0.000 A 
ATOM     21  C   UNL     1      45.623   8.259  12.912  0.00  0.00    +0.000 A 
ATOM     22  N   UNL     1      46.754   8.424  13.647  0.00  0.00    +0.000 NA
BRANCH  20  23
ATOM     23  C   UNL     1      44.193   7.116  11.146  0.00  0.00    +0.000 C 
BRANCH  23  24
ATOM     24  C   UNL     1      43.361   5.833  11.371  0.00  0.00    +0.000 C 
ATOM     25  C   UNL     1      43.312   5.366  12.834  0.00  0.00    +0.000 C 
ATOM     26  C   UNL     1      44.313   4.267  13.178  0.00  0.00    +0.000 C 
ATOM     27  C   UNL     1      44.375   3.181  12.111  0.00  0.00    +0.000 C 
ATOM     28  N   UNL     1      44.665   3.753  10.798  0.00  0.00    +0.000 NA
ATOM     29  C   UNL     1      43.618   4.682  10.385  0.00  0.00    +0.000 C 
ATOM     30  H   UNL     1      44.729   2.995  10.118  0.00  0.00    +0.000 HD
ENDBRANCH  23  24
ENDBRANCH  20  23
ENDBRANCH  16  17
ENDBRANCH   3  16
TORSDOF 5
ENDMDL
