MODEL 1
REMARK VINA RESULT:    -8.451      0.000      0.000
REMARK INTER + INTRA:         -13.511
REMARK INTER:                 -12.404
REMARK INTRA:                  -1.107
REMARK UNBOUND:                -1.107
REMARK  Name = 
REMARK  10 active torsions:
REMARK  status: ('A' for Active; 'I' for Inactive)
REMARK    1  A    between atoms: C_1  and  O_2
REMARK    2  A    between atoms: O_2  and  C_3
REMARK    3  A    between atoms: C_10  and  C_11
REMARK    4  A    between atoms: N_13  and  C_14
REMARK    5  A    between atoms: C_14  and  C_15
REMARK    6  A    between atoms: C_18  and  N_19
REMARK    7  A    between atoms: N_19  and  C_20
REMARK    8  A    between atoms: N_19  and  C_21
REMARK    9  A    between atoms: C_21  and  C_22
REMARK   10  A    between atoms: C_22  and  C_23
REMARK                            x       y       z     vdW  Elec       q    Type
REMARK                         _______ _______ _______ _____ _____    ______ ____
ROOT
ATOM      1  C   UNL     1      47.723   7.623  13.158  0.00  0.00    +0.000 C 
ENDROOT
BRANCH   1   2
ATOM      2  C   UNL     1      46.907   6.480  12.615  0.00  0.00    +0.000 A 
ATOM      3  C   UNL     1      46.392   6.508  11.318  0.00  0.00    +0.000 A 
ATOM      4  C   UNL     1      45.603   5.449  10.838  0.00  0.00    +0.000 A 
ATOM      5  C   UNL     1      45.305   4.316  11.616  0.00  0.00    +0.000 A 
ATOM      6  C   UNL     1      45.834   4.321  12.917  0.00  0.00    +0.000 A 
ATOM      7  C   UNL     1      46.602   5.382  13.417  0.00  0.00    +0.000 A 
BRANCH   5   8
ATOM      8  N   UNL     1      44.472   3.301  11.141  0.00  0.00    +0.000 N 
ATOM      9  C   UNL     1      43.353   2.856  11.980  0.00  0.00    +0.000 C 
BRANCH   8  10
ATOM     10  C   UNL     1      44.247   3.121   9.690  0.00  0.00    +0.000 C 
BRANCH  10  11
ATOM     11  C   UNL     1      44.882   1.821   9.173  0.00  0.00    +0.000 C 
BRANCH  11  12
ATOM     12  C   UNL     1      45.904   2.059   8.095  0.00  0.00    +0.000 A 
ATOM     13  C   UNL     1      46.005   3.287   7.435  0.00  0.00    +0.000 A 
ATOM     14  C   UNL     1      46.986   3.470   6.464  0.00  0.00    +0.000 A 
ATOM     15  C   UNL     1      47.831   2.409   6.177  0.00  0.00    +0.000 A 
ATOM     16  N   UNL     1      47.752   1.204   6.779  0.00  0.00    +0.000 NA
ATOM     17  C   UNL     1      46.795   1.057   7.722  0.00  0.00    +0.000 A 
ENDBRANCH  11  12
ENDBRANCH  10  11
ENDBRANCH   8  10
ENDBRANCH   5   8
ENDBRANCH   1   2
BRANCH   1  20
ATOM     18  C   UNL     1      48.801   7.111  15.308  0.00  0.00    +0.000 C 
ATOM     19  O   UNL     1      49.786   6.642  14.734  0.00  0.00    +0.000 OA
ATOM     20  N   UNL     1      47.744   7.609  14.600  0.00  0.00    +0.000 N 
ATOM     21  H   UNL     1      46.913   7.924  15.081  0.00  0.00    +0.000 HD
BRANCH  18  29
ATOM     22  C   UNL     1      48.761   4.689  17.755  0.00  0.00    +0.000 A 
ATOM     23  N   UNL     1      48.705   3.967  18.891  0.00  0.00    +0.000 NA
ATOM     24  C   UNL     1      48.583   4.623  20.047  0.00  0.00    +0.000 A 
ATOM     25  N   UNL     1      48.513   5.940  20.217  0.00  0.00    +0.000 NA
ATOM     26  C   UNL     1      48.577   6.623  19.061  0.00  0.00    +0.000 A 
ATOM     27  S   UNL     1      48.507   8.319  19.088  0.00  0.00    +0.000 S 
ATOM     28  C   UNL     1      48.628   8.399  17.395  0.00  0.00    +0.000 A 
ATOM     29  C   UNL     1      48.721   7.157  16.777  0.00  0.00    +0.000 A 
ATOM     30  C   UNL     1      48.702   6.094  17.781  0.00  0.00    +0.000 A 
BRANCH  22  32
ATOM     31  C   UNL     1      48.635   2.626  16.653  0.00  0.00    +0.000 C 
ATOM     32  O   UNL     1      48.940   4.015  16.565  0.00  0.00    +0.000 OA
ENDBRANCH  22  32
ENDBRANCH  18  29
ENDBRANCH   1  20
TORSDOF 8
ENDMDL
MODEL 2
REMARK VINA RESULT:    -7.551      1.640      2.287
REMARK INTER + INTRA:         -12.189
REMARK INTER:                 -10.795
REMARK INTRA:                  -1.394
REMARK UNBOUND:                -1.107
REMARK  Name = 
REMARK  10 active torsions:
REMARK  status: ('A' for Active; 'I' for Inactive)
REMARK    1  A    between atoms: C_1  and  O_2
REMARK    2  A    between atoms: O_2  and  C_3
REMARK    3  A    between atoms: C_10  and  C_11
REMARK    4  A    between atoms: N_13  and  C_14
REMARK    5  A    between atoms: C_14  and  C_15
REMARK    6  A    between atoms: C_18  and  N_19
REMARK    7  A    between atoms: N_19  and  C_20
REMARK    8  A    between atoms: N_19  and  C_21
REMARK    9  A    between atoms: C_21  and  C_22
REMARK   10  A    between atoms: C_22  and  C_23
REMARK                            x       y       z     vdW  Elec       q    Type
REMARK                         _______ _______ _______ _____ _____    ______ ____
ROOT
ATOM      1  C   UNL     1      47.986   4.497  15.125  0.00  0.00    +0.000 C 
ENDROOT
BRANCH   1   2
ATOM      2  C   UNL     1      46.932   4.528  14.050  0.00  0.00    +0.000 A 
ATOM      3  C   UNL     1      46.298   5.718  13.689  0.00  0.00    +0.000 A 
ATOM      4  C   UNL     1      45.291   5.725  12.709  0.00  0.00    +0.000 A 
ATOM      5  C   UNL     1      44.883   4.557  12.039  0.00  0.00    +0.000 A 
ATOM      6  C   UNL     1      45.536   3.377  12.428  0.00  0.00    +0.000 A 
ATOM      7  C   UNL     1      46.525   3.353  13.423  0.00  0.00    +0.000 A 
BRANCH   5   8
ATOM      8  N   UNL     1      43.841   4.575  11.109  0.00  0.00    +0.000 N 
ATOM      9  C   UNL     1      43.010   5.780  11.004  0.00  0.00    +0.000 C 
BRANCH   8  10
ATOM     10  C   UNL     1      43.926   3.789   9.859  0.00  0.00    +0.000 C 
BRANCH  10  11
ATOM     11  C   UNL     1      45.007   4.339   8.914  0.00  0.00    +0.000 C 
BRANCH  11  12
ATOM     12  C   UNL     1      45.808   3.253   8.249  0.00  0.00    +0.000 A 
ATOM     13  C   UNL     1      46.711   3.531   7.219  0.00  0.00    +0.000 A 
ATOM     14  C   UNL     1      47.452   2.496   6.653  0.00  0.00    +0.000 A 
ATOM     15  C   UNL     1      47.255   1.211   7.131  0.00  0.00    +0.000 A 
ATOM     16  N   UNL     1      46.380   0.902   8.110  0.00  0.00    +0.000 NA
ATOM     17  C   UNL     1      45.680   1.926   8.646  0.00  0.00    +0.000 A 
ENDBRANCH  11  12
ENDBRANCH  10  11
ENDBRANCH   8  10
ENDBRANCH   5   8
ENDBRANCH   1   2
BRANCH   1  20
ATOM     18  C   UNL     1      48.833   6.519  16.241  0.00  0.00    +0.000 C 
ATOM     19  O   UNL     1      49.913   6.424  15.655  0.00  0.00    +0.000 OA
ATOM     20  N   UNL     1      47.837   5.607  16.034  0.00  0.00    +0.000 N 
ATOM     21  H   UNL     1      46.984   5.655  16.574  0.00  0.00    +0.000 HD
BRANCH  18  29
ATOM     22  C   UNL     1      47.857   6.624  19.540  0.00  0.00    +0.000 A 
ATOM     23  N   UNL     1      47.469   6.952  20.788  0.00  0.00    +0.000 NA
ATOM     24  C   UNL     1      47.357   8.248  21.091  0.00  0.00    +0.000 A 
ATOM     25  N   UNL     1      47.594   9.281  20.289  0.00  0.00    +0.000 NA
ATOM     26  C   UNL     1      47.985   8.912  19.057  0.00  0.00    +0.000 A 
ATOM     27  S   UNL     1      48.336  10.102  17.899  0.00  0.00    +0.000 S 
ATOM     28  C   UNL     1      48.702   8.925  16.729  0.00  0.00    +0.000 A 
ATOM     29  C   UNL     1      48.567   7.618  17.183  0.00  0.00    +0.000 A 
ATOM     30  C   UNL     1      48.147   7.614  18.583  0.00  0.00    +0.000 A 
BRANCH  22  32
ATOM     31  C   UNL     1      49.320   4.795  19.572  0.00  0.00    +0.000 C 
ATOM     32  O   UNL     1      48.024   5.288  19.242  0.00  0.00    +0.000 OA
ENDBRANCH  22  32
ENDBRANCH  18  29
ENDBRANCH   1  20
TORSDOF 8
ENDMDL
MODEL 3
REMARK VINA RESULT:    -7.466      2.091      2.322
REMARK INTER + INTRA:         -12.065
REMARK INTER:                 -10.767
REMARK INTRA:                  -1.298
REMARK UNBOUND:                -1.107
REMARK  Name = 
REMARK  10 active torsions:
REMARK  status: ('A' for Active; 'I' for Inactive)
REMARK    1  A    between atoms: C_1  and  O_2
REMARK    2  A    between atoms: O_2  and  C_3
REMARK    3  A    between atoms: C_10  and  C_11
REMARK    4  A    between atoms: N_13  and  C_14
REMARK    5  A    between atoms: C_14  and  C_15
REMARK    6  A    between atoms: C_18  and  N_19
REMARK    7  A    between atoms: N_19  and  C_20
REMARK    8  A    between atoms: N_19  and  C_21
REMARK    9  A    between atoms: C_21  and  C_22
REMARK   10  A    between atoms: C_22  and  C_23
REMARK                            x       y       z     vdW  Elec       q    Type
REMARK                         _______ _______ _______ _____ _____    ______ ____
ROOT
ATOM      1  C   UNL     1      48.911   7.892  13.181  0.00  0.00    +0.000 C 
ENDROOT
BRANCH   1   2
ATOM      2  C   UNL     1      47.737   7.060  12.739  0.00  0.00    +0.000 A 
ATOM      3  C   UNL     1      46.858   7.511  11.752  0.00  0.00    +0.000 A 
ATOM      4  C   UNL     1      45.746   6.738  11.375  0.00  0.00    +0.000 A 
ATOM      5  C   UNL     1      45.469   5.484  11.949  0.00  0.00    +0.000 A 
ATOM      6  C   UNL     1      46.369   5.061  12.941  0.00  0.00    +0.000 A 
ATOM      7  C   UNL     1      47.468   5.834  13.344  0.00  0.00    +0.000 A 
BRANCH   5   8
ATOM      8  N   UNL     1      44.328   4.757  11.603  0.00  0.00    +0.000 N 
ATOM      9  C   UNL     1      43.071   5.481  11.383  0.00  0.00    +0.000 C 
BRANCH   8  10
ATOM     10  C   UNL     1      44.436   3.491  10.845  0.00  0.00    +0.000 C 
BRANCH  10  11
ATOM     11  C   UNL     1      44.295   3.720   9.332  0.00  0.00    +0.000 C 
BRANCH  11  12
ATOM     12  C   UNL     1      45.333   2.984   8.531  0.00  0.00    +0.000 A 
ATOM     13  C   UNL     1      46.133   3.635   7.587  0.00  0.00    +0.000 A 
ATOM     14  C   UNL     1      47.101   2.918   6.890  0.00  0.00    +0.000 A 
ATOM     15  C   UNL     1      47.231   1.563   7.153  0.00  0.00    +0.000 A 
ATOM     16  N   UNL     1      46.466   0.897   8.042  0.00  0.00    +0.000 NA
ATOM     17  C   UNL     1      45.539   1.619   8.710  0.00  0.00    +0.000 A 
ENDBRANCH  11  12
ENDBRANCH  10  11
ENDBRANCH   8  10
ENDBRANCH   5   8
ENDBRANCH   1   2
BRANCH   1  20
ATOM     18  C   UNL     1      50.410   7.750  15.126  0.00  0.00    +0.000 C 
ATOM     19  O   UNL     1      50.292   8.958  15.339  0.00  0.00    +0.000 OA
ATOM     20  N   UNL     1      49.764   7.153  14.080  0.00  0.00    +0.000 N 
ATOM     21  H   UNL     1      49.926   6.177  13.872  0.00  0.00    +0.000 HD
BRANCH  18  29
ATOM     22  C   UNL     1      49.749   5.015  17.109  0.00  0.00    +0.000 A 
ATOM     23  N   UNL     1      49.769   3.970  17.959  0.00  0.00    +0.000 NA
ATOM     24  C   UNL     1      50.933   3.646  18.529  0.00  0.00    +0.000 A 
ATOM     25  N   UNL     1      52.106   4.245  18.349  0.00  0.00    +0.000 NA
ATOM     26  C   UNL     1      52.044   5.278  17.491  0.00  0.00    +0.000 A 
ATOM     27  S   UNL     1      53.452   6.157  17.138  0.00  0.00    +0.000 S 
ATOM     28  C   UNL     1      52.601   7.191  16.091  0.00  0.00    +0.000 A 
ATOM     29  C   UNL     1      51.246   6.898  15.986  0.00  0.00    +0.000 A 
ATOM     30  C   UNL     1      50.917   5.742  16.819  0.00  0.00    +0.000 A 
BRANCH  22  32
ATOM     31  C   UNL     1      47.517   4.390  16.771  0.00  0.00    +0.000 C 
ATOM     32  O   UNL     1      48.559   5.317  16.480  0.00  0.00    +0.000 OA
ENDBRANCH  22  32
ENDBRANCH  18  29
ENDBRANCH   1  20
TORSDOF 8
ENDMDL
MODEL 4
REMARK VINA RESULT:    -7.374      1.711      3.178
REMARK INTER + INTRA:         -11.930
REMARK INTER:                 -10.538
REMARK INTRA:                  -1.392
REMARK UNBOUND:                -1.107
REMARK  Name = 
REMARK  10 active torsions:
REMARK  status: ('A' for Active; 'I' for Inactive)
REMARK    1  A    between atoms: C_1  and  O_2
REMARK    2  A    between atoms: O_2  and  C_3
REMARK    3  A    between atoms: C_10  and  C_11
REMARK    4  A    between atoms: N_13  and  C_14
REMARK    5  A    between atoms: C_14  and  C_15
REMARK    6  A    between atoms: C_18  and  N_19
REMARK    7  A    between atoms: N_19  and  C_20
REMARK    8  A    between atoms: N_19  and  C_21
REMARK    9  A    between atoms: C_21  and  C_22
REMARK   10  A    between atoms: C_22  and  C_23
REMARK                            x       y       z     vdW  Elec       q    Type
REMARK                         _______ _______ _______ _____ _____    ______ ____
ROOT
ATOM      1  C   UNL     1      47.704   4.067  15.151  0.00  0.00    +0.000 C 
ENDROOT
BRANCH   1   2
ATOM      2  C   UNL     1      46.713   4.269  14.035  0.00  0.00    +0.000 A 
ATOM      3  C   UNL     1      46.194   5.532  13.745  0.00  0.00    +0.000 A 
ATOM      4  C   UNL     1      45.244   5.698  12.723  0.00  0.00    +0.000 A 
ATOM      5  C   UNL     1      44.782   4.624  11.940  0.00  0.00    +0.000 A 
ATOM      6  C   UNL     1      45.320   3.367  12.261  0.00  0.00    +0.000 A 
ATOM      7  C   UNL     1      46.250   3.184  13.294  0.00  0.00    +0.000 A 
BRANCH   5   8
ATOM      8  N   UNL     1      43.795   4.800  10.968  0.00  0.00    +0.000 N 
ATOM      9  C   UNL     1      43.014   6.043  10.972  0.00  0.00    +0.000 C 
BRANCH   8  10
ATOM     10  C   UNL     1      43.923   4.172   9.635  0.00  0.00    +0.000 C 
BRANCH  10  11
ATOM     11  C   UNL     1      45.253   4.539   8.958  0.00  0.00    +0.000 C 
BRANCH  11  12
ATOM     12  C   UNL     1      45.900   3.369   8.270  0.00  0.00    +0.000 A 
ATOM     13  C   UNL     1      46.711   3.534   7.143  0.00  0.00    +0.000 A 
ATOM     14  C   UNL     1      47.313   2.423   6.558  0.00  0.00    +0.000 A 
ATOM     15  C   UNL     1      47.073   1.177   7.114  0.00  0.00    +0.000 A 
ATOM     16  N   UNL     1      46.281   0.976   8.188  0.00  0.00    +0.000 NA
ATOM     17  C   UNL     1      45.717   2.073   8.741  0.00  0.00    +0.000 A 
ENDBRANCH  11  12
ENDBRANCH  10  11
ENDBRANCH   8  10
ENDBRANCH   5   8
ENDBRANCH   1   2
BRANCH   1  20
ATOM     18  C   UNL     1      48.760   5.423  16.911  0.00  0.00    +0.000 C 
ATOM     19  O   UNL     1      49.707   4.639  16.986  0.00  0.00    +0.000 OA
ATOM     20  N   UNL     1      47.734   5.207  16.035  0.00  0.00    +0.000 N 
ATOM     21  H   UNL     1      46.929   5.818  16.034  0.00  0.00    +0.000 HD
BRANCH  18  29
ATOM     22  C   UNL     1      48.624   8.794  16.227  0.00  0.00    +0.000 A 
ATOM     23  N   UNL     1      48.587  10.141  16.248  0.00  0.00    +0.000 NA
ATOM     24  C   UNL     1      48.575  10.751  17.436  0.00  0.00    +0.000 A 
ATOM     25  N   UNL     1      48.591  10.172  18.633  0.00  0.00    +0.000 NA
ATOM     26  C   UNL     1      48.623   8.830  18.568  0.00  0.00    +0.000 A 
ATOM     27  S   UNL     1      48.642   7.925  20.004  0.00  0.00    +0.000 S 
ATOM     28  C   UNL     1      48.689   6.463  19.138  0.00  0.00    +0.000 A 
ATOM     29  C   UNL     1      48.692   6.625  17.757  0.00  0.00    +0.000 A 
ATOM     30  C   UNL     1      48.641   8.047  17.419  0.00  0.00    +0.000 A 
BRANCH  22  32
ATOM     31  C   UNL     1      47.723   8.806  14.065  0.00  0.00    +0.000 C 
ATOM     32  O   UNL     1      48.583   8.162  15.002  0.00  0.00    +0.000 OA
ENDBRANCH  22  32
ENDBRANCH  18  29
ENDBRANCH   1  20
TORSDOF 8
ENDMDL
MODEL 5
REMARK VINA RESULT:    -6.967      2.377      3.053
REMARK INTER + INTRA:         -11.333
REMARK INTER:                 -10.133
REMARK INTRA:                  -1.200
REMARK UNBOUND:                -1.107
REMARK  Name = 
REMARK  10 active torsions:
REMARK  status: ('A' for Active; 'I' for Inactive)
REMARK    1  A    between atoms: C_1  and  O_2
REMARK    2  A    between atoms: O_2  and  C_3
REMARK    3  A    between atoms: C_10  and  C_11
REMARK    4  A    between atoms: N_13  and  C_14
REMARK    5  A    between atoms: C_14  and  C_15
REMARK    6  A    between atoms: C_18  and  N_19
REMARK    7  A    between atoms: N_19  and  C_20
REMARK    8  A    between atoms: N_19  and  C_21
REMARK    9  A    between atoms: C_21  and  C_22
REMARK   10  A    between atoms: C_22  and  C_23
REMARK                            x       y       z     vdW  Elec       q    Type
REMARK                         _______ _______ _______ _____ _____    ______ ____
ROOT
ATOM      1  C   UNL     1      48.618   7.163  13.184  0.00  0.00    +0.000 C 
ENDROOT
BRANCH   1   2
ATOM      2  C   UNL     1      47.327   6.545  12.715  0.00  0.00    +0.000 A 
ATOM      3  C   UNL     1      46.637   5.621  13.501  0.00  0.00    +0.000 A 
ATOM      4  C   UNL     1      45.452   5.027  13.035  0.00  0.00    +0.000 A 
ATOM      5  C   UNL     1      44.896   5.335  11.780  0.00  0.00    +0.000 A 
ATOM      6  C   UNL     1      45.616   6.265  11.012  0.00  0.00    +0.000 A 
ATOM      7  C   UNL     1      46.814   6.846  11.455  0.00  0.00    +0.000 A 
BRANCH   5   8
ATOM      8  N   UNL     1      43.749   4.692  11.311  0.00  0.00    +0.000 N 
ATOM      9  C   UNL     1      42.436   5.190  11.738  0.00  0.00    +0.000 C 
BRANCH   8  10
ATOM     10  C   UNL     1      43.740   4.022   9.992  0.00  0.00    +0.000 C 
BRANCH  10  11
ATOM     11  C   UNL     1      44.670   2.799   9.969  0.00  0.00    +0.000 C 
BRANCH  11  12
ATOM     12  C   UNL     1      45.543   2.751   8.745  0.00  0.00    +0.000 A 
ATOM     13  C   UNL     1      46.095   1.554   8.281  0.00  0.00    +0.000 A 
ATOM     14  C   UNL     1      46.873   1.555   7.126  0.00  0.00    +0.000 A 
ATOM     15  C   UNL     1      47.084   2.761   6.478  0.00  0.00    +0.000 A 
ATOM     16  N   UNL     1      46.584   3.939   6.906  0.00  0.00    +0.000 NA
ATOM     17  C   UNL     1      45.826   3.907   8.025  0.00  0.00    +0.000 A 
ENDBRANCH  11  12
ENDBRANCH  10  11
ENDBRANCH   8  10
ENDBRANCH   5   8
ENDBRANCH   1   2
BRANCH   1  20
ATOM     18  C   UNL     1      49.160   6.940  15.572  0.00  0.00    +0.000 C 
ATOM     19  O   UNL     1      48.683   8.050  15.813  0.00  0.00    +0.000 OA
ATOM     20  N   UNL     1      49.168   6.436  14.302  0.00  0.00    +0.000 N 
ATOM     21  H   UNL     1      49.626   5.557  14.106  0.00  0.00    +0.000 HD
BRANCH  18  29
ATOM     22  C   UNL     1      52.389   6.224  16.529  0.00  0.00    +0.000 A 
ATOM     23  N   UNL     1      53.523   5.765  17.093  0.00  0.00    +0.000 NA
ATOM     24  C   UNL     1      53.417   4.914  18.116  0.00  0.00    +0.000 A 
ATOM     25  N   UNL     1      52.295   4.456  18.663  0.00  0.00    +0.000 NA
ATOM     26  C   UNL     1      51.187   4.941  18.076  0.00  0.00    +0.000 A 
ATOM     27  S   UNL     1      49.662   4.466  18.649  0.00  0.00    +0.000 S 
ATOM     28  C   UNL     1      48.874   5.417  17.481  0.00  0.00    +0.000 A 
ATOM     29  C   UNL     1      49.738   6.107  16.639  0.00  0.00    +0.000 A 
ATOM     30  C   UNL     1      51.126   5.828  17.006  0.00  0.00    +0.000 A 
BRANCH  22  32
ATOM     31  C   UNL     1      53.247   8.301  15.868  0.00  0.00    +0.000 C 
ATOM     32  O   UNL     1      52.497   7.144  15.507  0.00  0.00    +0.000 OA
ENDBRANCH  22  32
ENDBRANCH  18  29
ENDBRANCH   1  20
TORSDOF 8
ENDMDL
MODEL 6
REMARK VINA RESULT:    -6.902      3.823      8.814
REMARK INTER + INTRA:         -11.237
REMARK INTER:                  -9.785
REMARK INTRA:                  -1.451
REMARK UNBOUND:                -1.107
REMARK  Name = 
REMARK  10 active torsions:
REMARK  status: ('A' for Active; 'I' for Inactive)
REMARK    1  A    between atoms: C_1  and  O_2
REMARK    2  A    between atoms: O_2  and  C_3
REMARK    3  A    between atoms: C_10  and  C_11
REMARK    4  A    between atoms: N_13  and  C_14
REMARK    5  A    between atoms: C_14  and  C_15
REMARK    6  A    between atoms: C_18  and  N_19
REMARK    7  A    between atoms: N_19  and  C_20
REMARK    8  A    between atoms: N_19  and  C_21
REMARK    9  A    between atoms: C_21  and  C_22
REMARK   10  A    between atoms: C_22  and  C_23
REMARK                            x       y       z     vdW  Elec       q    Type
REMARK                         _______ _______ _______ _____ _____    ______ ____
ROOT
ATOM      1  C   UNL     1      47.382   3.225  16.962  0.00  0.00    +0.000 C 
ENDROOT
BRANCH   1   2
ATOM      2  C   UNL     1      48.846   3.220  17.314  0.00  0.00    +0.000 A 
ATOM      3  C   UNL     1      49.439   4.302  17.967  0.00  0.00    +0.000 A 
ATOM      4  C   UNL     1      50.814   4.297  18.257  0.00  0.00    +0.000 A 
ATOM      5  C   UNL     1      51.652   3.216  17.925  0.00  0.00    +0.000 A 
ATOM      6  C   UNL     1      51.025   2.147  17.265  0.00  0.00    +0.000 A 
ATOM      7  C   UNL     1      49.659   2.150  16.947  0.00  0.00    +0.000 A 
BRANCH   5   8
ATOM      8  N   UNL     1      53.026   3.255  18.170  0.00  0.00    +0.000 N 
ATOM      9  C   UNL     1      53.858   2.141  17.701  0.00  0.00    +0.000 C 
BRANCH   8  10
ATOM     10  C   UNL     1      53.744   4.545  18.267  0.00  0.00    +0.000 C 
BRANCH  10  11
ATOM     11  C   UNL     1      54.622   4.802  17.033  0.00  0.00    +0.000 C 
BRANCH  11  12
ATOM     12  C   UNL     1      54.097   5.912  16.163  0.00  0.00    +0.000 A 
ATOM     13  C   UNL     1      52.867   6.526  16.416  0.00  0.00    +0.000 A 
ATOM     14  C   UNL     1      52.435   7.569  15.601  0.00  0.00    +0.000 A 
ATOM     15  C   UNL     1      53.248   7.956  14.547  0.00  0.00    +0.000 A 
ATOM     16  N   UNL     1      54.431   7.375  14.260  0.00  0.00    +0.000 NA
ATOM     17  C   UNL     1      54.828   6.371  15.072  0.00  0.00    +0.000 A 
ENDBRANCH  11  12
ENDBRANCH  10  11
ENDBRANCH   8  10
ENDBRANCH   5   8
ENDBRANCH   1   2
BRANCH   1  20
ATOM     18  C   UNL     1      47.067   4.155  14.707  0.00  0.00    +0.000 C 
ATOM     19  O   UNL     1      47.351   3.072  14.191  0.00  0.00    +0.000 OA
ATOM     20  N   UNL     1      47.065   4.309  16.065  0.00  0.00    +0.000 N 
ATOM     21  H   UNL     1      46.902   5.219  16.473  0.00  0.00    +0.000 HD
BRANCH  18  29
ATOM     22  C   UNL     1      44.408   4.895  12.650  0.00  0.00    +0.000 A 
ATOM     23  N   UNL     1      43.518   5.425  11.789  0.00  0.00    +0.000 NA
ATOM     24  C   UNL     1      43.775   6.636  11.286  0.00  0.00    +0.000 A 
ATOM     25  N   UNL     1      44.831   7.402  11.544  0.00  0.00    +0.000 NA
ATOM     26  C   UNL     1      45.690   6.839  12.411  0.00  0.00    +0.000 A 
ATOM     27  S   UNL     1      47.094   7.680  12.861  0.00  0.00    +0.000 S 
ATOM     28  C   UNL     1      47.593   6.406  13.869  0.00  0.00    +0.000 A 
ATOM     29  C   UNL     1      46.717   5.326  13.887  0.00  0.00    +0.000 A 
ATOM     30  C   UNL     1      45.571   5.594  13.020  0.00  0.00    +0.000 A 
BRANCH  22  32
ATOM     31  C   UNL     1      43.533   2.752  12.287  0.00  0.00    +0.000 C 
ATOM     32  O   UNL     1      44.118   3.668  13.210  0.00  0.00    +0.000 OA
ENDBRANCH  22  32
ENDBRANCH  18  29
ENDBRANCH   1  20
TORSDOF 8
ENDMDL
MODEL 7
REMARK VINA RESULT:    -6.894      4.285      9.211
REMARK INTER + INTRA:         -11.225
REMARK INTER:                 -10.013
REMARK INTRA:                  -1.212
REMARK UNBOUND:                -1.107
REMARK  Name = 
REMARK  10 active torsions:
REMARK  status: ('A' for Active; 'I' for Inactive)
REMARK    1  A    between atoms: C_1  and  O_2
REMARK    2  A    between atoms: O_2  and  C_3
REMARK    3  A    between atoms: C_10  and  C_11
REMARK    4  A    between atoms: N_13  and  C_14
REMARK    5  A    between atoms: C_14  and  C_15
REMARK    6  A    between atoms: C_18  and  N_19
REMARK    7  A    between atoms: N_19  and  C_20
REMARK    8  A    between atoms: N_19  and  C_21
REMARK    9  A    between atoms: C_21  and  C_22
REMARK   10  A    between atoms: C_22  and  C_23
REMARK                            x       y       z     vdW  Elec       q    Type
REMARK                         _______ _______ _______ _____ _____    ______ ____
ROOT
ATOM      1  C   UNL     1      47.200   3.368  16.740  0.00  0.00    +0.000 C 
ENDROOT
BRANCH   1   2
ATOM      2  C   UNL     1      48.657   3.477  17.101  0.00  0.00    +0.000 A 
ATOM      3  C   UNL     1      49.231   4.704  17.442  0.00  0.00    +0.000 A 
ATOM      4  C   UNL     1      50.601   4.794  17.743  0.00  0.00    +0.000 A 
ATOM      5  C   UNL     1      51.452   3.675  17.731  0.00  0.00    +0.000 A 
ATOM      6  C   UNL     1      50.846   2.458  17.379  0.00  0.00    +0.000 A 
ATOM      7  C   UNL     1      49.486   2.358  17.053  0.00  0.00    +0.000 A 
BRANCH   5   8
ATOM      8  N   UNL     1      52.822   3.795  17.976  0.00  0.00    +0.000 N 
ATOM      9  C   UNL     1      53.531   4.968  17.453  0.00  0.00    +0.000 C 
BRANCH   8  10
ATOM     10  C   UNL     1      53.428   3.218  19.196  0.00  0.00    +0.000 C 
BRANCH  10  11
ATOM     11  C   UNL     1      54.851   2.700  18.934  0.00  0.00    +0.000 C 
BRANCH  11  12
ATOM     12  C   UNL     1      54.885   1.552  17.962  0.00  0.00    +0.000 A 
ATOM     13  C   UNL     1      55.507   1.662  16.715  0.00  0.00    +0.000 A 
ATOM     14  C   UNL     1      55.539   0.563  15.861  0.00  0.00    +0.000 A 
ATOM     15  C   UNL     1      54.934  -0.611  16.279  0.00  0.00    +0.000 A 
ATOM     16  N   UNL     1      54.307  -0.749  17.466  0.00  0.00    +0.000 NA
ATOM     17  C   UNL     1      54.299   0.331  18.279  0.00  0.00    +0.000 A 
ENDBRANCH  11  12
ENDBRANCH  10  11
ENDBRANCH   8  10
ENDBRANCH   5   8
ENDBRANCH   1   2
BRANCH   1  20
ATOM     18  C   UNL     1      46.842   4.256  14.474  0.00  0.00    +0.000 C 
ATOM     19  O   UNL     1      47.220   3.197  13.969  0.00  0.00    +0.000 OA
ATOM     20  N   UNL     1      46.808   4.417  15.831  0.00  0.00    +0.000 N 
ATOM     21  H   UNL     1      46.565   5.313  16.230  0.00  0.00    +0.000 HD
BRANCH  18  29
ATOM     22  C   UNL     1      43.999   4.898  12.642  0.00  0.00    +0.000 A 
ATOM     23  N   UNL     1      43.029   5.388  11.845  0.00  0.00    +0.000 NA
ATOM     24  C   UNL     1      43.230   6.576  11.270  0.00  0.00    +0.000 A 
ATOM     25  N   UNL     1      44.299   7.357  11.398  0.00  0.00    +0.000 NA
ATOM     26  C   UNL     1      45.239   6.835  12.204  0.00  0.00    +0.000 A 
ATOM     27  S   UNL     1      46.672   7.699  12.486  0.00  0.00    +0.000 S 
ATOM     28  C   UNL     1      47.270   6.471  13.497  0.00  0.00    +0.000 A 
ATOM     29  C   UNL     1      46.409   5.390  13.641  0.00  0.00    +0.000 A 
ATOM     30  C   UNL     1      45.186   5.616  12.873  0.00  0.00    +0.000 A 
BRANCH  22  32
ATOM     31  C   UNL     1      43.566   2.611  12.375  0.00  0.00    +0.000 C 
ATOM     32  O   UNL     1      43.771   3.695  13.278  0.00  0.00    +0.000 OA
ENDBRANCH  22  32
ENDBRANCH  18  29
ENDBRANCH   1  20
TORSDOF 8
ENDMDL
MODEL 8
REMARK VINA RESULT:    -6.774      3.441      5.871
REMARK INTER + INTRA:         -11.049
REMARK INTER:                  -9.690
REMARK INTRA:                  -1.358
REMARK UNBOUND:                -1.107
REMARK  Name = 
REMARK  10 active torsions:
REMARK  status: ('A' for Active; 'I' for Inactive)
REMARK    1  A    between atoms: C_1  and  O_2
REMARK    2  A    between atoms: O_2  and  C_3
REMARK    3  A    between atoms: C_10  and  C_11
REMARK    4  A    between atoms: N_13  and  C_14
REMARK    5  A    between atoms: C_14  and  C_15
REMARK    6  A    between atoms: C_18  and  N_19
REMARK    7  A    between atoms: N_19  and  C_20
REMARK    8  A    between atoms: N_19  and  C_21
REMARK    9  A    between atoms: C_21  and  C_22
REMARK   10  A    between atoms: C_22  and  C_23
REMARK                            x       y       z     vdW  Elec       q    Type
REMARK                         _______ _______ _______ _____ _____    ______ ____
ROOT
ATOM      1  C   UNL     1      48.159   3.273  17.828  0.00  0.00    +0.000 C 
ENDROOT
BRANCH   1   2
ATOM      2  C   UNL     1      48.010   4.192  16.645  0.00  0.00    +0.000 A 
ATOM      3  C   UNL     1      48.634   5.440  16.611  0.00  0.00    +0.000 A 
ATOM      4  C   UNL     1      48.457   6.300  15.515  0.00  0.00    +0.000 A 
ATOM      5  C   UNL     1      47.667   5.954  14.403  0.00  0.00    +0.000 A 
ATOM      6  C   UNL     1      47.049   4.695  14.470  0.00  0.00    +0.000 A 
ATOM      7  C   UNL     1      47.197   3.837  15.569  0.00  0.00    +0.000 A 
BRANCH   5   8
ATOM      8  N   UNL     1      47.457   6.846  13.349  0.00  0.00    +0.000 N 
ATOM      9  C   UNL     1      48.496   6.984  12.324  0.00  0.00    +0.000 C 
BRANCH   8  10
ATOM     10  C   UNL     1      46.090   7.142  12.867  0.00  0.00    +0.000 C 
BRANCH  10  11
ATOM     11  C   UNL     1      45.834   6.540  11.476  0.00  0.00    +0.000 C 
BRANCH  11  12
ATOM     12  C   UNL     1      44.938   5.333  11.518  0.00  0.00    +0.000 A 
ATOM     13  C   UNL     1      44.903   4.406  10.473  0.00  0.00    +0.000 A 
ATOM     14  C   UNL     1      44.079   3.287  10.569  0.00  0.00    +0.000 A 
ATOM     15  C   UNL     1      43.306   3.139  11.709  0.00  0.00    +0.000 A 
ATOM     16  N   UNL     1      43.299   4.021  12.730  0.00  0.00    +0.000 NA
ATOM     17  C   UNL     1      44.114   5.093  12.613  0.00  0.00    +0.000 A 
ENDBRANCH  11  12
ENDBRANCH  10  11
ENDBRANCH   8  10
ENDBRANCH   5   8
ENDBRANCH   1   2
BRANCH   1  20
ATOM     18  C   UNL     1      50.276   2.171  17.232  0.00  0.00    +0.000 C 
ATOM     19  O   UNL     1      49.770   1.684  16.220  0.00  0.00    +0.000 OA
ATOM     20  N   UNL     1      49.545   2.961  18.075  0.00  0.00    +0.000 N 
ATOM     21  H   UNL     1      49.951   3.296  18.938  0.00  0.00    +0.000 HD
BRANCH  18  29
ATOM     22  C   UNL     1      52.954   4.246  17.846  0.00  0.00    +0.000 A 
ATOM     23  N   UNL     1      54.150   4.809  18.104  0.00  0.00    +0.000 NA
ATOM     24  C   UNL     1      55.189   4.002  18.330  0.00  0.00    +0.000 A 
ATOM     25  N   UNL     1      55.183   2.672  18.337  0.00  0.00    +0.000 NA
ATOM     26  C   UNL     1      53.970   2.150  18.082  0.00  0.00    +0.000 A 
ATOM     27  S   UNL     1      53.775   0.464  18.056  0.00  0.00    +0.000 S 
ATOM     28  C   UNL     1      52.123   0.613  17.688  0.00  0.00    +0.000 A 
ATOM     29  C   UNL     1      51.686   1.929  17.577  0.00  0.00    +0.000 A 
ATOM     30  C   UNL     1      52.795   2.848  17.825  0.00  0.00    +0.000 A 
BRANCH  22  32
ATOM     31  C   UNL     1      51.669   5.985  18.746  0.00  0.00    +0.000 C 
ATOM     32  O   UNL     1      51.870   5.079  17.664  0.00  0.00    +0.000 OA
ENDBRANCH  22  32
ENDBRANCH  18  29
ENDBRANCH   1  20
TORSDOF 8
ENDMDL
MODEL 9
REMARK VINA RESULT:    -6.072      4.245      9.176
REMARK INTER + INTRA:         -10.019
REMARK INTER:                  -8.571
REMARK INTRA:                  -1.448
REMARK UNBOUND:                -1.107
REMARK  Name = 
REMARK  10 active torsions:
REMARK  status: ('A' for Active; 'I' for Inactive)
REMARK    1  A    between atoms: C_1  and  O_2
REMARK    2  A    between atoms: O_2  and  C_3
REMARK    3  A    between atoms: C_10  and  C_11
REMARK    4  A    between atoms: N_13  and  C_14
REMARK    5  A    between atoms: C_14  and  C_15
REMARK    6  A    between atoms: C_18  and  N_19
REMARK    7  A    between atoms: N_19  and  C_20
REMARK    8  A    between atoms: N_19  and  C_21
REMARK    9  A    between atoms: C_21  and  C_22
REMARK   10  A    between atoms: C_22  and  C_23
REMARK                            x       y       z     vdW  Elec       q    Type
REMARK                         _______ _______ _______ _____ _____    ______ ____
ROOT
ATOM      1  C   UNL     1      47.573   3.247  16.778  0.00  0.00    +0.000 C 
ENDROOT
BRANCH   1   2
ATOM      2  C   UNL     1      48.962   3.478  17.309  0.00  0.00    +0.000 A 
ATOM      3  C   UNL     1      49.989   2.561  17.078  0.00  0.00    +0.000 A 
ATOM      4  C   UNL     1      51.272   2.775  17.611  0.00  0.00    +0.000 A 
ATOM      5  C   UNL     1      51.592   3.908  18.380  0.00  0.00    +0.000 A 
ATOM      6  C   UNL     1      50.536   4.808  18.598  0.00  0.00    +0.000 A 
ATOM      7  C   UNL     1      49.245   4.595  18.093  0.00  0.00    +0.000 A 
BRANCH   5   8
ATOM      8  N   UNL     1      52.857   4.073  18.948  0.00  0.00    +0.000 N 
ATOM      9  C   UNL     1      52.980   4.067  20.410  0.00  0.00    +0.000 C 
BRANCH   8  10
ATOM     10  C   UNL     1      54.073   3.618  18.238  0.00  0.00    +0.000 C 
BRANCH  10  11
ATOM     11  C   UNL     1      54.787   2.489  18.998  0.00  0.00    +0.000 C 
BRANCH  11  12
ATOM     12  C   UNL     1      54.787   1.187  18.245  0.00  0.00    +0.000 A 
ATOM     13  C   UNL     1      54.836   1.145  16.848  0.00  0.00    +0.000 A 
ATOM     14  C   UNL     1      54.863  -0.085  16.196  0.00  0.00    +0.000 A 
ATOM     15  C   UNL     1      54.828  -1.237  16.966  0.00  0.00    +0.000 A 
ATOM     16  N   UNL     1      54.761  -1.236  18.313  0.00  0.00    +0.000 NA
ATOM     17  C   UNL     1      54.744  -0.028  18.920  0.00  0.00    +0.000 A 
ENDBRANCH  11  12
ENDBRANCH  10  11
ENDBRANCH   8  10
ENDBRANCH   5   8
ENDBRANCH   1   2
BRANCH   1  20
ATOM     18  C   UNL     1      47.017   4.143  14.556  0.00  0.00    +0.000 C 
ATOM     19  O   UNL     1      47.237   3.050  14.030  0.00  0.00    +0.000 OA
ATOM     20  N   UNL     1      47.164   4.318  15.903  0.00  0.00    +0.000 N 
ATOM     21  H   UNL     1      47.051   5.236  16.312  0.00  0.00    +0.000 HD
BRANCH  18  29
ATOM     22  C   UNL     1      48.455   7.185  13.830  0.00  0.00    +0.000 A 
ATOM     23  N   UNL     1      48.766   8.428  13.414  0.00  0.00    +0.000 NA
ATOM     24  C   UNL     1      47.873   9.082  12.667  0.00  0.00    +0.000 A 
ATOM     25  N   UNL     1      46.684   8.638  12.269  0.00  0.00    +0.000 NA
ATOM     26  C   UNL     1      46.416   7.394  12.700  0.00  0.00    +0.000 A 
ATOM     27  S   UNL     1      44.941   6.665  12.283  0.00  0.00    +0.000 S 
ATOM     28  C   UNL     1      45.339   5.254  13.143  0.00  0.00    +0.000 A 
ATOM     29  C   UNL     1      46.584   5.303  13.760  0.00  0.00    +0.000 A 
ATOM     30  C   UNL     1      47.232   6.584  13.483  0.00  0.00    +0.000 A 
BRANCH  22  32
ATOM     31  C   UNL     1      49.978   7.258  15.609  0.00  0.00    +0.000 C 
ATOM     32  O   UNL     1      49.398   6.489  14.558  0.00  0.00    +0.000 OA
ENDBRANCH  22  32
ENDBRANCH  18  29
ENDBRANCH   1  20
TORSDOF 8
ENDMDL
