MODEL 1
REMARK VINA RESULT:    -6.574      0.000      0.000
REMARK INTER + INTRA:          -8.414
REMARK INTER:                  -8.688
REMARK INTRA:                   0.274
REMARK UNBOUND:                 0.274
REMARK  Name = 
REMARK  8 active torsions:
REMARK  status: ('A' for Active; 'I' for Inactive)
REMARK    1  A    between atoms: C_1  and  N_2
REMARK    2  A    between atoms: N_2  and  C_3
REMARK    3  A    between atoms: N_2  and  C_4
REMARK    4  A    between atoms: C_4  and  C_5
REMARK    5  A    between atoms: C_8  and  C_9
REMARK    6  A    between atoms: C_10  and  C_11
REMARK    7  A    between atoms: CA_14  and  C_15
REMARK    8  A    between atoms: C_15  and  OXT_17
REMARK                            x       y       z     vdW  Elec       q    Type
REMARK                         _______ _______ _______ _____ _____    ______ ____
ROOT
ATOM      1  C   UNL     1      46.369   4.777  13.968  0.00  0.00    +0.000 C 
ATOM      2  C   UNL     1      47.066   3.820  14.604  0.00  0.00    +0.000 C 
ENDROOT
BRANCH   1   6
ATOM      3  C   UNL     1      44.924   4.278   9.951  0.00  0.00    +0.000 A 
ATOM      4  C   UNL     1      45.538   5.480  10.328  0.00  0.00    +0.000 A 
ATOM      5  C   UNL     1      45.990   5.673  11.640  0.00  0.00    +0.000 A 
ATOM      6  C   UNL     1      45.825   4.671  12.604  0.00  0.00    +0.000 A 
ATOM      7  C   UNL     1      45.194   3.478  12.229  0.00  0.00    +0.000 A 
ATOM      8  C   UNL     1      44.739   3.285  10.921  0.00  0.00    +0.000 A 
BRANCH   3   9
ATOM      9  C   UNL     1      44.506   4.035   8.513  0.00  0.00    +0.000 C 
BRANCH   9  11
ATOM     10  C   UNL     1      46.657   3.871   7.383  0.00  0.00    +0.000 C 
ATOM     11  N   UNL     1      45.435   3.159   7.774  0.00  0.00    +0.000 NA
ATOM     12  C   UNL     1      45.794   1.996   8.590  0.00  0.00    +0.000 C 
ENDBRANCH   9  11
ENDBRANCH   3   9
ENDBRANCH   1   6
BRANCH   2  13
ATOM     13  C   UNL     1      47.578   3.953  15.976  0.00  0.00    +0.000 A 
ATOM     14  C   UNL     1      47.835   2.850  16.800  0.00  0.00    +0.000 A 
ATOM     15  C   UNL     1      48.351   3.036  18.082  0.00  0.00    +0.000 A 
ATOM     16  CA  UNL     1      48.612   4.331  18.500  0.00  0.00    +0.000 A 
ATOM     17  N   UNL     1      48.398   5.442  17.735  0.00  0.00    +0.000 NA
ATOM     18  C   UNL     1      47.893   5.214  16.494  0.00  0.00    +0.000 A 
BRANCH  16  19
ATOM     19  C   UNL     1      49.173   4.575  19.862  0.00  0.00    +0.000 C 
ATOM     20  O   UNL     1      50.071   5.361  20.114  0.00  0.00    +0.000 OA
BRANCH  19  21
ATOM     21  OXT UNL     1      48.552   3.803  20.785  0.00  0.00    +0.000 OA
ATOM     22  HXT UNL     1      47.945   3.181  20.315  0.00  0.00    +0.000 HD
ENDBRANCH  19  21
ENDBRANCH  16  19
ENDBRANCH   2  13
TORSDOF 6
ENDMDL
MODEL 2
REMARK VINA RESULT:    -5.651      4.255      9.282
REMARK INTER + INTRA:          -7.194
REMARK INTER:                  -7.221
REMARK INTRA:                   0.027
REMARK UNBOUND:                 0.274
REMARK  Name = 
REMARK  8 active torsions:
REMARK  status: ('A' for Active; 'I' for Inactive)
REMARK    1  A    between atoms: C_1  and  N_2
REMARK    2  A    between atoms: N_2  and  C_3
REMARK    3  A    between atoms: N_2  and  C_4
REMARK    4  A    between atoms: C_4  and  C_5
REMARK    5  A    between atoms: C_8  and  C_9
REMARK    6  A    between atoms: C_10  and  C_11
REMARK    7  A    between atoms: CA_14  and  C_15
REMARK    8  A    between atoms: C_15  and  OXT_17
REMARK                            x       y       z     vdW  Elec       q    Type
REMARK                         _______ _______ _______ _____ _____    ______ ____
ROOT
ATOM      1  C   UNL     1      47.211   4.187  15.345  0.00  0.00    +0.000 C 
ATOM      2  C   UNL     1      47.043   5.133  14.405  0.00  0.00    +0.000 C 
ENDROOT
BRANCH   1   6
ATOM      3  C   UNL     1      48.949   4.685  19.245  0.00  0.00    +0.000 A 
ATOM      4  C   UNL     1      48.809   5.792  18.396  0.00  0.00    +0.000 A 
ATOM      5  C   UNL     1      48.272   5.645  17.111  0.00  0.00    +0.000 A 
ATOM      6  C   UNL     1      47.875   4.386  16.644  0.00  0.00    +0.000 A 
ATOM      7  C   UNL     1      48.032   3.279  17.488  0.00  0.00    +0.000 A 
ATOM      8  C   UNL     1      48.572   3.423  18.770  0.00  0.00    +0.000 A 
BRANCH   3   9
ATOM      9  C   UNL     1      49.455   4.853  20.665  0.00  0.00    +0.000 C 
BRANCH   9  11
ATOM     10  C   UNL     1      51.610   4.595  19.561  0.00  0.00    +0.000 C 
ATOM     11  N   UNL     1      50.907   5.107  20.742  0.00  0.00    +0.000 NA
ATOM     12  C   UNL     1      51.165   6.543  20.873  0.00  0.00    +0.000 C 
ENDBRANCH   9  11
ENDBRANCH   3   9
ENDBRANCH   1   6
BRANCH   2  13
ATOM     13  C   UNL     1      46.357   4.902  13.125  0.00  0.00    +0.000 A 
ATOM     14  C   UNL     1      46.340   5.849  12.093  0.00  0.00    +0.000 A 
ATOM     15  C   UNL     1      45.699   5.562  10.888  0.00  0.00    +0.000 A 
ATOM     16  CA  UNL     1      45.103   4.320  10.743  0.00  0.00    +0.000 A 
ATOM     17  N   UNL     1      45.104   3.353  11.707  0.00  0.00    +0.000 NA
ATOM     18  C   UNL     1      45.736   3.675  12.865  0.00  0.00    +0.000 A 
BRANCH  16  19
ATOM     19  C   UNL     1      44.415   3.969   9.466  0.00  0.00    +0.000 C 
ATOM     20  O   UNL     1      44.700   3.015   8.761  0.00  0.00    +0.000 OA
BRANCH  19  21
ATOM     21  OXT UNL     1      43.427   4.854   9.191  0.00  0.00    +0.000 OA
ATOM     22  HXT UNL     1      42.629   4.606   9.718  0.00  0.00    +0.000 HD
ENDBRANCH  19  21
ENDBRANCH  16  19
ENDBRANCH   2  13
TORSDOF 6
ENDMDL
MODEL 3
REMARK VINA RESULT:    -5.434      6.277      8.561
REMARK INTER + INTRA:          -6.907
REMARK INTER:                  -6.423
REMARK INTRA:                  -0.484
REMARK UNBOUND:                 0.274
REMARK  Name = 
REMARK  8 active torsions:
REMARK  status: ('A' for Active; 'I' for Inactive)
REMARK    1  A    between atoms: C_1  and  N_2
REMARK    2  A    between atoms: N_2  and  C_3
REMARK    3  A    between atoms: N_2  and  C_4
REMARK    4  A    between atoms: C_4  and  C_5
REMARK    5  A    between atoms: C_8  and  C_9
REMARK    6  A    between atoms: C_10  and  C_11
REMARK    7  A    between atoms: CA_14  and  C_15
REMARK    8  A    between atoms: C_15  and  OXT_17
REMARK                            x       y       z     vdW  Elec       q    Type
REMARK                         _______ _______ _______ _____ _____    ______ ____
ROOT
ATOM      1  C   UNL     1      48.682   7.356  11.637  0.00  0.00    +0.000 C 
ATOM      2  C   UNL     1      47.867   7.014  12.649  0.00  0.00    +0.000 C 
ENDROOT
BRANCH   1   6
ATOM      3  C   UNL     1      52.215   9.770  12.042  0.00  0.00    +0.000 A 
ATOM      4  C   UNL     1      51.044  10.125  12.727  0.00  0.00    +0.000 A 
ATOM      5  C   UNL     1      49.875   9.367  12.585  0.00  0.00    +0.000 A 
ATOM      6  C   UNL     1      49.849   8.247  11.746  0.00  0.00    +0.000 A 
ATOM      7  C   UNL     1      51.015   7.905  11.050  0.00  0.00    +0.000 A 
ATOM      8  C   UNL     1      52.183   8.663  11.187  0.00  0.00    +0.000 A 
BRANCH   3   9
ATOM      9  C   UNL     1      53.504  10.541  12.255  0.00  0.00    +0.000 C 
BRANCH   9  11
ATOM     10  C   UNL     1      55.628   9.433  12.696  0.00  0.00    +0.000 C 
ATOM     11  N   UNL     1      54.381   9.941  13.279  0.00  0.00    +0.000 NA
ATOM     12  C   UNL     1      54.700  10.925  14.316  0.00  0.00    +0.000 C 
ENDBRANCH   9  11
ENDBRANCH   3   9
ENDBRANCH   1   6
BRANCH   2  13
ATOM     13  C   UNL     1      46.720   6.104  12.507  0.00  0.00    +0.000 A 
ATOM     14  C   UNL     1      45.894   6.096  11.376  0.00  0.00    +0.000 A 
ATOM     15  C   UNL     1      44.839   5.189  11.283  0.00  0.00    +0.000 A 
ATOM     16  CA  UNL     1      44.650   4.297  12.326  0.00  0.00    +0.000 A 
ATOM     17  N   UNL     1      45.434   4.246  13.443  0.00  0.00    +0.000 NA
ATOM     18  C   UNL     1      46.448   5.150  13.494  0.00  0.00    +0.000 A 
BRANCH  16  19
ATOM     19  C   UNL     1      43.539   3.302  12.263  0.00  0.00    +0.000 C 
ATOM     20  O   UNL     1      43.457   2.305  12.960  0.00  0.00    +0.000 OA
BRANCH  19  21
ATOM     21  OXT UNL     1      42.629   3.654  11.323  0.00  0.00    +0.000 OA
ATOM     22  HXT UNL     1      41.960   4.247  11.743  0.00  0.00    +0.000 HD
ENDBRANCH  19  21
ENDBRANCH  16  19
ENDBRANCH   2  13
TORSDOF 6
ENDMDL
MODEL 4
REMARK VINA RESULT:    -5.310      5.693      8.987
REMARK INTER + INTRA:          -6.743
REMARK INTER:                  -6.242
REMARK INTRA:                  -0.501
REMARK UNBOUND:                 0.274
REMARK  Name = 
REMARK  8 active torsions:
REMARK  status: ('A' for Active; 'I' for Inactive)
REMARK    1  A    between atoms: C_1  and  N_2
REMARK    2  A    between atoms: N_2  and  C_3
REMARK    3  A    between atoms: N_2  and  C_4
REMARK    4  A    between atoms: C_4  and  C_5
REMARK    5  A    between atoms: C_8  and  C_9
REMARK    6  A    between atoms: C_10  and  C_11
REMARK    7  A    between atoms: CA_14  and  C_15
REMARK    8  A    between atoms: C_15  and  OXT_17
REMARK                            x       y       z     vdW  Elec       q    Type
REMARK                         _______ _______ _______ _____ _____    ______ ____
ROOT
ATOM      1  C   UNL     1      48.636   6.996  13.081  0.00  0.00    +0.000 C 
ATOM      2  C   UNL     1      47.823   6.104  13.673  0.00  0.00    +0.000 C 
ENDROOT
BRANCH   1   6
ATOM      3  C   UNL     1      51.673   9.187  15.190  0.00  0.00    +0.000 A 
ATOM      4  C   UNL     1      51.368   9.519  13.862  0.00  0.00    +0.000 A 
ATOM      5  C   UNL     1      50.401   8.798  13.150  0.00  0.00    +0.000 A 
ATOM      6  C   UNL     1      49.730   7.723  13.745  0.00  0.00    +0.000 A 
ATOM      7  C   UNL     1      50.051   7.383  15.066  0.00  0.00    +0.000 A 
ATOM      8  C   UNL     1      51.018   8.099  15.778  0.00  0.00    +0.000 A 
BRANCH   3   9
ATOM      9  C   UNL     1      52.660  10.016  15.991  0.00  0.00    +0.000 C 
BRANCH   9  11
ATOM     10  C   UNL     1      55.016  10.086  15.375  0.00  0.00    +0.000 C 
ATOM     11  N   UNL     1      53.981   9.374  16.133  0.00  0.00    +0.000 NA
ATOM     12  C   UNL     1      54.370   9.318  17.544  0.00  0.00    +0.000 C 
ENDBRANCH   9  11
ENDBRANCH   3   9
ENDBRANCH   1   6
BRANCH   2  13
ATOM     13  C   UNL     1      46.751   5.380  12.972  0.00  0.00    +0.000 A 
ATOM     14  C   UNL     1      46.128   5.877  11.821  0.00  0.00    +0.000 A 
ATOM     15  C   UNL     1      45.139   5.132  11.181  0.00  0.00    +0.000 A 
ATOM     16  CA  UNL     1      44.810   3.893  11.707  0.00  0.00    +0.000 A 
ATOM     17  N   UNL     1      45.396   3.351  12.814  0.00  0.00    +0.000 NA
ATOM     18  C   UNL     1      46.353   4.112  13.408  0.00  0.00    +0.000 A 
BRANCH  16  19
ATOM     19  C   UNL     1      43.763   3.058  11.047  0.00  0.00    +0.000 C 
ATOM     20  O   UNL     1      42.997   2.311  11.634  0.00  0.00    +0.000 OA
BRANCH  19  21
ATOM     21  OXT UNL     1      43.776   3.239   9.705  0.00  0.00    +0.000 OA
ATOM     22  HXT UNL     1      44.713   3.344   9.413  0.00  0.00    +0.000 HD
ENDBRANCH  19  21
ENDBRANCH  16  19
ENDBRANCH   2  13
TORSDOF 6
ENDMDL
MODEL 5
REMARK VINA RESULT:    -5.178      4.986      9.142
REMARK INTER + INTRA:          -6.568
REMARK INTER:                  -6.114
REMARK INTRA:                  -0.454
REMARK UNBOUND:                 0.274
REMARK  Name = 
REMARK  8 active torsions:
REMARK  status: ('A' for Active; 'I' for Inactive)
REMARK    1  A    between atoms: C_1  and  N_2
REMARK    2  A    between atoms: N_2  and  C_3
REMARK    3  A    between atoms: N_2  and  C_4
REMARK    4  A    between atoms: C_4  and  C_5
REMARK    5  A    between atoms: C_8  and  C_9
REMARK    6  A    between atoms: C_10  and  C_11
REMARK    7  A    between atoms: CA_14  and  C_15
REMARK    8  A    between atoms: C_15  and  OXT_17
REMARK                            x       y       z     vdW  Elec       q    Type
REMARK                         _______ _______ _______ _____ _____    ______ ____
ROOT
ATOM      1  C   UNL     1      48.270   6.161  15.032  0.00  0.00    +0.000 C 
ATOM      2  C   UNL     1      47.888   6.317  13.753  0.00  0.00    +0.000 C 
ENDROOT
BRANCH   1   6
ATOM      3  C   UNL     1      51.405   8.362  16.982  0.00  0.00    +0.000 A 
ATOM      4  C   UNL     1      50.307   7.905  17.724  0.00  0.00    +0.000 A 
ATOM      5  C   UNL     1      49.262   7.211  17.101  0.00  0.00    +0.000 A 
ATOM      6  C   UNL     1      49.288   6.971  15.722  0.00  0.00    +0.000 A 
ATOM      7  C   UNL     1      50.378   7.444  14.981  0.00  0.00    +0.000 A 
ATOM      8  C   UNL     1      51.421   8.141  15.600  0.00  0.00    +0.000 A 
BRANCH   3   9
ATOM      9  C   UNL     1      52.576   9.043  17.665  0.00  0.00    +0.000 C 
BRANCH   9  11
ATOM     10  C   UNL     1      54.996   8.772  17.671  0.00  0.00    +0.000 C 
ATOM     11  N   UNL     1      53.704   8.132  17.938  0.00  0.00    +0.000 NA
ATOM     12  C   UNL     1      53.668   7.681  19.331  0.00  0.00    +0.000 C 
ENDBRANCH   9  11
ENDBRANCH   3   9
ENDBRANCH   1   6
BRANCH   2  13
ATOM     13  C   UNL     1      46.853   5.501  13.101  0.00  0.00    +0.000 A 
ATOM     14  C   UNL     1      46.102   5.958  12.011  0.00  0.00    +0.000 A 
ATOM     15  C   UNL     1      45.155   5.128  11.413  0.00  0.00    +0.000 A 
ATOM     16  CA  UNL     1      44.997   3.847  11.917  0.00  0.00    +0.000 A 
ATOM     17  N   UNL     1      45.713   3.341  12.964  0.00  0.00    +0.000 NA
ATOM     18  C   UNL     1      46.623   4.185  13.519  0.00  0.00    +0.000 A 
BRANCH  16  19
ATOM     19  C   UNL     1      44.001   2.921  11.301  0.00  0.00    +0.000 C 
ATOM     20  O   UNL     1      43.795   2.819  10.103  0.00  0.00    +0.000 OA
BRANCH  19  21
ATOM     21  OXT UNL     1      43.352   2.207  12.251  0.00  0.00    +0.000 OA
ATOM     22  HXT UNL     1      44.021   1.705  12.776  0.00  0.00    +0.000 HD
ENDBRANCH  19  21
ENDBRANCH  16  19
ENDBRANCH   2  13
TORSDOF 6
ENDMDL
MODEL 6
REMARK VINA RESULT:    -5.026      5.139      9.401
REMARK INTER + INTRA:          -6.368
REMARK INTER:                  -5.897
REMARK INTRA:                  -0.471
REMARK UNBOUND:                 0.274
REMARK  Name = 
REMARK  8 active torsions:
REMARK  status: ('A' for Active; 'I' for Inactive)
REMARK    1  A    between atoms: C_1  and  N_2
REMARK    2  A    between atoms: N_2  and  C_3
REMARK    3  A    between atoms: N_2  and  C_4
REMARK    4  A    between atoms: C_4  and  C_5
REMARK    5  A    between atoms: C_8  and  C_9
REMARK    6  A    between atoms: C_10  and  C_11
REMARK    7  A    between atoms: CA_14  and  C_15
REMARK    8  A    between atoms: C_15  and  OXT_17
REMARK                            x       y       z     vdW  Elec       q    Type
REMARK                         _______ _______ _______ _____ _____    ______ ____
ROOT
ATOM      1  C   UNL     1      48.429   6.602  13.706  0.00  0.00    +0.000 C 
ATOM      2  C   UNL     1      47.092   6.565  13.572  0.00  0.00    +0.000 C 
ENDROOT
BRANCH   1   6
ATOM      3  C   UNL     1      50.361   8.943  16.749  0.00  0.00    +0.000 A 
ATOM      4  C   UNL     1      50.428   9.349  15.409  0.00  0.00    +0.000 A 
ATOM      5  C   UNL     1      49.828   8.585  14.400  0.00  0.00    +0.000 A 
ATOM      6  C   UNL     1      49.162   7.392  14.709  0.00  0.00    +0.000 A 
ATOM      7  C   UNL     1      49.114   6.981  16.047  0.00  0.00    +0.000 A 
ATOM      8  C   UNL     1      49.715   7.740  17.056  0.00  0.00    +0.000 A 
BRANCH   3   9
ATOM      9  C   UNL     1      50.939   9.809  17.853  0.00  0.00    +0.000 C 
BRANCH   9  11
ATOM     10  C   UNL     1      51.235   9.095  20.162  0.00  0.00    +0.000 C 
ATOM     11  N   UNL     1      50.289   9.599  19.161  0.00  0.00    +0.000 NA
ATOM     12  C   UNL     1      49.699  10.850  19.642  0.00  0.00    +0.000 C 
ENDBRANCH   9  11
ENDBRANCH   3   9
ENDBRANCH   1   6
BRANCH   2  13
ATOM     13  C   UNL     1      46.392   5.747  12.569  0.00  0.00    +0.000 A 
ATOM     14  C   UNL     1      45.812   4.509  12.871  0.00  0.00    +0.000 A 
ATOM     15  C   UNL     1      45.133   3.793  11.887  0.00  0.00    +0.000 A 
ATOM     16  CA  UNL     1      45.039   4.349  10.621  0.00  0.00    +0.000 A 
ATOM     17  N   UNL     1      45.568   5.559  10.274  0.00  0.00    +0.000 NA
ATOM     18  C   UNL     1      46.224   6.221  11.263  0.00  0.00    +0.000 A 
BRANCH  16  19
ATOM     19  C   UNL     1      44.312   3.619   9.540  0.00  0.00    +0.000 C 
ATOM     20  O   UNL     1      44.263   2.405   9.431  0.00  0.00    +0.000 OA
BRANCH  19  21
ATOM     21  OXT UNL     1      43.714   4.488   8.690  0.00  0.00    +0.000 OA
ATOM     22  HXT UNL     1      44.338   4.680   7.949  0.00  0.00    +0.000 HD
ENDBRANCH  19  21
ENDBRANCH  16  19
ENDBRANCH   2  13
TORSDOF 6
ENDMDL
MODEL 7
REMARK VINA RESULT:    -4.984     10.183     11.248
REMARK INTER + INTRA:          -6.312
REMARK INTER:                  -5.846
REMARK INTRA:                  -0.465
REMARK UNBOUND:                 0.274
REMARK  Name = 
REMARK  8 active torsions:
REMARK  status: ('A' for Active; 'I' for Inactive)
REMARK    1  A    between atoms: C_1  and  N_2
REMARK    2  A    between atoms: N_2  and  C_3
REMARK    3  A    between atoms: N_2  and  C_4
REMARK    4  A    between atoms: C_4  and  C_5
REMARK    5  A    between atoms: C_8  and  C_9
REMARK    6  A    between atoms: C_10  and  C_11
REMARK    7  A    between atoms: CA_14  and  C_15
REMARK    8  A    between atoms: C_15  and  OXT_17
REMARK                            x       y       z     vdW  Elec       q    Type
REMARK                         _______ _______ _______ _____ _____    ______ ____
ROOT
ATOM      1  C   UNL     1      41.887  -3.258  16.990  0.00  0.00    +0.000 C 
ATOM      2  C   UNL     1      42.278  -4.167  17.899  0.00  0.00    +0.000 C 
ENDROOT
BRANCH   1   6
ATOM      3  C   UNL     1      38.668  -0.427  17.311  0.00  0.00    +0.000 A 
ATOM      4  C   UNL     1      39.183  -1.032  18.466  0.00  0.00    +0.000 A 
ATOM      5  C   UNL     1      40.213  -1.978  18.380  0.00  0.00    +0.000 A 
ATOM      6  C   UNL     1      40.739  -2.347  17.135  0.00  0.00    +0.000 A 
ATOM      7  C   UNL     1      40.209  -1.754  15.982  0.00  0.00    +0.000 A 
ATOM      8  C   UNL     1      39.179  -0.812  16.066  0.00  0.00    +0.000 A 
BRANCH   3   9
ATOM      9  C   UNL     1      37.609   0.656  17.407  0.00  0.00    +0.000 C 
BRANCH   9  11
ATOM     10  C   UNL     1      36.699   2.422  16.000  0.00  0.00    +0.000 C 
ATOM     11  N   UNL     1      37.912   1.843  16.585  0.00  0.00    +0.000 NA
ATOM     12  C   UNL     1      38.591   2.859  17.392  0.00  0.00    +0.000 C 
ENDBRANCH   9  11
ENDBRANCH   3   9
ENDBRANCH   1   6
BRANCH   2  13
ATOM     13  C   UNL     1      43.443  -5.048  17.728  0.00  0.00    +0.000 A 
ATOM     14  C   UNL     1      44.618  -4.904  18.476  0.00  0.00    +0.000 A 
ATOM     15  C   UNL     1      45.680  -5.789  18.293  0.00  0.00    +0.000 A 
ATOM     16  CA  UNL     1      45.528  -6.811  17.371  0.00  0.00    +0.000 A 
ATOM     17  N   UNL     1      44.400  -7.011  16.628  0.00  0.00    +0.000 NA
ATOM     18  C   UNL     1      43.392  -6.124  16.836  0.00  0.00    +0.000 A 
BRANCH  16  19
ATOM     19  C   UNL     1      46.637  -7.787  17.150  0.00  0.00    +0.000 C 
ATOM     20  O   UNL     1      47.046  -8.575  17.987  0.00  0.00    +0.000 OA
BRANCH  19  21
ATOM     21  OXT UNL     1      47.131  -7.679  15.894  0.00  0.00    +0.000 OA
ATOM     22  HXT UNL     1      46.513  -8.137  15.275  0.00  0.00    +0.000 HD
ENDBRANCH  19  21
ENDBRANCH  16  19
ENDBRANCH   2  13
TORSDOF 6
ENDMDL
MODEL 8
REMARK VINA RESULT:    -4.908     10.120     12.998
REMARK INTER + INTRA:          -6.211
REMARK INTER:                  -5.752
REMARK INTRA:                  -0.459
REMARK UNBOUND:                 0.274
REMARK  Name = 
REMARK  8 active torsions:
REMARK  status: ('A' for Active; 'I' for Inactive)
REMARK    1  A    between atoms: C_1  and  N_2
REMARK    2  A    between atoms: N_2  and  C_3
REMARK    3  A    between atoms: N_2  and  C_4
REMARK    4  A    between atoms: C_4  and  C_5
REMARK    5  A    between atoms: C_8  and  C_9
REMARK    6  A    between atoms: C_10  and  C_11
REMARK    7  A    between atoms: CA_14  and  C_15
REMARK    8  A    between atoms: C_15  and  OXT_17
REMARK                            x       y       z     vdW  Elec       q    Type
REMARK                         _______ _______ _______ _____ _____    ______ ____
ROOT
ATOM      1  C   UNL     1      41.428  -4.048  15.394  0.00  0.00    +0.000 C 
ATOM      2  C   UNL     1      41.543  -4.010  14.056  0.00  0.00    +0.000 C 
ENDROOT
BRANCH   1   6
ATOM      3  C   UNL     1      44.038  -6.257  17.998  0.00  0.00    +0.000 A 
ATOM      4  C   UNL     1      43.491  -6.879  16.866  0.00  0.00    +0.000 A 
ATOM      5  C   UNL     1      42.616  -6.184  16.021  0.00  0.00    +0.000 A 
ATOM      6  C   UNL     1      42.260  -4.858  16.298  0.00  0.00    +0.000 A 
ATOM      7  C   UNL     1      42.795  -4.246  17.439  0.00  0.00    +0.000 A 
ATOM      8  C   UNL     1      43.666  -4.939  18.286  0.00  0.00    +0.000 A 
BRANCH   3   9
ATOM      9  C   UNL     1      45.048  -6.980  18.870  0.00  0.00    +0.000 C 
BRANCH   9  11
ATOM     10  C   UNL     1      47.150  -6.175  17.939  0.00  0.00    +0.000 C 
ATOM     11  N   UNL     1      46.286  -7.341  18.153  0.00  0.00    +0.000 NA
ATOM     12  C   UNL     1      47.027  -8.360  18.901  0.00  0.00    +0.000 C 
ENDBRANCH   9  11
ENDBRANCH   3   9
ENDBRANCH   1   6
BRANCH   2  13
ATOM     13  C   UNL     1      40.705  -3.172  13.184  0.00  0.00    +0.000 A 
ATOM     14  C   UNL     1      41.027  -2.910  11.847  0.00  0.00    +0.000 A 
ATOM     15  C   UNL     1      40.178  -2.134  11.059  0.00  0.00    +0.000 A 
ATOM     16  CA  UNL     1      39.013  -1.652  11.633  0.00  0.00    +0.000 A 
ATOM     17  N   UNL     1      38.638  -1.890  12.924  0.00  0.00    +0.000 NA
ATOM     18  C   UNL     1      39.496  -2.648  13.656  0.00  0.00    +0.000 A 
BRANCH  16  19
ATOM     19  C   UNL     1      38.070  -0.825  10.822  0.00  0.00    +0.000 C 
ATOM     20  O   UNL     1      37.194  -1.273  10.102  0.00  0.00    +0.000 OA
BRANCH  19  21
ATOM     21  OXT UNL     1      38.319   0.496  10.992  0.00  0.00    +0.000 OA
ATOM     22  HXT UNL     1      37.574   0.891  11.506  0.00  0.00    +0.000 HD
ENDBRANCH  19  21
ENDBRANCH  16  19
ENDBRANCH   2  13
TORSDOF 6
ENDMDL
MODEL 9
REMARK VINA RESULT:    -4.587     10.218     12.332
REMARK INTER + INTRA:          -5.788
REMARK INTER:                  -5.288
REMARK INTRA:                  -0.500
REMARK UNBOUND:                 0.274
REMARK  Name = 
REMARK  8 active torsions:
REMARK  status: ('A' for Active; 'I' for Inactive)
REMARK    1  A    between atoms: C_1  and  N_2
REMARK    2  A    between atoms: N_2  and  C_3
REMARK    3  A    between atoms: N_2  and  C_4
REMARK    4  A    between atoms: C_4  and  C_5
REMARK    5  A    between atoms: C_8  and  C_9
REMARK    6  A    between atoms: C_10  and  C_11
REMARK    7  A    between atoms: CA_14  and  C_15
REMARK    8  A    between atoms: C_15  and  OXT_17
REMARK                            x       y       z     vdW  Elec       q    Type
REMARK                         _______ _______ _______ _____ _____    ______ ____
ROOT
ATOM      1  C   UNL     1      42.616  -4.047  17.747  0.00  0.00    +0.000 C 
ATOM      2  C   UNL     1      41.942  -3.670  16.648  0.00  0.00    +0.000 C 
ENDROOT
BRANCH   1   6
ATOM      3  C   UNL     1      45.713  -7.023  17.919  0.00  0.00    +0.000 A 
ATOM      4  C   UNL     1      45.860  -5.821  18.626  0.00  0.00    +0.000 A 
ATOM      5  C   UNL     1      44.875  -4.828  18.560  0.00  0.00    +0.000 A 
ATOM      6  C   UNL     1      43.729  -5.011  17.775  0.00  0.00    +0.000 A 
ATOM      7  C   UNL     1      43.595  -6.205  17.056  0.00  0.00    +0.000 A 
ATOM      8  C   UNL     1      44.579  -7.197  17.117  0.00  0.00    +0.000 A 
BRANCH   3   9
ATOM      9  C   UNL     1      46.739  -8.133  18.052  0.00  0.00    +0.000 C 
BRANCH   9  11
ATOM     10  C   UNL     1      49.157  -8.416  18.104  0.00  0.00    +0.000 C 
ATOM     11  N   UNL     1      48.021  -7.827  17.389  0.00  0.00    +0.000 NA
ATOM     12  C   UNL     1      48.010  -8.320  16.010  0.00  0.00    +0.000 C 
ENDBRANCH   9  11
ENDBRANCH   3   9
ENDBRANCH   1   6
BRANCH   2  13
ATOM     13  C   UNL     1      40.847  -2.688  16.655  0.00  0.00    +0.000 A 
ATOM     14  C   UNL     1      40.312  -2.157  17.835  0.00  0.00    +0.000 A 
ATOM     15  C   UNL     1      39.294  -1.206  17.779  0.00  0.00    +0.000 A 
ATOM     16  CA  UNL     1      38.849  -0.797  16.532  0.00  0.00    +0.000 A 
ATOM     17  N   UNL     1      39.345  -1.266  15.349  0.00  0.00    +0.000 NA
ATOM     18  C   UNL     1      40.333  -2.194  15.451  0.00  0.00    +0.000 A 
BRANCH  16  19
ATOM     19  C   UNL     1      37.767   0.227  16.426  0.00  0.00    +0.000 C 
ATOM     20  O   UNL     1      37.447   0.797  15.396  0.00  0.00    +0.000 OA
BRANCH  19  21
ATOM     21  OXT UNL     1      37.187   0.441  17.631  0.00  0.00    +0.000 OA
ATOM     22  HXT UNL     1      36.702  -0.378  17.895  0.00  0.00    +0.000 HD
ENDBRANCH  19  21
ENDBRANCH  16  19
ENDBRANCH   2  13
TORSDOF 6
ENDMDL
