MODEL 1
REMARK VINA RESULT:    -7.621      0.000      0.000
REMARK INTER + INTRA:         -11.798
REMARK INTER:                 -10.739
REMARK INTRA:                  -1.059
REMARK UNBOUND:                -1.059
REMARK  Name = 
REMARK  8 active torsions:
REMARK  status: ('A' for Active; 'I' for Inactive)
REMARK    1  A    between atoms: C_1  and  O_2
REMARK    2  A    between atoms: O_2  and  C_3
REMARK    3  A    between atoms: C_8  and  C_9
REMARK    4  A    between atoms: C_9  and  N_10
REMARK    5  A    between atoms: N_10  and  C_11
REMARK    6  A    between atoms: C_14  and  C_15
REMARK    7  A    between atoms: C_15  and  N_16
REMARK    8  A    between atoms: C_17  and  C_19
REMARK                            x       y       z     vdW  Elec       q    Type
REMARK                         _______ _______ _______ _____ _____    ______ ____
ROOT
ATOM      1  C   UNL     1      45.529   7.168  11.530  0.00  0.00    +0.000 A 
ATOM      2  C   UNL     1      46.777   6.570  11.727  0.00  0.00    +0.000 A 
ATOM      3  C   UNL     1      47.652   7.050  12.715  0.00  0.00    +0.000 A 
ATOM      4  C   UNL     1      47.279   8.155  13.477  0.00  0.00    +0.000 A 
ATOM      5  N   UNL     1      46.130   8.824  13.235  0.00  0.00    +0.000 NA
ATOM      6  C   UNL     1      45.308   8.326  12.277  0.00  0.00    +0.000 A 
ENDROOT
BRANCH   1   7
ATOM      7  N   UNL     1      44.646   6.695  10.546  0.00  0.00    +0.000 N 
ATOM      8  H   UNL     1      45.070   6.691   9.620  0.00  0.00    +0.000 HD
BRANCH   7   9
ATOM      9  C   UNL     1      43.961   5.416  10.821  0.00  0.00    +0.000 C 
BRANCH   9  15
ATOM     10  C   UNL     1      44.187   2.963  10.095  0.00  0.00    +0.000 A 
ATOM     11  C   UNL     1      44.778   2.009   9.255  0.00  0.00    +0.000 A 
ATOM     12  C   UNL     1      45.632   2.400   8.221  0.00  0.00    +0.000 A 
ATOM     13  C   UNL     1      45.882   3.748   7.998  0.00  0.00    +0.000 A 
ATOM     14  C   UNL     1      45.319   4.702   8.840  0.00  0.00    +0.000 A 
ATOM     15  C   UNL     1      44.494   4.325   9.916  0.00  0.00    +0.000 A 
BRANCH  10  17
ATOM     16  C   UNL     1      43.738   2.564  12.399  0.00  0.00    +0.000 C 
ATOM     17  O   UNL     1      43.263   2.653  11.059  0.00  0.00    +0.000 OA
ENDBRANCH  10  17
ENDBRANCH   9  15
ENDBRANCH   7   9
ENDBRANCH   1   7
BRANCH   4  18
ATOM     18  C   UNL     1      48.137   8.663  14.614  0.00  0.00    +0.000 C 
BRANCH  18  19
ATOM     19  N   UNL     1      48.351   7.655  15.623  0.00  0.00    +0.000 N 
ATOM     20  C   UNL     1      49.540   6.986  15.751  0.00  0.00    +0.000 C 
ATOM     21  O   UNL     1      50.517   7.233  15.049  0.00  0.00    +0.000 OA
ATOM     22  H   UNL     1      47.504   7.215  15.974  0.00  0.00    +0.000 HD
BRANCH  20  23
ATOM     23  C   UNL     1      49.605   6.004  16.839  0.00  0.00    +0.000 A 
ATOM     24  C   UNL     1      50.582   6.119  17.818  0.00  0.00    +0.000 A 
ATOM     25  S   UNL     1      50.470   4.928  19.036  0.00  0.00    +0.000 S 
ATOM     26  C   UNL     1      49.143   4.188  18.267  0.00  0.00    +0.000 A 
ATOM     27  N   UNL     1      48.569   3.069  18.783  0.00  0.00    +0.000 NA
ATOM     28  C   UNL     1      47.593   2.597  18.081  0.00  0.00    +0.000 A 
ATOM     29  N   UNL     1      47.125   3.152  16.911  0.00  0.00    +0.000 N 
ATOM     30  C   UNL     1      47.647   4.308  16.382  0.00  0.00    +0.000 A 
ATOM     31  O   UNL     1      47.165   4.819  15.376  0.00  0.00    +0.000 OA
ATOM     32  C   UNL     1      48.774   4.858  17.114  0.00  0.00    +0.000 A 
ATOM     33  H   UNL     1      46.342   2.752  16.428  0.00  0.00    +0.000 HD
ENDBRANCH  20  23
ENDBRANCH  18  19
ENDBRANCH   4  18
TORSDOF 7
ENDMDL
MODEL 2
REMARK VINA RESULT:    -7.249      2.803      4.087
REMARK INTER + INTRA:         -11.274
REMARK INTER:                 -10.450
REMARK INTRA:                  -0.824
REMARK UNBOUND:                -1.059
REMARK  Name = 
REMARK  8 active torsions:
REMARK  status: ('A' for Active; 'I' for Inactive)
REMARK    1  A    between atoms: C_1  and  O_2
REMARK    2  A    between atoms: O_2  and  C_3
REMARK    3  A    between atoms: C_8  and  C_9
REMARK    4  A    between atoms: C_9  and  N_10
REMARK    5  A    between atoms: N_10  and  C_11
REMARK    6  A    between atoms: C_14  and  C_15
REMARK    7  A    between atoms: C_15  and  N_16
REMARK    8  A    between atoms: C_17  and  C_19
REMARK                            x       y       z     vdW  Elec       q    Type
REMARK                         _______ _______ _______ _____ _____    ______ ____
ROOT
ATOM      1  C   UNL     1      47.204   5.687  13.258  0.00  0.00    +0.000 A 
ATOM      2  C   UNL     1      46.687   4.400  13.435  0.00  0.00    +0.000 A 
ATOM      3  C   UNL     1      46.833   3.733  14.662  0.00  0.00    +0.000 A 
ATOM      4  C   UNL     1      47.530   4.355  15.696  0.00  0.00    +0.000 A 
ATOM      5  N   UNL     1      48.137   5.549  15.521  0.00  0.00    +0.000 NA
ATOM      6  C   UNL     1      47.969   6.164  14.323  0.00  0.00    +0.000 A 
ENDROOT
BRANCH   1   7
ATOM      7  N   UNL     1      47.062   6.363  12.035  0.00  0.00    +0.000 N 
ATOM      8  H   UNL     1      47.653   5.966  11.307  0.00  0.00    +0.000 HD
BRANCH   7   9
ATOM      9  C   UNL     1      45.686   6.576  11.544  0.00  0.00    +0.000 C 
BRANCH   9  15
ATOM     10  C   UNL     1      44.273   4.559  10.817  0.00  0.00    +0.000 A 
ATOM     11  C   UNL     1      44.024   3.539   9.888  0.00  0.00    +0.000 A 
ATOM     12  C   UNL     1      44.755   3.462   8.701  0.00  0.00    +0.000 A 
ATOM     13  C   UNL     1      45.721   4.418   8.415  0.00  0.00    +0.000 A 
ATOM     14  C   UNL     1      45.992   5.422   9.341  0.00  0.00    +0.000 A 
ATOM     15  C   UNL     1      45.300   5.488  10.565  0.00  0.00    +0.000 A 
BRANCH  10  17
ATOM     16  C   UNL     1      42.309   5.480  11.801  0.00  0.00    +0.000 C 
ATOM     17  O   UNL     1      43.524   4.750  11.950  0.00  0.00    +0.000 OA
ENDBRANCH  10  17
ENDBRANCH   9  15
ENDBRANCH   7   9
ENDBRANCH   1   7
BRANCH   4  18
ATOM     18  C   UNL     1      47.644   3.727  17.067  0.00  0.00    +0.000 C 
BRANCH  18  19
ATOM     19  N   UNL     1      49.016   3.480  17.437  0.00  0.00    +0.000 N 
ATOM     20  C   UNL     1      49.743   2.447  16.905  0.00  0.00    +0.000 C 
ATOM     21  O   UNL     1      49.293   1.694  16.046  0.00  0.00    +0.000 OA
ATOM     22  H   UNL     1      49.289   3.852  18.343  0.00  0.00    +0.000 HD
BRANCH  20  23
ATOM     23  C   UNL     1      51.131   2.340  17.370  0.00  0.00    +0.000 A 
ATOM     24  C   UNL     1      51.682   1.091  17.622  0.00  0.00    +0.000 A 
ATOM     25  S   UNL     1      53.321   1.151  18.094  0.00  0.00    +0.000 S 
ATOM     26  C   UNL     1      53.334   2.853  18.026  0.00  0.00    +0.000 A 
ATOM     27  N   UNL     1      54.450   3.559  18.352  0.00  0.00    +0.000 NA
ATOM     28  C   UNL     1      54.308   4.841  18.287  0.00  0.00    +0.000 A 
ATOM     29  N   UNL     1      53.153   5.487  17.909  0.00  0.00    +0.000 N 
ATOM     30  C   UNL     1      52.020   4.810  17.528  0.00  0.00    +0.000 A 
ATOM     31  O   UNL     1      51.026   5.410  17.130  0.00  0.00    +0.000 OA
ATOM     32  C   UNL     1      52.114   3.364  17.621  0.00  0.00    +0.000 A 
ATOM     33  H   UNL     1      53.118   6.488  17.850  0.00  0.00    +0.000 HD
ENDBRANCH  20  23
ENDBRANCH  18  19
ENDBRANCH   4  18
TORSDOF 7
ENDMDL
MODEL 3
REMARK VINA RESULT:    -7.206      2.314      2.730
REMARK INTER + INTRA:         -11.213
REMARK INTER:                 -10.255
REMARK INTRA:                  -0.958
REMARK UNBOUND:                -1.059
REMARK  Name = 
REMARK  8 active torsions:
REMARK  status: ('A' for Active; 'I' for Inactive)
REMARK    1  A    between atoms: C_1  and  O_2
REMARK    2  A    between atoms: O_2  and  C_3
REMARK    3  A    between atoms: C_8  and  C_9
REMARK    4  A    between atoms: C_9  and  N_10
REMARK    5  A    between atoms: N_10  and  C_11
REMARK    6  A    between atoms: C_14  and  C_15
REMARK    7  A    between atoms: C_15  and  N_16
REMARK    8  A    between atoms: C_17  and  C_19
REMARK                            x       y       z     vdW  Elec       q    Type
REMARK                         _______ _______ _______ _____ _____    ______ ____
ROOT
ATOM      1  C   UNL     1      46.351   5.484  13.361  0.00  0.00    +0.000 A 
ATOM      2  C   UNL     1      46.829   4.782  14.471  0.00  0.00    +0.000 A 
ATOM      3  C   UNL     1      47.842   5.327  15.279  0.00  0.00    +0.000 A 
ATOM      4  C   UNL     1      48.391   6.562  14.943  0.00  0.00    +0.000 A 
ATOM      5  N   UNL     1      48.030   7.212  13.815  0.00  0.00    +0.000 NA
ATOM      6  C   UNL     1      47.045   6.657  13.063  0.00  0.00    +0.000 A 
ENDROOT
BRANCH   1   7
ATOM      7  N   UNL     1      45.338   4.949  12.548  0.00  0.00    +0.000 N 
ATOM      8  H   UNL     1      44.507   4.704  13.083  0.00  0.00    +0.000 HD
BRANCH   7   9
ATOM      9  C   UNL     1      44.983   5.711  11.334  0.00  0.00    +0.000 C 
BRANCH   9  15
ATOM     10  C   UNL     1      44.225   3.693   9.937  0.00  0.00    +0.000 A 
ATOM     11  C   UNL     1      44.399   2.881   8.808  0.00  0.00    +0.000 A 
ATOM     12  C   UNL     1      45.354   3.200   7.840  0.00  0.00    +0.000 A 
ATOM     13  C   UNL     1      46.123   4.349   7.974  0.00  0.00    +0.000 A 
ATOM     14  C   UNL     1      45.974   5.151   9.101  0.00  0.00    +0.000 A 
ATOM     15  C   UNL     1      45.051   4.819  10.112  0.00  0.00    +0.000 A 
BRANCH  10  17
ATOM     16  C   UNL     1      43.397   2.376  11.740  0.00  0.00    +0.000 C 
ATOM     17  O   UNL     1      43.239   3.492  10.869  0.00  0.00    +0.000 OA
ENDBRANCH  10  17
ENDBRANCH   9  15
ENDBRANCH   7   9
ENDBRANCH   1   7
BRANCH   4  18
ATOM     18  C   UNL     1      49.418   7.240  15.821  0.00  0.00    +0.000 C 
BRANCH  18  19
ATOM     19  N   UNL     1      50.391   6.307  16.336  0.00  0.00    +0.000 N 
ATOM     20  C   UNL     1      50.357   5.851  17.628  0.00  0.00    +0.000 C 
ATOM     21  O   UNL     1      49.472   6.166  18.418  0.00  0.00    +0.000 OA
ATOM     22  H   UNL     1      51.277   6.296  15.838  0.00  0.00    +0.000 HD
BRANCH  20  23
ATOM     23  C   UNL     1      51.406   4.892  17.992  0.00  0.00    +0.000 A 
ATOM     24  C   UNL     1      52.559   5.335  18.625  0.00  0.00    +0.000 A 
ATOM     25  S   UNL     1      53.641   4.078  19.029  0.00  0.00    +0.000 S 
ATOM     26  C   UNL     1      52.627   2.905  18.325  0.00  0.00    +0.000 A 
ATOM     27  N   UNL     1      52.985   1.594  18.299  0.00  0.00    +0.000 NA
ATOM     28  C   UNL     1      52.136   0.820  17.707  0.00  0.00    +0.000 A 
ATOM     29  N   UNL     1      50.949   1.236  17.148  0.00  0.00    +0.000 N 
ATOM     30  C   UNL     1      50.530   2.544  17.194  0.00  0.00    +0.000 A 
ATOM     31  O   UNL     1      49.435   2.875  16.749  0.00  0.00    +0.000 OA
ATOM     32  C   UNL     1      51.467   3.462  17.816  0.00  0.00    +0.000 A 
ATOM     33  H   UNL     1      50.319   0.579  16.728  0.00  0.00    +0.000 HD
ENDBRANCH  20  23
ENDBRANCH  18  19
ENDBRANCH   4  18
TORSDOF 7
ENDMDL
MODEL 4
REMARK VINA RESULT:    -7.177      3.167      7.683
REMARK INTER + INTRA:         -11.173
REMARK INTER:                 -10.105
REMARK INTRA:                  -1.068
REMARK UNBOUND:                -1.059
REMARK  Name = 
REMARK  8 active torsions:
REMARK  status: ('A' for Active; 'I' for Inactive)
REMARK    1  A    between atoms: C_1  and  O_2
REMARK    2  A    between atoms: O_2  and  C_3
REMARK    3  A    between atoms: C_8  and  C_9
REMARK    4  A    between atoms: C_9  and  N_10
REMARK    5  A    between atoms: N_10  and  C_11
REMARK    6  A    between atoms: C_14  and  C_15
REMARK    7  A    between atoms: C_15  and  N_16
REMARK    8  A    between atoms: C_17  and  C_19
REMARK                            x       y       z     vdW  Elec       q    Type
REMARK                         _______ _______ _______ _____ _____    ______ ____
ROOT
ATOM      1  C   UNL     1      50.124   6.767  16.185  0.00  0.00    +0.000 A 
ATOM      2  C   UNL     1      50.920   7.447  15.259  0.00  0.00    +0.000 A 
ATOM      3  C   UNL     1      50.393   7.844  14.018  0.00  0.00    +0.000 A 
ATOM      4  C   UNL     1      49.074   7.525  13.705  0.00  0.00    +0.000 A 
ATOM      5  N   UNL     1      48.314   6.773  14.531  0.00  0.00    +0.000 NA
ATOM      6  C   UNL     1      48.856   6.412  15.722  0.00  0.00    +0.000 A 
ENDROOT
BRANCH   1   7
ATOM      7  N   UNL     1      50.640   6.367  17.428  0.00  0.00    +0.000 N 
ATOM      8  H   UNL     1      50.811   7.159  18.045  0.00  0.00    +0.000 HD
BRANCH   7   9
ATOM      9  C   UNL     1      49.922   5.288  18.135  0.00  0.00    +0.000 C 
BRANCH   9  15
ATOM     10  C   UNL     1      49.916   2.904  17.181  0.00  0.00    +0.000 A 
ATOM     11  C   UNL     1      50.564   1.671  17.026  0.00  0.00    +0.000 A 
ATOM     12  C   UNL     1      51.866   1.485  17.498  0.00  0.00    +0.000 A 
ATOM     13  C   UNL     1      52.543   2.536  18.103  0.00  0.00    +0.000 A 
ATOM     14  C   UNL     1      51.900   3.757  18.284  0.00  0.00    +0.000 A 
ATOM     15  C   UNL     1      50.572   3.949  17.858  0.00  0.00    +0.000 A 
BRANCH  10  17
ATOM     16  C   UNL     1      47.550   2.840  17.446  0.00  0.00    +0.000 C 
ATOM     17  O   UNL     1      48.682   3.181  16.651  0.00  0.00    +0.000 OA
ENDBRANCH  10  17
ENDBRANCH   9  15
ENDBRANCH   7   9
ENDBRANCH   1   7
BRANCH   4  18
ATOM     18  C   UNL     1      48.424   8.002  12.426  0.00  0.00    +0.000 C 
BRANCH  18  19
ATOM     19  N   UNL     1      47.678   6.953  11.774  0.00  0.00    +0.000 N 
ATOM     20  C   UNL     1      46.311   6.976  11.680  0.00  0.00    +0.000 C 
ATOM     21  O   UNL     1      45.634   7.910  12.100  0.00  0.00    +0.000 OA
ATOM     22  H   UNL     1      48.155   6.058  11.723  0.00  0.00    +0.000 HD
BRANCH  20  23
ATOM     23  C   UNL     1      45.702   5.845  10.971  0.00  0.00    +0.000 A 
ATOM     24  C   UNL     1      45.890   5.704   9.603  0.00  0.00    +0.000 A 
ATOM     25  S   UNL     1      45.164   4.302   8.956  0.00  0.00    +0.000 S 
ATOM     26  C   UNL     1      44.531   3.862  10.475  0.00  0.00    +0.000 A 
ATOM     27  N   UNL     1      43.763   2.749  10.618  0.00  0.00    +0.000 NA
ATOM     28  C   UNL     1      43.325   2.554  11.818  0.00  0.00    +0.000 A 
ATOM     29  N   UNL     1      43.598   3.365  12.897  0.00  0.00    +0.000 N 
ATOM     30  C   UNL     1      44.406   4.472  12.802  0.00  0.00    +0.000 A 
ATOM     31  O   UNL     1      44.689   5.137  13.794  0.00  0.00    +0.000 OA
ATOM     32  C   UNL     1      44.894   4.757  11.464  0.00  0.00    +0.000 A 
ATOM     33  H   UNL     1      43.251   3.141  13.810  0.00  0.00    +0.000 HD
ENDBRANCH  20  23
ENDBRANCH  18  19
ENDBRANCH   4  18
TORSDOF 7
ENDMDL
MODEL 5
REMARK VINA RESULT:    -7.162      2.959      7.915
REMARK INTER + INTRA:         -11.152
REMARK INTER:                  -9.496
REMARK INTRA:                  -1.656
REMARK UNBOUND:                -1.059
REMARK  Name = 
REMARK  8 active torsions:
REMARK  status: ('A' for Active; 'I' for Inactive)
REMARK    1  A    between atoms: C_1  and  O_2
REMARK    2  A    between atoms: O_2  and  C_3
REMARK    3  A    between atoms: C_8  and  C_9
REMARK    4  A    between atoms: C_9  and  N_10
REMARK    5  A    between atoms: N_10  and  C_11
REMARK    6  A    between atoms: C_14  and  C_15
REMARK    7  A    between atoms: C_15  and  N_16
REMARK    8  A    between atoms: C_17  and  C_19
REMARK                            x       y       z     vdW  Elec       q    Type
REMARK                         _______ _______ _______ _____ _____    ______ ____
ROOT
ATOM      1  C   UNL     1      49.285   7.739  15.957  0.00  0.00    +0.000 A 
ATOM      2  C   UNL     1      48.268   8.632  15.609  0.00  0.00    +0.000 A 
ATOM      3  C   UNL     1      47.753   8.656  14.302  0.00  0.00    +0.000 A 
ATOM      4  C   UNL     1      48.290   7.800  13.343  0.00  0.00    +0.000 A 
ATOM      5  N   UNL     1      49.348   7.006  13.618  0.00  0.00    +0.000 NA
ATOM      6  C   UNL     1      49.814   7.007  14.892  0.00  0.00    +0.000 A 
ENDROOT
BRANCH   1   7
ATOM      7  N   UNL     1      49.806   7.706  17.260  0.00  0.00    +0.000 N 
ATOM      8  H   UNL     1      50.130   8.622  17.567  0.00  0.00    +0.000 HD
BRANCH   7   9
ATOM      9  C   UNL     1      48.976   7.062  18.297  0.00  0.00    +0.000 C 
BRANCH   9  15
ATOM     10  C   UNL     1      49.890   4.688  17.945  0.00  0.00    +0.000 A 
ATOM     11  C   UNL     1      49.657   3.351  17.595  0.00  0.00    +0.000 A 
ATOM     12  C   UNL     1      48.361   2.896  17.341  0.00  0.00    +0.000 A 
ATOM     13  C   UNL     1      47.283   3.764  17.462  0.00  0.00    +0.000 A 
ATOM     14  C   UNL     1      47.505   5.098  17.787  0.00  0.00    +0.000 A 
ATOM     15  C   UNL     1      48.808   5.587  18.000  0.00  0.00    +0.000 A 
BRANCH  10  17
ATOM     16  C   UNL     1      52.229   4.773  17.504  0.00  0.00    +0.000 C 
ATOM     17  O   UNL     1      51.122   5.172  18.307  0.00  0.00    +0.000 OA
ENDBRANCH  10  17
ENDBRANCH   9  15
ENDBRANCH   7   9
ENDBRANCH   1   7
BRANCH   4  18
ATOM     18  C   UNL     1      47.719   7.715  11.945  0.00  0.00    +0.000 C 
BRANCH  18  19
ATOM     19  N   UNL     1      46.967   6.502  11.741  0.00  0.00    +0.000 N 
ATOM     20  C   UNL     1      45.599   6.465  11.827  0.00  0.00    +0.000 C 
ATOM     21  O   UNL     1      44.922   7.467  12.035  0.00  0.00    +0.000 OA
ATOM     22  H   UNL     1      47.488   5.644  11.897  0.00  0.00    +0.000 HD
BRANCH  20  23
ATOM     23  C   UNL     1      44.980   5.158  11.575  0.00  0.00    +0.000 A 
ATOM     24  C   UNL     1      44.255   4.530  12.579  0.00  0.00    +0.000 A 
ATOM     25  S   UNL     1      43.557   3.051  12.092  0.00  0.00    +0.000 S 
ATOM     26  C   UNL     1      44.243   3.176  10.538  0.00  0.00    +0.000 A 
ATOM     27  N   UNL     1      44.059   2.200   9.610  0.00  0.00    +0.000 NA
ATOM     28  C   UNL     1      44.661   2.410   8.487  0.00  0.00    +0.000 A 
ATOM     29  N   UNL     1      45.423   3.519   8.198  0.00  0.00    +0.000 N 
ATOM     30  C   UNL     1      45.596   4.549   9.091  0.00  0.00    +0.000 A 
ATOM     31  O   UNL     1      46.223   5.557   8.783  0.00  0.00    +0.000 OA
ATOM     32  C   UNL     1      44.969   4.343  10.386  0.00  0.00    +0.000 A 
ATOM     33  H   UNL     1      45.841   3.636   7.294  0.00  0.00    +0.000 HD
ENDBRANCH  20  23
ENDBRANCH  18  19
ENDBRANCH   4  18
TORSDOF 7
ENDMDL
MODEL 6
REMARK VINA RESULT:    -7.056      2.953      3.900
REMARK INTER + INTRA:         -11.002
REMARK INTER:                 -10.121
REMARK INTRA:                  -0.881
REMARK UNBOUND:                -1.059
REMARK  Name = 
REMARK  8 active torsions:
REMARK  status: ('A' for Active; 'I' for Inactive)
REMARK    1  A    between atoms: C_1  and  O_2
REMARK    2  A    between atoms: O_2  and  C_3
REMARK    3  A    between atoms: C_8  and  C_9
REMARK    4  A    between atoms: C_9  and  N_10
REMARK    5  A    between atoms: N_10  and  C_11
REMARK    6  A    between atoms: C_14  and  C_15
REMARK    7  A    between atoms: C_15  and  N_16
REMARK    8  A    between atoms: C_17  and  C_19
REMARK                            x       y       z     vdW  Elec       q    Type
REMARK                         _______ _______ _______ _____ _____    ______ ____
ROOT
ATOM      1  C   UNL     1      46.799   4.416  14.258  0.00  0.00    +0.000 A 
ATOM      2  C   UNL     1      47.326   5.606  13.749  0.00  0.00    +0.000 A 
ATOM      3  C   UNL     1      48.262   6.347  14.490  0.00  0.00    +0.000 A 
ATOM      4  C   UNL     1      48.637   5.902  15.755  0.00  0.00    +0.000 A 
ATOM      5  N   UNL     1      48.062   4.818  16.321  0.00  0.00    +0.000 NA
ATOM      6  C   UNL     1      47.166   4.125  15.573  0.00  0.00    +0.000 A 
ENDROOT
BRANCH   1   7
ATOM      7  N   UNL     1      45.864   3.667  13.525  0.00  0.00    +0.000 N 
ATOM      8  H   UNL     1      45.475   2.900  14.072  0.00  0.00    +0.000 HD
BRANCH   7   9
ATOM      9  C   UNL     1      44.799   4.418  12.832  0.00  0.00    +0.000 C 
BRANCH   9  15
ATOM     10  C   UNL     1      45.384   5.228  10.466  0.00  0.00    +0.000 A 
ATOM     11  C   UNL     1      45.389   4.996   9.084  0.00  0.00    +0.000 A 
ATOM     12  C   UNL     1      44.964   3.770   8.565  0.00  0.00    +0.000 A 
ATOM     13  C   UNL     1      44.559   2.755   9.423  0.00  0.00    +0.000 A 
ATOM     14  C   UNL     1      44.529   2.983  10.795  0.00  0.00    +0.000 A 
ATOM     15  C   UNL     1      44.908   4.228  11.334  0.00  0.00    +0.000 A 
BRANCH  10  17
ATOM     16  C   UNL     1      44.952   7.412  11.312  0.00  0.00    +0.000 C 
ATOM     17  O   UNL     1      45.883   6.368  11.043  0.00  0.00    +0.000 OA
ENDBRANCH  10  17
ENDBRANCH   9  15
ENDBRANCH   7   9
ENDBRANCH   1   7
BRANCH   4  18
ATOM     18  C   UNL     1      49.704   6.606  16.562  0.00  0.00    +0.000 C 
BRANCH  18  19
ATOM     19  N   UNL     1      50.726   5.696  17.019  0.00  0.00    +0.000 N 
ATOM     20  C   UNL     1      50.868   5.356  18.339  0.00  0.00    +0.000 C 
ATOM     21  O   UNL     1      50.108   5.764  19.213  0.00  0.00    +0.000 OA
ATOM     22  H   UNL     1      51.533   5.616  16.406  0.00  0.00    +0.000 HD
BRANCH  20  23
ATOM     23  C   UNL     1      51.944   4.405  18.640  0.00  0.00    +0.000 A 
ATOM     24  C   UNL     1      53.009   4.794  19.440  0.00  0.00    +0.000 A 
ATOM     25  S   UNL     1      54.133   3.545  19.734  0.00  0.00    +0.000 S 
ATOM     26  C   UNL     1      53.260   2.455  18.760  0.00  0.00    +0.000 A 
ATOM     27  N   UNL     1      53.704   1.186  18.556  0.00  0.00    +0.000 NA
ATOM     28  C   UNL     1      52.960   0.479  17.772  0.00  0.00    +0.000 A 
ATOM     29  N   UNL     1      51.798   0.921  17.180  0.00  0.00    +0.000 N 
ATOM     30  C   UNL     1      51.292   2.180  17.396  0.00  0.00    +0.000 A 
ATOM     31  O   UNL     1      50.219   2.524  16.911  0.00  0.00    +0.000 OA
ATOM     32  C   UNL     1      52.113   3.029  18.242  0.00  0.00    +0.000 A 
ATOM     33  H   UNL     1      51.250   0.311  16.603  0.00  0.00    +0.000 HD
ENDBRANCH  20  23
ENDBRANCH  18  19
ENDBRANCH   4  18
TORSDOF 7
ENDMDL
MODEL 7
REMARK VINA RESULT:    -6.926      3.067      7.551
REMARK INTER + INTRA:         -10.819
REMARK INTER:                  -9.369
REMARK INTRA:                  -1.449
REMARK UNBOUND:                -1.059
REMARK  Name = 
REMARK  8 active torsions:
REMARK  status: ('A' for Active; 'I' for Inactive)
REMARK    1  A    between atoms: C_1  and  O_2
REMARK    2  A    between atoms: O_2  and  C_3
REMARK    3  A    between atoms: C_8  and  C_9
REMARK    4  A    between atoms: C_9  and  N_10
REMARK    5  A    between atoms: N_10  and  C_11
REMARK    6  A    between atoms: C_14  and  C_15
REMARK    7  A    between atoms: C_15  and  N_16
REMARK    8  A    between atoms: C_17  and  C_19
REMARK                            x       y       z     vdW  Elec       q    Type
REMARK                         _______ _______ _______ _____ _____    ______ ____
ROOT
ATOM      1  C   UNL     1      48.993   7.627  16.098  0.00  0.00    +0.000 A 
ATOM      2  C   UNL     1      48.226   8.709  15.659  0.00  0.00    +0.000 A 
ATOM      3  C   UNL     1      48.014   8.926  14.287  0.00  0.00    +0.000 A 
ATOM      4  C   UNL     1      48.606   8.068  13.363  0.00  0.00    +0.000 A 
ATOM      5  N   UNL     1      49.444   7.081  13.750  0.00  0.00    +0.000 NA
ATOM      6  C   UNL     1      49.619   6.900  15.084  0.00  0.00    +0.000 A 
ENDROOT
BRANCH   1   7
ATOM      7  N   UNL     1      49.210   7.400  17.467  0.00  0.00    +0.000 N 
ATOM      8  H   UNL     1      49.330   8.269  17.984  0.00  0.00    +0.000 HD
BRANCH   7   9
ATOM      9  C   UNL     1      48.263   6.500  18.155  0.00  0.00    +0.000 C 
BRANCH   9  15
ATOM     10  C   UNL     1      49.825   4.470  17.965  0.00  0.00    +0.000 A 
ATOM     11  C   UNL     1      50.030   3.147  17.551  0.00  0.00    +0.000 A 
ATOM     12  C   UNL     1      48.979   2.396  17.018  0.00  0.00    +0.000 A 
ATOM     13  C   UNL     1      47.709   2.948  16.921  0.00  0.00    +0.000 A 
ATOM     14  C   UNL     1      47.499   4.268  17.309  0.00  0.00    +0.000 A 
ATOM     15  C   UNL     1      48.556   5.057  17.803  0.00  0.00    +0.000 A 
BRANCH  10  17
ATOM     16  C   UNL     1      51.001   4.971  19.975  0.00  0.00    +0.000 C 
ATOM     17  O   UNL     1      50.785   5.225  18.589  0.00  0.00    +0.000 OA
ENDBRANCH  10  17
ENDBRANCH   9  15
ENDBRANCH   7   9
ENDBRANCH   1   7
BRANCH   4  18
ATOM     18  C   UNL     1      48.343   8.195  11.879  0.00  0.00    +0.000 C 
BRANCH  18  19
ATOM     19  N   UNL     1      47.612   7.065  11.360  0.00  0.00    +0.000 N 
ATOM     20  C   UNL     1      46.242   7.020  11.352  0.00  0.00    +0.000 C 
ATOM     21  O   UNL     1      45.547   7.955  11.739  0.00  0.00    +0.000 OA
ATOM     22  H   UNL     1      48.128   6.189  11.350  0.00  0.00    +0.000 HD
BRANCH  20  23
ATOM     23  C   UNL     1      45.648   5.810  10.773  0.00  0.00    +0.000 A 
ATOM     24  C   UNL     1      45.825   5.528   9.426  0.00  0.00    +0.000 A 
ATOM     25  S   UNL     1      45.119   4.052   8.939  0.00  0.00    +0.000 S 
ATOM     26  C   UNL     1      44.509   3.766  10.503  0.00  0.00    +0.000 A 
ATOM     27  N   UNL     1      43.763   2.661  10.773  0.00  0.00    +0.000 NA
ATOM     28  C   UNL     1      43.340   2.587  11.992  0.00  0.00    +0.000 A 
ATOM     29  N   UNL     1      43.608   3.513  12.975  0.00  0.00    +0.000 N 
ATOM     30  C   UNL     1      44.395   4.617  12.755  0.00  0.00    +0.000 A 
ATOM     31  O   UNL     1      44.674   5.389  13.667  0.00  0.00    +0.000 OA
ATOM     32  C   UNL     1      44.865   4.767  11.389  0.00  0.00    +0.000 A 
ATOM     33  H   UNL     1      43.273   3.381  13.911  0.00  0.00    +0.000 HD
ENDBRANCH  20  23
ENDBRANCH  18  19
ENDBRANCH   4  18
TORSDOF 7
ENDMDL
MODEL 8
REMARK VINA RESULT:    -6.491      3.200      8.958
REMARK INTER + INTRA:         -10.206
REMARK INTER:                  -9.036
REMARK INTRA:                  -1.170
REMARK UNBOUND:                -1.059
REMARK  Name = 
REMARK  8 active torsions:
REMARK  status: ('A' for Active; 'I' for Inactive)
REMARK    1  A    between atoms: C_1  and  O_2
REMARK    2  A    between atoms: O_2  and  C_3
REMARK    3  A    between atoms: C_8  and  C_9
REMARK    4  A    between atoms: C_9  and  N_10
REMARK    5  A    between atoms: N_10  and  C_11
REMARK    6  A    between atoms: C_14  and  C_15
REMARK    7  A    between atoms: C_15  and  N_16
REMARK    8  A    between atoms: C_17  and  C_19
REMARK                            x       y       z     vdW  Elec       q    Type
REMARK                         _______ _______ _______ _____ _____    ______ ____
ROOT
ATOM      1  C   UNL     1      51.336   3.636  18.191  0.00  0.00    +0.000 A 
ATOM      2  C   UNL     1      50.436   4.658  18.509  0.00  0.00    +0.000 A 
ATOM      3  C   UNL     1      49.105   4.602  18.065  0.00  0.00    +0.000 A 
ATOM      4  C   UNL     1      48.695   3.531  17.274  0.00  0.00    +0.000 A 
ATOM      5  N   UNL     1      49.567   2.587  16.857  0.00  0.00    +0.000 NA
ATOM      6  C   UNL     1      50.843   2.672  17.311  0.00  0.00    +0.000 A 
ENDROOT
BRANCH   1   7
ATOM      7  N   UNL     1      52.669   3.682  18.631  0.00  0.00    +0.000 N 
ATOM      8  H   UNL     1      53.258   3.015  18.136  0.00  0.00    +0.000 HD
BRANCH   7   9
ATOM      9  C   UNL     1      53.308   5.011  18.694  0.00  0.00    +0.000 C 
BRANCH   9  15
ATOM     10  C   UNL     1      53.556   6.367  16.527  0.00  0.00    +0.000 A 
ATOM     11  C   UNL     1      54.198   6.555  15.295  0.00  0.00    +0.000 A 
ATOM     12  C   UNL     1      55.283   5.756  14.927  0.00  0.00    +0.000 A 
ATOM     13  C   UNL     1      55.756   4.782  15.796  0.00  0.00    +0.000 A 
ATOM     14  C   UNL     1      55.113   4.571  17.012  0.00  0.00    +0.000 A 
ATOM     15  C   UNL     1      53.988   5.333  17.380  0.00  0.00    +0.000 A 
BRANCH  10  17
ATOM     16  C   UNL     1      52.828   8.579  17.024  0.00  0.00    +0.000 C 
ATOM     17  O   UNL     1      52.555   7.181  16.990  0.00  0.00    +0.000 OA
ENDBRANCH  10  17
ENDBRANCH   9  15
ENDBRANCH   7   9
ENDBRANCH   1   7
BRANCH   4  18
ATOM     18  C   UNL     1      47.255   3.368  16.841  0.00  0.00    +0.000 C 
BRANCH  18  19
ATOM     19  N   UNL     1      46.863   4.369  15.879  0.00  0.00    +0.000 N 
ATOM     20  C   UNL     1      46.869   4.131  14.529  0.00  0.00    +0.000 C 
ATOM     21  O   UNL     1      47.160   3.038  14.052  0.00  0.00    +0.000 OA
ATOM     22  H   UNL     1      46.941   5.329  16.205  0.00  0.00    +0.000 HD
BRANCH  20  23
ATOM     23  C   UNL     1      46.425   5.245  13.684  0.00  0.00    +0.000 A 
ATOM     24  C   UNL     1      47.241   6.356  13.518  0.00  0.00    +0.000 A 
ATOM     25  S   UNL     1      46.594   7.524  12.456  0.00  0.00    +0.000 S 
ATOM     26  C   UNL     1      45.179   6.607  12.222  0.00  0.00    +0.000 A 
ATOM     27  N   UNL     1      44.172   7.063  11.429  0.00  0.00    +0.000 NA
ATOM     28  C   UNL     1      43.146   6.280  11.367  0.00  0.00    +0.000 A 
ATOM     29  N   UNL     1      43.038   5.071  12.015  0.00  0.00    +0.000 N 
ATOM     30  C   UNL     1      44.050   4.555  12.788  0.00  0.00    +0.000 A 
ATOM     31  O   UNL     1      43.955   3.443  13.298  0.00  0.00    +0.000 OA
ATOM     32  C   UNL     1      45.213   5.415  12.921  0.00  0.00    +0.000 A 
ATOM     33  H   UNL     1      42.224   4.496  11.901  0.00  0.00    +0.000 HD
ENDBRANCH  20  23
ENDBRANCH  18  19
ENDBRANCH   4  18
TORSDOF 7
ENDMDL
MODEL 9
REMARK VINA RESULT:    -6.477      4.870      9.391
REMARK INTER + INTRA:         -10.186
REMARK INTER:                  -9.047
REMARK INTRA:                  -1.140
REMARK UNBOUND:                -1.059
REMARK  Name = 
REMARK  8 active torsions:
REMARK  status: ('A' for Active; 'I' for Inactive)
REMARK    1  A    between atoms: C_1  and  O_2
REMARK    2  A    between atoms: O_2  and  C_3
REMARK    3  A    between atoms: C_8  and  C_9
REMARK    4  A    between atoms: C_9  and  N_10
REMARK    5  A    between atoms: N_10  and  C_11
REMARK    6  A    between atoms: C_14  and  C_15
REMARK    7  A    between atoms: C_15  and  N_16
REMARK    8  A    between atoms: C_17  and  C_19
REMARK                            x       y       z     vdW  Elec       q    Type
REMARK                         _______ _______ _______ _____ _____    ______ ____
ROOT
ATOM      1  C   UNL     1      51.716   2.781  17.575  0.00  0.00    +0.000 A 
ATOM      2  C   UNL     1      51.141   4.022  17.860  0.00  0.00    +0.000 A 
ATOM      3  C   UNL     1      49.768   4.238  17.658  0.00  0.00    +0.000 A 
ATOM      4  C   UNL     1      48.986   3.209  17.137  0.00  0.00    +0.000 A 
ATOM      5  N   UNL     1      49.532   2.036  16.747  0.00  0.00    +0.000 NA
ATOM      6  C   UNL     1      50.861   1.863  16.963  0.00  0.00    +0.000 A 
ENDROOT
BRANCH   1   7
ATOM      7  N   UNL     1      53.087   2.555  17.776  0.00  0.00    +0.000 N 
ATOM      8  H   UNL     1      53.580   3.404  18.046  0.00  0.00    +0.000 HD
BRANCH   7   9
ATOM      9  C   UNL     1      53.459   1.424  18.649  0.00  0.00    +0.000 C 
BRANCH   9  15
ATOM     10  C   UNL     1      54.353  -0.956  18.285  0.00  0.00    +0.000 A 
ATOM     11  C   UNL     1      55.143  -1.840  17.538  0.00  0.00    +0.000 A 
ATOM     12  C   UNL     1      55.775  -1.417  16.367  0.00  0.00    +0.000 A 
ATOM     13  C   UNL     1      55.601  -0.116  15.914  0.00  0.00    +0.000 A 
ATOM     14  C   UNL     1      54.837   0.777  16.659  0.00  0.00    +0.000 A 
ATOM     15  C   UNL     1      54.231   0.383  17.867  0.00  0.00    +0.000 A 
BRANCH  10  17
ATOM     16  C   UNL     1      53.326  -2.722  19.509  0.00  0.00    +0.000 C 
ATOM     17  O   UNL     1      53.625  -1.335  19.384  0.00  0.00    +0.000 OA
ENDBRANCH  10  17
ENDBRANCH   9  15
ENDBRANCH   7   9
ENDBRANCH   1   7
BRANCH   4  18
ATOM     18  C   UNL     1      47.489   3.349  16.981  0.00  0.00    +0.000 C 
BRANCH  18  19
ATOM     19  N   UNL     1      47.137   4.392  16.048  0.00  0.00    +0.000 N 
ATOM     20  C   UNL     1      47.092   4.180  14.695  0.00  0.00    +0.000 C 
ATOM     21  O   UNL     1      47.299   3.080  14.190  0.00  0.00    +0.000 OA
ATOM     22  H   UNL     1      47.286   5.338  16.389  0.00  0.00    +0.000 HD
BRANCH  20  23
ATOM     23  C   UNL     1      46.699   5.337  13.882  0.00  0.00    +0.000 A 
ATOM     24  C   UNL     1      45.482   5.333  13.215  0.00  0.00    +0.000 A 
ATOM     25  S   UNL     1      45.163   6.781  12.370  0.00  0.00    +0.000 S 
ATOM     26  C   UNL     1      46.665   7.442  12.826  0.00  0.00    +0.000 A 
ATOM     27  N   UNL     1      47.045   8.676  12.400  0.00  0.00    +0.000 NA
ATOM     28  C   UNL     1      48.220   9.039  12.796  0.00  0.00    +0.000 A 
ATOM     29  N   UNL     1      49.050   8.283  13.594  0.00  0.00    +0.000 N 
ATOM     30  C   UNL     1      48.684   7.052  14.082  0.00  0.00    +0.000 A 
ATOM     31  O   UNL     1      49.414   6.431  14.848  0.00  0.00    +0.000 OA
ATOM     32  C   UNL     1      47.385   6.581  13.634  0.00  0.00    +0.000 A 
ATOM     33  H   UNL     1      49.940   8.636  13.891  0.00  0.00    +0.000 HD
ENDBRANCH  20  23
ENDBRANCH  18  19
ENDBRANCH   4  18
TORSDOF 7
ENDMDL
