MODEL 1
REMARK VINA RESULT:    -8.050      0.000      0.000
REMARK INTER + INTRA:         -10.194
REMARK INTER:                  -9.933
REMARK INTRA:                  -0.261
REMARK UNBOUND:                -0.261
REMARK  Name = 
REMARK  5 active torsions:
REMARK  status: ('A' for Active; 'I' for Inactive)
REMARK    1  A    between atoms: C_1  and  C_2
REMARK    2  A    between atoms: C_2  and  N_3
REMARK    3  A    between atoms: C_2  and  C_13
REMARK    4  A    between atoms: N_3  and  C_4
REMARK    5  A    between atoms: C_8  and  C_9
REMARK                            x       y       z     vdW  Elec       q    Type
REMARK                         _______ _______ _______ _____ _____    ______ ____
ROOT
ATOM      1  C   UNL     1      44.159   3.877  10.941  0.00  0.00    +0.000 A 
ATOM      2  C   UNL     1      43.143   4.657  11.501  0.00  0.00    +0.000 A 
ATOM      3  N   UNL     1      43.216   5.316  12.687  0.00  0.00    +0.000 NA
ATOM      4  C   UNL     1      44.368   5.184  13.378  0.00  0.00    +0.000 A 
ATOM      5  C   UNL     1      45.428   4.397  12.954  0.00  0.00    +0.000 A 
ATOM      6  C   UNL     1      45.314   3.738  11.722  0.00  0.00    +0.000 A 
ENDROOT
BRANCH   5   7
ATOM      7  C   UNL     1      46.612   4.277  13.832  0.00  0.00    +0.000 C 
ATOM      8  N   UNL     1      47.020   5.384  14.521  0.00  0.00    +0.000 N 
ATOM      9  O   UNL     1      47.202   3.206  13.956  0.00  0.00    +0.000 OA
ATOM     10  H   UNL     1      46.456   6.212  14.620  0.00  0.00    +0.000 HD
ATOM     11  H   UNL     1      47.787   5.246  15.166  0.00  0.00    +0.000 HD
ENDBRANCH   5   7
BRANCH   1  12
ATOM     12  N   UNL     1      44.137   3.341   9.662  0.00  0.00    +0.000 N 
ATOM     13  H   UNL     1      43.538   2.540   9.507  0.00  0.00    +0.000 HD
BRANCH  12  15
ATOM     14  C   UNL     1      45.701   5.073   8.927  0.00  0.00    +0.000 C 
ATOM     15  C   UNL     1      44.716   3.987   8.478  0.00  0.00    +0.000 C 
BRANCH  15  16
ATOM     16  C   UNL     1      45.408   2.923   7.569  0.00  0.00    +0.000 C 
ATOM     17  C   UNL     1      45.990   1.766   8.412  0.00  0.00    +0.000 C 
ATOM     18  C   UNL     1      46.836   0.792   7.598  0.00  0.00    +0.000 C 
ATOM     19  C   UNL     1      47.934   1.516   6.833  0.00  0.00    +0.000 C 
ATOM     20  C   UNL     1      47.334   2.570   5.916  0.00  0.00    +0.000 C 
ATOM     21  C   UNL     1      46.505   3.580   6.703  0.00  0.00    +0.000 C 
ENDBRANCH  15  16
ENDBRANCH  12  15
ENDBRANCH   1  12
TORSDOF 4
ENDMDL
MODEL 2
REMARK VINA RESULT:    -7.704      2.857      5.922
REMARK INTER + INTRA:          -9.766
REMARK INTER:                  -9.503
REMARK INTRA:                  -0.263
REMARK UNBOUND:                -0.261
REMARK  Name = 
REMARK  5 active torsions:
REMARK  status: ('A' for Active; 'I' for Inactive)
REMARK    1  A    between atoms: C_1  and  C_2
REMARK    2  A    between atoms: C_2  and  N_3
REMARK    3  A    between atoms: C_2  and  C_13
REMARK    4  A    between atoms: N_3  and  C_4
REMARK    5  A    between atoms: C_8  and  C_9
REMARK                            x       y       z     vdW  Elec       q    Type
REMARK                         _______ _______ _______ _____ _____    ______ ____
ROOT
ATOM      1  C   UNL     1      44.702   3.620   8.790  0.00  0.00    +0.000 A 
ATOM      2  C   UNL     1      44.606   2.337   9.337  0.00  0.00    +0.000 A 
ATOM      3  N   UNL     1      45.352   1.263   8.968  0.00  0.00    +0.000 NA
ATOM      4  C   UNL     1      46.247   1.465   7.979  0.00  0.00    +0.000 A 
ATOM      5  C   UNL     1      46.401   2.676   7.322  0.00  0.00    +0.000 A 
ATOM      6  C   UNL     1      45.615   3.760   7.736  0.00  0.00    +0.000 A 
ENDROOT
BRANCH   5   7
ATOM      7  C   UNL     1      47.369   2.754   6.206  0.00  0.00    +0.000 C 
ATOM      8  N   UNL     1      48.689   2.539   6.481  0.00  0.00    +0.000 N 
ATOM      9  O   UNL     1      46.994   2.986   5.058  0.00  0.00    +0.000 OA
ATOM     10  H   UNL     1      49.016   2.142   7.345  0.00  0.00    +0.000 HD
ATOM     11  H   UNL     1      49.311   2.529   5.683  0.00  0.00    +0.000 HD
ENDBRANCH   5   7
BRANCH   1  12
ATOM     12  N   UNL     1      44.053   4.744   9.278  0.00  0.00    +0.000 N 
ATOM     13  H   UNL     1      43.433   5.232   8.644  0.00  0.00    +0.000 HD
BRANCH  12  15
ATOM     14  C   UNL     1      43.025   4.211  11.433  0.00  0.00    +0.000 C 
ATOM     15  C   UNL     1      44.005   5.131  10.693  0.00  0.00    +0.000 C 
BRANCH  15  16
ATOM     16  C   UNL     1      45.435   5.069  11.317  0.00  0.00    +0.000 C 
ATOM     17  C   UNL     1      45.415   4.343  12.681  0.00  0.00    +0.000 C 
ATOM     18  C   UNL     1      46.747   4.413  13.422  0.00  0.00    +0.000 C 
ATOM     19  C   UNL     1      47.221   5.850  13.576  0.00  0.00    +0.000 C 
ATOM     20  C   UNL     1      47.352   6.513  12.214  0.00  0.00    +0.000 C 
ATOM     21  C   UNL     1      46.029   6.488  11.458  0.00  0.00    +0.000 C 
ENDBRANCH  15  16
ENDBRANCH  12  15
ENDBRANCH   1  12
TORSDOF 4
ENDMDL
MODEL 3
REMARK VINA RESULT:    -7.117      1.786      2.961
REMARK INTER + INTRA:          -9.041
REMARK INTER:                  -8.447
REMARK INTRA:                  -0.594
REMARK UNBOUND:                -0.261
REMARK  Name = 
REMARK  5 active torsions:
REMARK  status: ('A' for Active; 'I' for Inactive)
REMARK    1  A    between atoms: C_1  and  C_2
REMARK    2  A    between atoms: C_2  and  N_3
REMARK    3  A    between atoms: C_2  and  C_13
REMARK    4  A    between atoms: N_3  and  C_4
REMARK    5  A    between atoms: C_8  and  C_9
REMARK                            x       y       z     vdW  Elec       q    Type
REMARK                         _______ _______ _______ _____ _____    ______ ____
ROOT
ATOM      1  C   UNL     1      46.243   6.118  12.070  0.00  0.00    +0.000 A 
ATOM      2  C   UNL     1      47.126   7.195  12.194  0.00  0.00    +0.000 A 
ATOM      3  N   UNL     1      48.058   7.344  13.172  0.00  0.00    +0.000 NA
ATOM      4  C   UNL     1      48.112   6.368  14.103  0.00  0.00    +0.000 A 
ATOM      5  C   UNL     1      47.257   5.278  14.120  0.00  0.00    +0.000 A 
ATOM      6  C   UNL     1      46.313   5.159  13.090  0.00  0.00    +0.000 A 
ENDROOT
BRANCH   5   7
ATOM      7  C   UNL     1      47.371   4.309  15.232  0.00  0.00    +0.000 C 
ATOM      8  N   UNL     1      47.182   4.765  16.506  0.00  0.00    +0.000 N 
ATOM      9  O   UNL     1      47.608   3.123  15.016  0.00  0.00    +0.000 OA
ATOM     10  H   UNL     1      46.781   5.663  16.718  0.00  0.00    +0.000 HD
ATOM     11  H   UNL     1      47.195   4.061  17.233  0.00  0.00    +0.000 HD
ENDBRANCH   5   7
BRANCH   1  12
ATOM     12  N   UNL     1      45.408   5.895  10.987  0.00  0.00    +0.000 N 
ATOM     13  H   UNL     1      45.652   6.346  10.113  0.00  0.00    +0.000 HD
BRANCH  12  15
ATOM     14  C   UNL     1      42.984   5.561  11.038  0.00  0.00    +0.000 C 
ATOM     15  C   UNL     1      44.353   4.875  10.944  0.00  0.00    +0.000 C 
BRANCH  15  16
ATOM     16  C   UNL     1      44.481   4.023   9.642  0.00  0.00    +0.000 C 
ATOM     17  C   UNL     1      44.713   2.532   9.974  0.00  0.00    +0.000 C 
ATOM     18  C   UNL     1      45.028   1.682   8.746  0.00  0.00    +0.000 C 
ATOM     19  C   UNL     1      46.198   2.255   7.960  0.00  0.00    +0.000 C 
ATOM     20  C   UNL     1      45.901   3.685   7.536  0.00  0.00    +0.000 C 
ATOM     21  C   UNL     1      45.612   4.570   8.743  0.00  0.00    +0.000 C 
ENDBRANCH  15  16
ENDBRANCH  12  15
ENDBRANCH   1  12
TORSDOF 4
ENDMDL
MODEL 4
REMARK VINA RESULT:    -6.820      2.722      3.305
REMARK INTER + INTRA:          -8.676
REMARK INTER:                  -8.127
REMARK INTRA:                  -0.549
REMARK UNBOUND:                -0.261
REMARK  Name = 
REMARK  5 active torsions:
REMARK  status: ('A' for Active; 'I' for Inactive)
REMARK    1  A    between atoms: C_1  and  C_2
REMARK    2  A    between atoms: C_2  and  N_3
REMARK    3  A    between atoms: C_2  and  C_13
REMARK    4  A    between atoms: N_3  and  C_4
REMARK    5  A    between atoms: C_8  and  C_9
REMARK                            x       y       z     vdW  Elec       q    Type
REMARK                         _______ _______ _______ _____ _____    ______ ____
ROOT
ATOM      1  C   UNL     1      45.589   6.979  11.581  0.00  0.00    +0.000 A 
ATOM      2  C   UNL     1      45.175   8.228  12.052  0.00  0.00    +0.000 A 
ATOM      3  N   UNL     1      45.900   9.049  12.856  0.00  0.00    +0.000 NA
ATOM      4  C   UNL     1      47.115   8.599  13.235  0.00  0.00    +0.000 A 
ATOM      5  C   UNL     1      47.617   7.357  12.877  0.00  0.00    +0.000 A 
ATOM      6  C   UNL     1      46.838   6.543  12.042  0.00  0.00    +0.000 A 
ENDROOT
BRANCH   5   7
ATOM      7  C   UNL     1      48.934   6.948  13.410  0.00  0.00    +0.000 C 
ATOM      8  N   UNL     1      50.054   7.338  12.732  0.00  0.00    +0.000 N 
ATOM      9  O   UNL     1      49.022   6.293  14.446  0.00  0.00    +0.000 OA
ATOM     10  H   UNL     1      50.048   8.043  12.014  0.00  0.00    +0.000 HD
ATOM     11  H   UNL     1      50.938   7.103  13.166  0.00  0.00    +0.000 HD
ENDBRANCH   5   7
BRANCH   1  12
ATOM     12  N   UNL     1      44.913   6.221  10.637  0.00  0.00    +0.000 N 
ATOM     13  H   UNL     1      44.937   6.547   9.678  0.00  0.00    +0.000 HD
BRANCH  12  15
ATOM     14  C   UNL     1      42.924   4.979  11.332  0.00  0.00    +0.000 C 
ATOM     15  C   UNL     1      44.384   4.873  10.874  0.00  0.00    +0.000 C 
BRANCH  15  16
ATOM     16  C   UNL     1      44.520   4.006   9.583  0.00  0.00    +0.000 C 
ATOM     17  C   UNL     1      44.774   2.523   9.934  0.00  0.00    +0.000 C 
ATOM     18  C   UNL     1      45.098   1.661   8.717  0.00  0.00    +0.000 C 
ATOM     19  C   UNL     1      46.258   2.239   7.921  0.00  0.00    +0.000 C 
ATOM     20  C   UNL     1      45.940   3.659   7.478  0.00  0.00    +0.000 C 
ATOM     21  C   UNL     1      45.642   4.556   8.674  0.00  0.00    +0.000 C 
ENDBRANCH  15  16
ENDBRANCH  12  15
ENDBRANCH   1  12
TORSDOF 4
ENDMDL
MODEL 5
REMARK VINA RESULT:    -6.747      2.817      5.796
REMARK INTER + INTRA:          -8.585
REMARK INTER:                  -8.036
REMARK INTRA:                  -0.549
REMARK UNBOUND:                -0.261
REMARK  Name = 
REMARK  5 active torsions:
REMARK  status: ('A' for Active; 'I' for Inactive)
REMARK    1  A    between atoms: C_1  and  C_2
REMARK    2  A    between atoms: C_2  and  N_3
REMARK    3  A    between atoms: C_2  and  C_13
REMARK    4  A    between atoms: N_3  and  C_4
REMARK    5  A    between atoms: C_8  and  C_9
REMARK                            x       y       z     vdW  Elec       q    Type
REMARK                         _______ _______ _______ _____ _____    ______ ____
ROOT
ATOM      1  C   UNL     1      44.332   4.666  10.216  0.00  0.00    +0.000 A 
ATOM      2  C   UNL     1      43.741   3.479  10.657  0.00  0.00    +0.000 A 
ATOM      3  N   UNL     1      43.969   2.243  10.140  0.00  0.00    +0.000 NA
ATOM      4  C   UNL     1      44.830   2.175   9.103  0.00  0.00    +0.000 A 
ATOM      5  C   UNL     1      45.440   3.286   8.542  0.00  0.00    +0.000 A 
ATOM      6  C   UNL     1      45.182   4.542   9.108  0.00  0.00    +0.000 A 
ENDROOT
BRANCH   5   7
ATOM      7  C   UNL     1      46.314   3.091   7.364  0.00  0.00    +0.000 C 
ATOM      8  N   UNL     1      46.929   1.881   7.210  0.00  0.00    +0.000 N 
ATOM      9  O   UNL     1      46.466   3.985   6.534  0.00  0.00    +0.000 OA
ATOM     10  H   UNL     1      46.673   1.061   7.733  0.00  0.00    +0.000 HD
ATOM     11  H   UNL     1      47.459   1.760   6.357  0.00  0.00    +0.000 HD
ENDBRANCH   5   7
BRANCH   1  12
ATOM     12  N   UNL     1      44.217   5.894  10.847  0.00  0.00    +0.000 N 
ATOM     13  H   UNL     1      43.366   6.070  11.368  0.00  0.00    +0.000 HD
BRANCH  12  15
ATOM     14  C   UNL     1      44.782   8.121  11.690  0.00  0.00    +0.000 C 
ATOM     15  C   UNL     1      45.319   6.848  11.022  0.00  0.00    +0.000 C 
BRANCH  15  16
ATOM     16  C   UNL     1      46.465   6.199  11.860  0.00  0.00    +0.000 C 
ATOM     17  C   UNL     1      45.946   5.718  13.233  0.00  0.00    +0.000 C 
ATOM     18  C   UNL     1      47.056   5.243  14.166  0.00  0.00    +0.000 C 
ATOM     19  C   UNL     1      48.133   6.304  14.332  0.00  0.00    +0.000 C 
ATOM     20  C   UNL     1      48.720   6.679  12.980  0.00  0.00    +0.000 C 
ATOM     21  C   UNL     1      47.640   7.187  12.032  0.00  0.00    +0.000 C 
ENDBRANCH  15  16
ENDBRANCH  12  15
ENDBRANCH   1  12
TORSDOF 4
ENDMDL
MODEL 6
REMARK VINA RESULT:    -6.497      3.251      5.989
REMARK INTER + INTRA:          -8.277
REMARK INTER:                  -7.841
REMARK INTRA:                  -0.436
REMARK UNBOUND:                -0.261
REMARK  Name = 
REMARK  5 active torsions:
REMARK  status: ('A' for Active; 'I' for Inactive)
REMARK    1  A    between atoms: C_1  and  C_2
REMARK    2  A    between atoms: C_2  and  N_3
REMARK    3  A    between atoms: C_2  and  C_13
REMARK    4  A    between atoms: N_3  and  C_4
REMARK    5  A    between atoms: C_8  and  C_9
REMARK                            x       y       z     vdW  Elec       q    Type
REMARK                         _______ _______ _______ _____ _____    ______ ____
ROOT
ATOM      1  C   UNL     1      44.081   4.894  10.816  0.00  0.00    +0.000 A 
ATOM      2  C   UNL     1      43.464   3.692  11.174  0.00  0.00    +0.000 A 
ATOM      3  N   UNL     1      43.672   2.489  10.577  0.00  0.00    +0.000 NA
ATOM      4  C   UNL     1      44.541   2.473   9.544  0.00  0.00    +0.000 A 
ATOM      5  C   UNL     1      45.176   3.607   9.062  0.00  0.00    +0.000 A 
ATOM      6  C   UNL     1      44.937   4.827   9.709  0.00  0.00    +0.000 A 
ENDROOT
BRANCH   5   7
ATOM      7  C   UNL     1      46.055   3.473   7.880  0.00  0.00    +0.000 C 
ATOM      8  N   UNL     1      46.498   2.226   7.543  0.00  0.00    +0.000 N 
ATOM      9  O   UNL     1      46.362   4.454   7.205  0.00  0.00    +0.000 OA
ATOM     10  H   UNL     1      46.110   1.380   7.924  0.00  0.00    +0.000 HD
ATOM     11  H   UNL     1      47.036   2.164   6.688  0.00  0.00    +0.000 HD
ENDBRANCH   5   7
BRANCH   1  12
ATOM     12  N   UNL     1      43.985   6.080  11.527  0.00  0.00    +0.000 N 
ATOM     13  H   UNL     1      43.120   6.601  11.445  0.00  0.00    +0.000 HD
BRANCH  12  15
ATOM     14  C   UNL     1      45.556   5.268  13.217  0.00  0.00    +0.000 C 
ATOM     15  C   UNL     1      44.928   6.508  12.568  0.00  0.00    +0.000 C 
BRANCH  15  16
ATOM     16  C   UNL     1      46.013   7.449  11.957  0.00  0.00    +0.000 C 
ATOM     17  C   UNL     1      47.419   6.814  12.056  0.00  0.00    +0.000 C 
ATOM     18  C   UNL     1      48.540   7.764  11.644  0.00  0.00    +0.000 C 
ATOM     19  C   UNL     1      48.475   9.070  12.421  0.00  0.00    +0.000 C 
ATOM     20  C   UNL     1      47.127   9.742  12.214  0.00  0.00    +0.000 C 
ATOM     21  C   UNL     1      45.984   8.831  12.646  0.00  0.00    +0.000 C 
ENDBRANCH  15  16
ENDBRANCH  12  15
ENDBRANCH   1  12
TORSDOF 4
ENDMDL
MODEL 7
REMARK VINA RESULT:    -6.395      3.092      5.880
REMARK INTER + INTRA:          -8.151
REMARK INTER:                  -7.501
REMARK INTRA:                  -0.650
REMARK UNBOUND:                -0.261
REMARK  Name = 
REMARK  5 active torsions:
REMARK  status: ('A' for Active; 'I' for Inactive)
REMARK    1  A    between atoms: C_1  and  C_2
REMARK    2  A    between atoms: C_2  and  N_3
REMARK    3  A    between atoms: C_2  and  C_13
REMARK    4  A    between atoms: N_3  and  C_4
REMARK    5  A    between atoms: C_8  and  C_9
REMARK                            x       y       z     vdW  Elec       q    Type
REMARK                         _______ _______ _______ _____ _____    ______ ____
ROOT
ATOM      1  C   UNL     1      43.510   5.614  11.463  0.00  0.00    +0.000 A 
ATOM      2  C   UNL     1      43.172   4.779  12.531  0.00  0.00    +0.000 A 
ATOM      3  N   UNL     1      43.295   3.426  12.547  0.00  0.00    +0.000 NA
ATOM      4  C   UNL     1      43.773   2.853  11.422  0.00  0.00    +0.000 A 
ATOM      5  C   UNL     1      44.095   3.567  10.278  0.00  0.00    +0.000 A 
ATOM      6  C   UNL     1      43.958   4.962  10.305  0.00  0.00    +0.000 A 
ENDROOT
BRANCH   5   7
ATOM      7  C   UNL     1      44.546   2.819   9.083  0.00  0.00    +0.000 C 
ATOM      8  N   UNL     1      44.738   1.472   9.200  0.00  0.00    +0.000 N 
ATOM      9  O   UNL     1      44.723   3.390   8.009  0.00  0.00    +0.000 OA
ATOM     10  H   UNL     1      44.407   0.932   9.982  0.00  0.00    +0.000 HD
ATOM     11  H   UNL     1      44.974   0.984   8.346  0.00  0.00    +0.000 HD
ENDBRANCH   5   7
BRANCH   1  12
ATOM     12  N   UNL     1      43.532   6.999  11.511  0.00  0.00    +0.000 N 
ATOM     13  H   UNL     1      42.705   7.463  11.868  0.00  0.00    +0.000 HD
BRANCH  12  15
ATOM     14  C   UNL     1      44.332   9.302  11.314  0.00  0.00    +0.000 C 
ATOM     15  C   UNL     1      44.732   7.822  11.319  0.00  0.00    +0.000 C 
BRANCH  15  16
ATOM     16  C   UNL     1      45.781   7.513  12.433  0.00  0.00    +0.000 C 
ATOM     17  C   UNL     1      46.269   8.812  13.112  0.00  0.00    +0.000 C 
ATOM     18  C   UNL     1      47.427   8.589  14.080  0.00  0.00    +0.000 C 
ATOM     19  C   UNL     1      48.579   7.858  13.408  0.00  0.00    +0.000 C 
ATOM     20  C   UNL     1      48.108   6.524  12.851  0.00  0.00    +0.000 C 
ATOM     21  C   UNL     1      46.969   6.713  11.855  0.00  0.00    +0.000 C 
ENDBRANCH  15  16
ENDBRANCH  12  15
ENDBRANCH   1  12
TORSDOF 4
ENDMDL
MODEL 8
REMARK VINA RESULT:    -6.318      3.823      6.094
REMARK INTER + INTRA:          -8.057
REMARK INTER:                  -7.487
REMARK INTRA:                  -0.570
REMARK UNBOUND:                -0.261
REMARK  Name = 
REMARK  5 active torsions:
REMARK  status: ('A' for Active; 'I' for Inactive)
REMARK    1  A    between atoms: C_1  and  C_2
REMARK    2  A    between atoms: C_2  and  N_3
REMARK    3  A    between atoms: C_2  and  C_13
REMARK    4  A    between atoms: N_3  and  C_4
REMARK    5  A    between atoms: C_8  and  C_9
REMARK                            x       y       z     vdW  Elec       q    Type
REMARK                         _______ _______ _______ _____ _____    ______ ____
ROOT
ATOM      1  C   UNL     1      45.080   5.909  12.747  0.00  0.00    +0.000 A 
ATOM      2  C   UNL     1      45.521   4.928  13.639  0.00  0.00    +0.000 A 
ATOM      3  N   UNL     1      45.643   3.603  13.361  0.00  0.00    +0.000 NA
ATOM      4  C   UNL     1      45.289   3.216  12.118  0.00  0.00    +0.000 A 
ATOM      5  C   UNL     1      44.789   4.084  11.159  0.00  0.00    +0.000 A 
ATOM      6  C   UNL     1      44.684   5.443  11.486  0.00  0.00    +0.000 A 
ENDROOT
BRANCH   5   7
ATOM      7  C   UNL     1      44.372   3.528   9.853  0.00  0.00    +0.000 C 
ATOM      8  N   UNL     1      44.005   4.400   8.868  0.00  0.00    +0.000 N 
ATOM      9  O   UNL     1      44.374   2.315   9.652  0.00  0.00    +0.000 OA
ATOM     10  H   UNL     1      44.188   5.388   8.910  0.00  0.00    +0.000 HD
ATOM     11  H   UNL     1      43.797   3.987   7.968  0.00  0.00    +0.000 HD
ENDBRANCH   5   7
BRANCH   1  12
ATOM     12  N   UNL     1      45.110   7.274  12.986  0.00  0.00    +0.000 N 
ATOM     13  H   UNL     1      44.859   7.586  13.916  0.00  0.00    +0.000 HD
BRANCH  12  15
ATOM     14  C   UNL     1      44.917   9.577  12.184  0.00  0.00    +0.000 C 
ATOM     15  C   UNL     1      45.707   8.265  12.083  0.00  0.00    +0.000 C 
BRANCH  15  16
ATOM     16  C   UNL     1      47.214   8.473  12.431  0.00  0.00    +0.000 C 
ATOM     17  C   UNL     1      47.673   9.906  12.079  0.00  0.00    +0.000 C 
ATOM     18  C   UNL     1      49.178  10.110  12.226  0.00  0.00    +0.000 C 
ATOM     19  C   UNL     1      49.959   9.076  11.430  0.00  0.00    +0.000 C 
ATOM     20  C   UNL     1      49.583   7.671  11.874  0.00  0.00    +0.000 C 
ATOM     21  C   UNL     1      48.088   7.422  11.712  0.00  0.00    +0.000 C 
ENDBRANCH  15  16
ENDBRANCH  12  15
ENDBRANCH   1  12
TORSDOF 4
ENDMDL
MODEL 9
REMARK VINA RESULT:    -6.242      3.151      5.086
REMARK INTER + INTRA:          -7.962
REMARK INTER:                  -7.407
REMARK INTRA:                  -0.555
REMARK UNBOUND:                -0.261
REMARK  Name = 
REMARK  5 active torsions:
REMARK  status: ('A' for Active; 'I' for Inactive)
REMARK    1  A    between atoms: C_1  and  C_2
REMARK    2  A    between atoms: C_2  and  N_3
REMARK    3  A    between atoms: C_2  and  C_13
REMARK    4  A    between atoms: N_3  and  C_4
REMARK    5  A    between atoms: C_8  and  C_9
REMARK                            x       y       z     vdW  Elec       q    Type
REMARK                         _______ _______ _______ _____ _____    ______ ____
ROOT
ATOM      1  C   UNL     1      47.456   5.414  14.458  0.00  0.00    +0.000 A 
ATOM      2  C   UNL     1      48.484   6.288  14.825  0.00  0.00    +0.000 A 
ATOM      3  N   UNL     1      49.203   6.224  15.976  0.00  0.00    +0.000 NA
ATOM      4  C   UNL     1      48.874   5.236  16.835  0.00  0.00    +0.000 A 
ATOM      5  C   UNL     1      47.841   4.340  16.611  0.00  0.00    +0.000 A 
ATOM      6  C   UNL     1      47.128   4.437  15.408  0.00  0.00    +0.000 A 
ENDROOT
BRANCH   5   7
ATOM      7  C   UNL     1      47.532   3.343  17.659  0.00  0.00    +0.000 C 
ATOM      8  N   UNL     1      48.393   3.228  18.714  0.00  0.00    +0.000 N 
ATOM      9  O   UNL     1      46.518   2.651  17.595  0.00  0.00    +0.000 OA
ATOM     10  H   UNL     1      49.107   3.905  18.920  0.00  0.00    +0.000 HD
ATOM     11  H   UNL     1      48.111   2.589  19.446  0.00  0.00    +0.000 HD
ENDBRANCH   5   7
BRANCH   1  12
ATOM     12  N   UNL     1      46.838   5.388  13.218  0.00  0.00    +0.000 N 
ATOM     13  H   UNL     1      47.082   4.628  12.595  0.00  0.00    +0.000 HD
BRANCH  12  15
ATOM     14  C   UNL     1      46.191   7.426  12.029  0.00  0.00    +0.000 C 
ATOM     15  C   UNL     1      45.691   6.223  12.840  0.00  0.00    +0.000 C 
BRANCH  15  16
ATOM     16  C   UNL     1      44.651   5.380  12.039  0.00  0.00    +0.000 C 
ATOM     17  C   UNL     1      44.453   3.988  12.679  0.00  0.00    +0.000 C 
ATOM     18  C   UNL     1      43.589   3.053  11.838  0.00  0.00    +0.000 C 
ATOM     19  C   UNL     1      44.124   2.930  10.419  0.00  0.00    +0.000 C 
ATOM     20  C   UNL     1      44.198   4.298   9.760  0.00  0.00    +0.000 C 
ATOM     21  C   UNL     1      45.081   5.249  10.561  0.00  0.00    +0.000 C 
ENDBRANCH  15  16
ENDBRANCH  12  15
ENDBRANCH   1  12
TORSDOF 4
ENDMDL
