MODEL 1
REMARK VINA RESULT:    -7.793      0.000      0.000
REMARK INTER + INTRA:          -9.164
REMARK INTER:                  -9.615
REMARK INTRA:                   0.450
REMARK UNBOUND:                 0.450
REMARK  Name = 
REMARK  4 active torsions:
REMARK  status: ('A' for Active; 'I' for Inactive)
REMARK    1  A    between atoms: C_2  and  C_4
REMARK    2  A    between atoms: C_7  and  C_8
REMARK    3  A    between atoms: C_8  and  C_9
REMARK    4  A    between atoms: C_9  and  C_10
REMARK                            x       y       z     vdW  Elec       q    Type
REMARK                         _______ _______ _______ _____ _____    ______ ____
ROOT
ATOM      1  C   UNL     1      46.435   2.432   7.699  0.00  0.00    +0.000 A 
ATOM      2  C   UNL     1      45.675   1.781   8.670  0.00  0.00    +0.000 A 
ATOM      3  C   UNL     1      44.815   2.527   9.480  0.00  0.00    +0.000 A 
ATOM      4  C   UNL     1      44.732   3.910   9.309  0.00  0.00    +0.000 A 
ATOM      5  N   UNL     1      45.534   4.550   8.426  0.00  0.00    +0.000 NA
ATOM      6  C   UNL     1      46.343   3.810   7.629  0.00  0.00    +0.000 A 
ENDROOT
BRANCH   1   8
ATOM      7  N   UNL     1      48.370   2.459   6.227  0.00  0.00    +0.000 N 
ATOM      8  C   UNL     1      47.337   1.731   6.761  0.00  0.00    +0.000 C 
ATOM      9  O   UNL     1      47.192   0.545   6.498  0.00  0.00    +0.000 OA
ATOM     10  H   UNL     1      49.042   1.936   5.680  0.00  0.00    +0.000 HD
ATOM     11  H   UNL     1      48.670   3.339   6.614  0.00  0.00    +0.000 HD
ENDBRANCH   1   8
BRANCH   4  12
ATOM     12  C   UNL     1      43.779   4.724  10.181  0.00  0.00    +0.000 C 
BRANCH  12  13
ATOM     13  C   UNL     1      44.331   5.411  11.460  0.00  0.00    +0.000 C 
ATOM     14  C   UNL     1      44.412   4.564  12.722  0.00  0.00    +0.000 C 
ATOM     15  C   UNL     1      43.404   5.674  12.642  0.00  0.00    +0.000 C 
BRANCH  13  16
ATOM     16  C   UNL     1      45.365   6.534  11.124  0.00  0.00    +0.000 C 
ATOM     17  C   UNL     1      46.766   6.274  11.700  0.00  0.00    +0.000 C 
ATOM     18  C   UNL     1      46.835   6.590  13.191  0.00  0.00    +0.000 C 
ATOM     19  N   UNL     1      46.489   7.985  13.471  0.00  0.00    +0.000 NA
ATOM     20  C   UNL     1      45.175   8.352  12.942  0.00  0.00    +0.000 C 
ATOM     21  C   UNL     1      44.997   7.993  11.466  0.00  0.00    +0.000 C 
ATOM     22  H   UNL     1      47.192   8.588  13.045  0.00  0.00    +0.000 HD
ENDBRANCH  13  16
ENDBRANCH  12  13
ENDBRANCH   4  12
TORSDOF 4
ENDMDL
MODEL 2
REMARK VINA RESULT:    -7.732      1.106      1.703
REMARK INTER + INTRA:          -9.089
REMARK INTER:                  -9.137
REMARK INTRA:                   0.048
REMARK UNBOUND:                 0.450
REMARK  Name = 
REMARK  4 active torsions:
REMARK  status: ('A' for Active; 'I' for Inactive)
REMARK    1  A    between atoms: C_2  and  C_4
REMARK    2  A    between atoms: C_7  and  C_8
REMARK    3  A    between atoms: C_8  and  C_9
REMARK    4  A    between atoms: C_9  and  C_10
REMARK                            x       y       z     vdW  Elec       q    Type
REMARK                         _______ _______ _______ _____ _____    ______ ____
ROOT
ATOM      1  C   UNL     1      46.645   2.758   7.302  0.00  0.00    +0.000 A 
ATOM      2  C   UNL     1      45.948   1.925   8.175  0.00  0.00    +0.000 A 
ATOM      3  C   UNL     1      45.109   2.492   9.139  0.00  0.00    +0.000 A 
ATOM      4  C   UNL     1      44.985   3.880   9.216  0.00  0.00    +0.000 A 
ATOM      5  N   UNL     1      45.728   4.689   8.424  0.00  0.00    +0.000 NA
ATOM      6  C   UNL     1      46.516   4.124   7.477  0.00  0.00    +0.000 A 
ENDROOT
BRANCH   1   8
ATOM      7  N   UNL     1      47.469   2.925   5.020  0.00  0.00    +0.000 N 
ATOM      8  C   UNL     1      47.518   2.260   6.219  0.00  0.00    +0.000 C 
ATOM      9  O   UNL     1      48.280   1.318   6.392  0.00  0.00    +0.000 OA
ATOM     10  H   UNL     1      48.154   2.644   4.330  0.00  0.00    +0.000 HD
ATOM     11  H   UNL     1      47.062   3.841   4.926  0.00  0.00    +0.000 HD
ENDBRANCH   1   8
BRANCH   4  12
ATOM     12  C   UNL     1      44.055   4.499  10.255  0.00  0.00    +0.000 C 
BRANCH  12  13
ATOM     13  C   UNL     1      44.352   4.270  11.762  0.00  0.00    +0.000 C 
ATOM     14  C   UNL     1      44.975   2.937  12.151  0.00  0.00    +0.000 C 
ATOM     15  C   UNL     1      43.556   3.231  12.545  0.00  0.00    +0.000 C 
BRANCH  13  16
ATOM     16  C   UNL     1      44.674   5.606  12.508  0.00  0.00    +0.000 C 
ATOM     17  C   UNL     1      45.088   6.751  11.571  0.00  0.00    +0.000 C 
ATOM     18  C   UNL     1      46.532   6.608  11.103  0.00  0.00    +0.000 C 
ATOM     19  N   UNL     1      47.472   6.589  12.226  0.00  0.00    +0.000 NA
ATOM     20  C   UNL     1      47.156   5.544  13.201  0.00  0.00    +0.000 C 
ATOM     21  C   UNL     1      45.698   5.570  13.662  0.00  0.00    +0.000 C 
ATOM     22  H   UNL     1      47.439   7.494  12.695  0.00  0.00    +0.000 HD
ENDBRANCH  13  16
ENDBRANCH  12  13
ENDBRANCH   4  12
TORSDOF 4
ENDMDL
MODEL 3
REMARK VINA RESULT:    -7.235      1.694      2.885
REMARK INTER + INTRA:          -8.477
REMARK INTER:                  -9.128
REMARK INTRA:                   0.651
REMARK UNBOUND:                 0.450
REMARK  Name = 
REMARK  4 active torsions:
REMARK  status: ('A' for Active; 'I' for Inactive)
REMARK    1  A    between atoms: C_2  and  C_4
REMARK    2  A    between atoms: C_7  and  C_8
REMARK    3  A    between atoms: C_8  and  C_9
REMARK    4  A    between atoms: C_9  and  C_10
REMARK                            x       y       z     vdW  Elec       q    Type
REMARK                         _______ _______ _______ _____ _____    ______ ____
ROOT
ATOM      1  C   UNL     1      46.580   2.756   7.674  0.00  0.00    +0.000 A 
ATOM      2  C   UNL     1      46.756   4.135   7.579  0.00  0.00    +0.000 A 
ATOM      3  C   UNL     1      45.999   4.980   8.394  0.00  0.00    +0.000 A 
ATOM      4  C   UNL     1      45.076   4.433   9.287  0.00  0.00    +0.000 A 
ATOM      5  N   UNL     1      44.845   3.099   9.316  0.00  0.00    +0.000 NA
ATOM      6  C   UNL     1      45.606   2.292   8.539  0.00  0.00    +0.000 A 
ENDROOT
BRANCH   1   8
ATOM      7  N   UNL     1      48.333   2.272   6.060  0.00  0.00    +0.000 N 
ATOM      8  C   UNL     1      47.363   1.776   6.893  0.00  0.00    +0.000 C 
ATOM      9  O   UNL     1      47.181   0.571   7.009  0.00  0.00    +0.000 OA
ATOM     10  H   UNL     1      48.934   1.585   5.622  0.00  0.00    +0.000 HD
ATOM     11  H   UNL     1      48.681   3.215   6.134  0.00  0.00    +0.000 HD
ENDBRANCH   1   8
BRANCH   4  12
ATOM     12  C   UNL     1      44.262   5.354  10.192  0.00  0.00    +0.000 C 
BRANCH  12  13
ATOM     13  C   UNL     1      44.964   6.036  11.398  0.00  0.00    +0.000 C 
ATOM     14  C   UNL     1      45.273   7.521  11.270  0.00  0.00    +0.000 C 
ATOM     15  C   UNL     1      46.400   6.530  11.261  0.00  0.00    +0.000 C 
BRANCH  13  16
ATOM     16  C   UNL     1      44.586   5.363  12.757  0.00  0.00    +0.000 C 
ATOM     17  C   UNL     1      45.674   4.427  13.305  0.00  0.00    +0.000 C 
ATOM     18  C   UNL     1      45.682   3.082  12.586  0.00  0.00    +0.000 C 
ATOM     19  N   UNL     1      44.397   2.390  12.706  0.00  0.00    +0.000 NA
ATOM     20  C   UNL     1      43.278   3.205  12.231  0.00  0.00    +0.000 C 
ATOM     21  C   UNL     1      43.245   4.604  12.848  0.00  0.00    +0.000 C 
ATOM     22  H   UNL     1      44.240   2.160  13.686  0.00  0.00    +0.000 HD
ENDBRANCH  13  16
ENDBRANCH  12  13
ENDBRANCH   4  12
TORSDOF 4
ENDMDL
MODEL 4
REMARK VINA RESULT:    -6.462      4.569      7.462
REMARK INTER + INTRA:          -7.523
REMARK INTER:                  -7.425
REMARK INTRA:                  -0.098
REMARK UNBOUND:                 0.450
REMARK  Name = 
REMARK  4 active torsions:
REMARK  status: ('A' for Active; 'I' for Inactive)
REMARK    1  A    between atoms: C_2  and  C_4
REMARK    2  A    between atoms: C_7  and  C_8
REMARK    3  A    between atoms: C_8  and  C_9
REMARK    4  A    between atoms: C_9  and  C_10
REMARK                            x       y       z     vdW  Elec       q    Type
REMARK                         _______ _______ _______ _____ _____    ______ ____
ROOT
ATOM      1  C   UNL     1      48.240   4.760  17.146  0.00  0.00    +0.000 A 
ATOM      2  C   UNL     1      48.560   5.945  16.486  0.00  0.00    +0.000 A 
ATOM      3  C   UNL     1      48.200   6.101  15.145  0.00  0.00    +0.000 A 
ATOM      4  C   UNL     1      47.529   5.069  14.486  0.00  0.00    +0.000 A 
ATOM      5  N   UNL     1      47.296   3.887  15.103  0.00  0.00    +0.000 NA
ATOM      6  C   UNL     1      47.628   3.761  16.411  0.00  0.00    +0.000 A 
ENDROOT
BRANCH   1   8
ATOM      7  N   UNL     1      48.378   3.230  19.031  0.00  0.00    +0.000 N 
ATOM      8  C   UNL     1      48.533   4.514  18.573  0.00  0.00    +0.000 C 
ATOM      9  O   UNL     1      48.932   5.407  19.308  0.00  0.00    +0.000 OA
ATOM     10  H   UNL     1      48.692   3.057  19.977  0.00  0.00    +0.000 HD
ATOM     11  H   UNL     1      48.309   2.439  18.411  0.00  0.00    +0.000 HD
ENDBRANCH   1   8
BRANCH   4  12
ATOM     12  C   UNL     1      47.118   5.245  13.027  0.00  0.00    +0.000 C 
BRANCH  12  13
ATOM     13  C   UNL     1      45.703   5.801  12.706  0.00  0.00    +0.000 C 
ATOM     14  C   UNL     1      45.568   6.681  11.471  0.00  0.00    +0.000 C 
ATOM     15  C   UNL     1      45.426   7.295  12.834  0.00  0.00    +0.000 C 
BRANCH  13  16
ATOM     16  C   UNL     1      44.570   4.840  13.190  0.00  0.00    +0.000 C 
ATOM     17  C   UNL     1      44.710   3.405  12.659  0.00  0.00    +0.000 C 
ATOM     18  C   UNL     1      44.254   3.289  11.208  0.00  0.00    +0.000 C 
ATOM     19  N   UNL     1      42.856   3.693  11.040  0.00  0.00    +0.000 NA
ATOM     20  C   UNL     1      42.602   5.045  11.539  0.00  0.00    +0.000 C 
ATOM     21  C   UNL     1      43.104   5.266  12.966  0.00  0.00    +0.000 C 
ATOM     22  H   UNL     1      42.263   3.040  11.552  0.00  0.00    +0.000 HD
ENDBRANCH  13  16
ENDBRANCH  12  13
ENDBRANCH   4  12
TORSDOF 4
ENDMDL
MODEL 5
REMARK VINA RESULT:    -5.969      3.551      5.386
REMARK INTER + INTRA:          -6.914
REMARK INTER:                  -6.497
REMARK INTRA:                  -0.418
REMARK UNBOUND:                 0.450
REMARK  Name = 
REMARK  4 active torsions:
REMARK  status: ('A' for Active; 'I' for Inactive)
REMARK    1  A    between atoms: C_2  and  C_4
REMARK    2  A    between atoms: C_7  and  C_8
REMARK    3  A    between atoms: C_8  and  C_9
REMARK    4  A    between atoms: C_9  and  C_10
REMARK                            x       y       z     vdW  Elec       q    Type
REMARK                         _______ _______ _______ _____ _____    ______ ____
ROOT
ATOM      1  C   UNL     1      44.516   4.930  11.927  0.00  0.00    +0.000 A 
ATOM      2  C   UNL     1      45.191   4.786  13.137  0.00  0.00    +0.000 A 
ATOM      3  C   UNL     1      46.425   5.418  13.313  0.00  0.00    +0.000 A 
ATOM      4  C   UNL     1      46.964   6.180  12.275  0.00  0.00    +0.000 A 
ATOM      5  N   UNL     1      46.349   6.248  11.071  0.00  0.00    +0.000 NA
ATOM      6  C   UNL     1      45.141   5.651  10.925  0.00  0.00    +0.000 A 
ENDROOT
BRANCH   1   8
ATOM      7  N   UNL     1      42.108   5.189  11.708  0.00  0.00    +0.000 N 
ATOM      8  C   UNL     1      43.187   4.343  11.657  0.00  0.00    +0.000 C 
ATOM      9  O   UNL     1      43.055   3.162  11.363  0.00  0.00    +0.000 OA
ATOM     10  H   UNL     1      41.224   4.797  11.409  0.00  0.00    +0.000 HD
ATOM     11  H   UNL     1      42.204   6.191  11.686  0.00  0.00    +0.000 HD
ENDBRANCH   1   8
BRANCH   4  12
ATOM     12  C   UNL     1      48.302   6.887  12.473  0.00  0.00    +0.000 C 
BRANCH  12  13
ATOM     13  C   UNL     1      48.309   8.356  12.978  0.00  0.00    +0.000 C 
ATOM     14  C   UNL     1      46.989   9.112  12.931  0.00  0.00    +0.000 C 
ATOM     15  C   UNL     1      48.095   9.500  11.993  0.00  0.00    +0.000 C 
BRANCH  13  16
ATOM     16  C   UNL     1      49.381   8.589  14.092  0.00  0.00    +0.000 C 
ATOM     17  C   UNL     1      49.813   7.302  14.810  0.00  0.00    +0.000 C 
ATOM     18  C   UNL     1      48.778   6.847  15.834  0.00  0.00    +0.000 C 
ATOM     19  N   UNL     1      48.535   7.868  16.856  0.00  0.00    +0.000 NA
ATOM     20  C   UNL     1      48.137   9.153  16.278  0.00  0.00    +0.000 C 
ATOM     21  C   UNL     1      49.085   9.641  15.182  0.00  0.00    +0.000 C 
ATOM     22  H   UNL     1      49.390   8.004  17.394  0.00  0.00    +0.000 HD
ENDBRANCH  13  16
ENDBRANCH  12  13
ENDBRANCH   4  12
TORSDOF 4
ENDMDL
MODEL 6
REMARK VINA RESULT:    -5.962      3.102      5.035
REMARK INTER + INTRA:          -6.906
REMARK INTER:                  -6.775
REMARK INTRA:                  -0.131
REMARK UNBOUND:                 0.450
REMARK  Name = 
REMARK  4 active torsions:
REMARK  status: ('A' for Active; 'I' for Inactive)
REMARK    1  A    between atoms: C_2  and  C_4
REMARK    2  A    between atoms: C_7  and  C_8
REMARK    3  A    between atoms: C_8  and  C_9
REMARK    4  A    between atoms: C_9  and  C_10
REMARK                            x       y       z     vdW  Elec       q    Type
REMARK                         _______ _______ _______ _____ _____    ______ ____
ROOT
ATOM      1  C   UNL     1      44.587   4.495  11.530  0.00  0.00    +0.000 A 
ATOM      2  C   UNL     1      44.620   5.636  10.729  0.00  0.00    +0.000 A 
ATOM      3  C   UNL     1      45.127   6.827  11.254  0.00  0.00    +0.000 A 
ATOM      4  C   UNL     1      45.588   6.860  12.572  0.00  0.00    +0.000 A 
ATOM      5  N   UNL     1      45.476   5.775  13.374  0.00  0.00    +0.000 NA
ATOM      6  C   UNL     1      45.007   4.620  12.842  0.00  0.00    +0.000 A 
ENDROOT
BRANCH   1   8
ATOM      7  N   UNL     1      44.959   2.469  10.238  0.00  0.00    +0.000 N 
ATOM      8  C   UNL     1      44.116   3.177  11.057  0.00  0.00    +0.000 C 
ATOM      9  O   UNL     1      43.037   2.718  11.407  0.00  0.00    +0.000 OA
ATOM     10  H   UNL     1      44.672   1.524  10.018  0.00  0.00    +0.000 HD
ATOM     11  H   UNL     1      45.938   2.691  10.146  0.00  0.00    +0.000 HD
ENDBRANCH   1   8
BRANCH   4  12
ATOM     12  C   UNL     1      46.160   8.155  13.141  0.00  0.00    +0.000 C 
BRANCH  12  13
ATOM     13  C   UNL     1      47.497   8.702  12.570  0.00  0.00    +0.000 C 
ATOM     14  C   UNL     1      47.917  10.098  13.006  0.00  0.00    +0.000 C 
ATOM     15  C   UNL     1      47.484   9.868  11.587  0.00  0.00    +0.000 C 
BRANCH  13  16
ATOM     16  C   UNL     1      48.524   7.559  12.281  0.00  0.00    +0.000 C 
ATOM     17  C   UNL     1      48.913   6.750  13.527  0.00  0.00    +0.000 C 
ATOM     18  C   UNL     1      49.917   7.497  14.399  0.00  0.00    +0.000 C 
ATOM     19  N   UNL     1      51.147   7.811  13.669  0.00  0.00    +0.000 NA
ATOM     20  C   UNL     1      50.891   8.566  12.441  0.00  0.00    +0.000 C 
ATOM     21  C   UNL     1      49.832   7.921  11.546  0.00  0.00    +0.000 C 
ATOM     22  H   UNL     1      51.614   6.939  13.423  0.00  0.00    +0.000 HD
ENDBRANCH  13  16
ENDBRANCH  12  13
ENDBRANCH   4  12
TORSDOF 4
ENDMDL
MODEL 7
REMARK VINA RESULT:    -5.638      2.125      3.476
REMARK INTER + INTRA:          -6.506
REMARK INTER:                  -6.580
REMARK INTRA:                   0.075
REMARK UNBOUND:                 0.450
REMARK  Name = 
REMARK  4 active torsions:
REMARK  status: ('A' for Active; 'I' for Inactive)
REMARK    1  A    between atoms: C_2  and  C_4
REMARK    2  A    between atoms: C_7  and  C_8
REMARK    3  A    between atoms: C_8  and  C_9
REMARK    4  A    between atoms: C_9  and  C_10
REMARK                            x       y       z     vdW  Elec       q    Type
REMARK                         _______ _______ _______ _____ _____    ______ ____
ROOT
ATOM      1  C   UNL     1      45.064   3.400   9.984  0.00  0.00    +0.000 A 
ATOM      2  C   UNL     1      44.826   3.273  11.352  0.00  0.00    +0.000 A 
ATOM      3  C   UNL     1      44.881   4.409  12.165  0.00  0.00    +0.000 A 
ATOM      4  C   UNL     1      45.177   5.650  11.598  0.00  0.00    +0.000 A 
ATOM      5  N   UNL     1      45.493   5.757  10.286  0.00  0.00    +0.000 NA
ATOM      6  C   UNL     1      45.409   4.651   9.506  0.00  0.00    +0.000 A 
ENDROOT
BRANCH   1   8
ATOM      7  N   UNL     1      45.921   2.231   8.032  0.00  0.00    +0.000 N 
ATOM      8  C   UNL     1      44.983   2.273   9.032  0.00  0.00    +0.000 C 
ATOM      9  O   UNL     1      44.139   1.394   9.150  0.00  0.00    +0.000 OA
ATOM     10  H   UNL     1      45.922   1.395   7.461  0.00  0.00    +0.000 HD
ATOM     11  H   UNL     1      46.768   2.776   8.060  0.00  0.00    +0.000 HD
ENDBRANCH   1   8
BRANCH   4  12
ATOM     12  C   UNL     1      45.219   6.893  12.482  0.00  0.00    +0.000 C 
BRANCH  12  13
ATOM     13  C   UNL     1      46.565   7.650  12.653  0.00  0.00    +0.000 C 
ATOM     14  C   UNL     1      46.557   8.886  13.541  0.00  0.00    +0.000 C 
ATOM     15  C   UNL     1      46.735   9.043  12.059  0.00  0.00    +0.000 C 
BRANCH  13  16
ATOM     16  C   UNL     1      47.796   6.692  12.544  0.00  0.00    +0.000 C 
ATOM     17  C   UNL     1      47.942   5.737  13.738  0.00  0.00    +0.000 C 
ATOM     18  C   UNL     1      48.535   6.438  14.957  0.00  0.00    +0.000 C 
ATOM     19  N   UNL     1      49.856   7.003  14.673  0.00  0.00    +0.000 NA
ATOM     20  C   UNL     1      49.839   7.916  13.529  0.00  0.00    +0.000 C 
ATOM     21  C   UNL     1      49.185   7.313  12.285  0.00  0.00    +0.000 C 
ATOM     22  H   UNL     1      50.502   6.241  14.471  0.00  0.00    +0.000 HD
ENDBRANCH  13  16
ENDBRANCH  12  13
ENDBRANCH   4  12
TORSDOF 4
ENDMDL
MODEL 8
REMARK VINA RESULT:    -5.181      3.962      7.265
REMARK INTER + INTRA:          -5.942
REMARK INTER:                  -6.519
REMARK INTRA:                   0.577
REMARK UNBOUND:                 0.450
REMARK  Name = 
REMARK  4 active torsions:
REMARK  status: ('A' for Active; 'I' for Inactive)
REMARK    1  A    between atoms: C_2  and  C_4
REMARK    2  A    between atoms: C_7  and  C_8
REMARK    3  A    between atoms: C_8  and  C_9
REMARK    4  A    between atoms: C_9  and  C_10
REMARK                            x       y       z     vdW  Elec       q    Type
REMARK                         _______ _______ _______ _____ _____    ______ ____
ROOT
ATOM      1  C   UNL     1      48.779   8.430  14.611  0.00  0.00    +0.000 A 
ATOM      2  C   UNL     1      47.661   8.977  13.984  0.00  0.00    +0.000 A 
ATOM      3  C   UNL     1      47.006   8.244  12.991  0.00  0.00    +0.000 A 
ATOM      4  C   UNL     1      47.483   6.980  12.638  0.00  0.00    +0.000 A 
ATOM      5  N   UNL     1      48.618   6.488  13.186  0.00  0.00    +0.000 NA
ATOM      6  C   UNL     1      49.226   7.199  14.167  0.00  0.00    +0.000 A 
ENDROOT
BRANCH   1   8
ATOM      7  N   UNL     1      50.702   8.538  16.096  0.00  0.00    +0.000 N 
ATOM      8  C   UNL     1      49.513   9.101  15.704  0.00  0.00    +0.000 C 
ATOM      9  O   UNL     1      49.100  10.133  16.215  0.00  0.00    +0.000 OA
ATOM     10  H   UNL     1      51.245   9.072  16.763  0.00  0.00    +0.000 HD
ATOM     11  H   UNL     1      51.190   7.859  15.536  0.00  0.00    +0.000 HD
ENDBRANCH   1   8
BRANCH   4  12
ATOM     12  C   UNL     1      46.757   6.171  11.567  0.00  0.00    +0.000 C 
BRANCH  12  13
ATOM     13  C   UNL     1      45.640   5.182  11.998  0.00  0.00    +0.000 C 
ATOM     14  C   UNL     1      45.316   5.108  13.484  0.00  0.00    +0.000 C 
ATOM     15  C   UNL     1      45.993   3.945  12.817  0.00  0.00    +0.000 C 
BRANCH  13  16
ATOM     16  C   UNL     1      44.559   4.994  10.885  0.00  0.00    +0.000 C 
ATOM     17  C   UNL     1      43.252   4.367  11.393  0.00  0.00    +0.000 C 
ATOM     18  C   UNL     1      43.383   2.859  11.588  0.00  0.00    +0.000 C 
ATOM     19  N   UNL     1      43.751   2.177  10.346  0.00  0.00    +0.000 NA
ATOM     20  C   UNL     1      44.978   2.715   9.756  0.00  0.00    +0.000 C 
ATOM     21  C   UNL     1      44.957   4.236   9.601  0.00  0.00    +0.000 C 
ATOM     22  H   UNL     1      42.991   2.288   9.674  0.00  0.00    +0.000 HD
ENDBRANCH  13  16
ENDBRANCH  12  13
ENDBRANCH   4  12
TORSDOF 4
ENDMDL
MODEL 9
REMARK VINA RESULT:    -5.025      4.337      6.684
REMARK INTER + INTRA:          -5.750
REMARK INTER:                  -5.552
REMARK INTRA:                  -0.198
REMARK UNBOUND:                 0.450
REMARK  Name = 
REMARK  4 active torsions:
REMARK  status: ('A' for Active; 'I' for Inactive)
REMARK    1  A    between atoms: C_2  and  C_4
REMARK    2  A    between atoms: C_7  and  C_8
REMARK    3  A    between atoms: C_8  and  C_9
REMARK    4  A    between atoms: C_9  and  C_10
REMARK                            x       y       z     vdW  Elec       q    Type
REMARK                         _______ _______ _______ _____ _____    ______ ____
ROOT
ATOM      1  C   UNL     1      45.020   5.996  12.599  0.00  0.00    +0.000 A 
ATOM      2  C   UNL     1      45.577   7.252  12.363  0.00  0.00    +0.000 A 
ATOM      3  C   UNL     1      46.841   7.549  12.879  0.00  0.00    +0.000 A 
ATOM      4  C   UNL     1      47.525   6.588  13.626  0.00  0.00    +0.000 A 
ATOM      5  N   UNL     1      46.947   5.402  13.927  0.00  0.00    +0.000 NA
ATOM      6  C   UNL     1      45.733   5.119  13.397  0.00  0.00    +0.000 A 
ENDROOT
BRANCH   1   8
ATOM      7  N   UNL     1      42.653   5.548  12.928  0.00  0.00    +0.000 N 
ATOM      8  C   UNL     1      43.715   5.566  12.059  0.00  0.00    +0.000 C 
ATOM      9  O   UNL     1      43.575   5.272  10.879  0.00  0.00    +0.000 OA
ATOM     10  H   UNL     1      41.748   5.362  12.517  0.00  0.00    +0.000 HD
ATOM     11  H   UNL     1      42.673   6.023  13.816  0.00  0.00    +0.000 HD
ENDBRANCH   1   8
BRANCH   4  12
ATOM     12  C   UNL     1      48.913   6.905  14.175  0.00  0.00    +0.000 C 
BRANCH  12  13
ATOM     13  C   UNL     1      49.038   7.820  15.424  0.00  0.00    +0.000 C 
ATOM     14  C   UNL     1      47.972   8.890  15.609  0.00  0.00    +0.000 C 
ATOM     15  C   UNL     1      49.373   9.298  15.254  0.00  0.00    +0.000 C 
BRANCH  13  16
ATOM     16  C   UNL     1      49.720   7.086  16.624  0.00  0.00    +0.000 C 
ATOM     17  C   UNL     1      49.426   5.579  16.673  0.00  0.00    +0.000 C 
ATOM     18  C   UNL     1      48.034   5.289  17.224  0.00  0.00    +0.000 C 
ATOM     19  N   UNL     1      47.860   5.821  18.578  0.00  0.00    +0.000 NA
ATOM     20  C   UNL     1      48.140   7.256  18.654  0.00  0.00    +0.000 C 
ATOM     21  C   UNL     1      49.490   7.640  18.046  0.00  0.00    +0.000 C 
ATOM     22  H   UNL     1      48.496   5.331  19.206  0.00  0.00    +0.000 HD
ENDBRANCH  13  16
ENDBRANCH  12  13
ENDBRANCH   4  12
TORSDOF 4
ENDMDL
