MODEL 1
REMARK VINA RESULT:    -7.188      0.000      0.000
REMARK INTER + INTRA:          -9.470
REMARK INTER:                  -9.079
REMARK INTRA:                  -0.392
REMARK UNBOUND:                -0.392
REMARK  Name = 
REMARK  5 active torsions:
REMARK  status: ('A' for Active; 'I' for Inactive)
REMARK    1  A    between atoms: N_1  and  C_2
REMARK    2  A    between atoms: C_2  and  C_3
REMARK    3  A    between atoms: C_7  and  S_8
REMARK    4  A    between atoms: S_8  and  C_9
REMARK    5  A    between atoms: C_9  and  C_10
REMARK                            x       y       z     vdW  Elec       q    Type
REMARK                         _______ _______ _______ _____ _____    ______ ____
ROOT
ATOM      1  C   UNL     1      46.342   5.015  13.386  0.00  0.00    +0.000 A 
ATOM      2  N   UNL     1      46.641   6.292  13.064  0.00  0.00    +0.000 NA
ATOM      3  C   UNL     1      46.206   6.723  11.868  0.00  0.00    +0.000 A 
ATOM      4  C   UNL     1      45.492   5.940  10.994  0.00  0.00    +0.000 A 
ATOM      5  C   UNL     1      45.229   4.655  11.414  0.00  0.00    +0.000 A 
ATOM      6  N   UNL     1      45.638   4.175  12.602  0.00  0.00    +0.000 NA
ENDROOT
BRANCH   1   7
ATOM      7  C   UNL     1      46.809   4.518  14.746  0.00  0.00    +0.000 C 
BRANCH   7   8
ATOM      8  N   UNL     1      47.515   3.224  14.690  0.00  0.00    +0.000 NA
ATOM      9  H   UNL     1      48.166   3.174  15.470  0.00  0.00    +0.000 HD
ATOM     10  H   UNL     1      48.080   3.228  13.839  0.00  0.00    +0.000 HD
ENDBRANCH   7   8
ENDBRANCH   1   7
BRANCH   5  11
ATOM     11  S   UNL     1      44.202   3.567  10.441  0.00  0.00    +0.000 S 
BRANCH  11  12
ATOM     12  C   UNL     1      44.541   4.189   8.754  0.00  0.00    +0.000 C 
BRANCH  12  13
ATOM     13  C   UNL     1      45.238   3.127   7.872  0.00  0.00    +0.000 C 
ATOM     14  C   UNL     1      45.723   1.908   8.679  0.00  0.00    +0.000 C 
ATOM     15  C   UNL     1      46.480   0.906   7.808  0.00  0.00    +0.000 C 
ATOM     16  C   UNL     1      47.646   1.562   7.081  0.00  0.00    +0.000 C 
ATOM     17  C   UNL     1      47.181   2.759   6.261  0.00  0.00    +0.000 C 
ATOM     18  C   UNL     1      46.418   3.769   7.118  0.00  0.00    +0.000 C 
ENDBRANCH  12  13
ENDBRANCH  11  12
ENDBRANCH   5  11
TORSDOF 5
ENDMDL
MODEL 2
REMARK VINA RESULT:    -6.779      1.323      2.481
REMARK INTER + INTRA:          -8.954
REMARK INTER:                  -8.632
REMARK INTRA:                  -0.323
REMARK UNBOUND:                -0.392
REMARK  Name = 
REMARK  5 active torsions:
REMARK  status: ('A' for Active; 'I' for Inactive)
REMARK    1  A    between atoms: N_1  and  C_2
REMARK    2  A    between atoms: C_2  and  C_3
REMARK    3  A    between atoms: C_7  and  S_8
REMARK    4  A    between atoms: S_8  and  C_9
REMARK    5  A    between atoms: C_9  and  C_10
REMARK                            x       y       z     vdW  Elec       q    Type
REMARK                         _______ _______ _______ _____ _____    ______ ____
ROOT
ATOM      1  C   UNL     1      45.187   6.473  12.233  0.00  0.00    +0.000 A 
ATOM      2  N   UNL     1      45.986   6.105  13.260  0.00  0.00    +0.000 NA
ATOM      3  C   UNL     1      46.156   4.785  13.439  0.00  0.00    +0.000 A 
ATOM      4  C   UNL     1      45.570   3.830  12.644  0.00  0.00    +0.000 A 
ATOM      5  C   UNL     1      44.781   4.301  11.619  0.00  0.00    +0.000 A 
ATOM      6  N   UNL     1      44.580   5.612  11.393  0.00  0.00    +0.000 NA
ENDROOT
BRANCH   1   7
ATOM      7  C   UNL     1      45.001   7.965  12.003  0.00  0.00    +0.000 C 
BRANCH   7   8
ATOM      8  N   UNL     1      43.888   8.286  11.091  0.00  0.00    +0.000 NA
ATOM      9  H   UNL     1      44.245   8.854  10.326  0.00  0.00    +0.000 HD
ATOM     10  H   UNL     1      43.235   8.876  11.610  0.00  0.00    +0.000 HD
ENDBRANCH   7   8
ENDBRANCH   1   7
BRANCH   5  11
ATOM     11  S   UNL     1      44.063   3.182  10.429  0.00  0.00    +0.000 S 
BRANCH  11  12
ATOM     12  C   UNL     1      44.558   3.983   8.860  0.00  0.00    +0.000 C 
BRANCH  12  13
ATOM     13  C   UNL     1      45.265   2.998   7.901  0.00  0.00    +0.000 C 
ATOM     14  C   UNL     1      45.890   1.796   8.636  0.00  0.00    +0.000 C 
ATOM     15  C   UNL     1      46.653   0.874   7.686  0.00  0.00    +0.000 C 
ATOM     16  C   UNL     1      47.718   1.632   6.904  0.00  0.00    +0.000 C 
ATOM     17  C   UNL     1      47.115   2.812   6.154  0.00  0.00    +0.000 C 
ATOM     18  C   UNL     1      46.344   3.742   7.090  0.00  0.00    +0.000 C 
ENDBRANCH  12  13
ENDBRANCH  11  12
ENDBRANCH   5  11
TORSDOF 5
ENDMDL
MODEL 3
REMARK VINA RESULT:    -6.427      1.247      2.471
REMARK INTER + INTRA:          -8.509
REMARK INTER:                  -8.158
REMARK INTRA:                  -0.351
REMARK UNBOUND:                -0.392
REMARK  Name = 
REMARK  5 active torsions:
REMARK  status: ('A' for Active; 'I' for Inactive)
REMARK    1  A    between atoms: N_1  and  C_2
REMARK    2  A    between atoms: C_2  and  C_3
REMARK    3  A    between atoms: C_7  and  S_8
REMARK    4  A    between atoms: S_8  and  C_9
REMARK    5  A    between atoms: C_9  and  C_10
REMARK                            x       y       z     vdW  Elec       q    Type
REMARK                         _______ _______ _______ _____ _____    ______ ____
ROOT
ATOM      1  C   UNL     1      46.624   5.823  12.914  0.00  0.00    +0.000 A 
ATOM      2  N   UNL     1      47.127   4.806  13.649  0.00  0.00    +0.000 NA
ATOM      3  C   UNL     1      46.622   3.586  13.402  0.00  0.00    +0.000 A 
ATOM      4  C   UNL     1      45.649   3.344  12.462  0.00  0.00    +0.000 A 
ATOM      5  C   UNL     1      45.205   4.441  11.758  0.00  0.00    +0.000 A 
ATOM      6  N   UNL     1      45.680   5.683  11.963  0.00  0.00    +0.000 NA
ENDROOT
BRANCH   1   7
ATOM      7  C   UNL     1      47.200   7.208  13.167  0.00  0.00    +0.000 C 
BRANCH   7   8
ATOM      8  N   UNL     1      46.174   8.236  13.419  0.00  0.00    +0.000 NA
ATOM      9  H   UNL     1      46.500   8.847  14.164  0.00  0.00    +0.000 HD
ATOM     10  H   UNL     1      45.348   7.754  13.779  0.00  0.00    +0.000 HD
ENDBRANCH   7   8
ENDBRANCH   1   7
BRANCH   5  11
ATOM     11  S   UNL     1      44.042   4.259  10.418  0.00  0.00    +0.000 S 
BRANCH  11  12
ATOM     12  C   UNL     1      44.488   2.596   9.798  0.00  0.00    +0.000 C 
BRANCH  12  13
ATOM     13  C   UNL     1      45.706   2.639   8.846  0.00  0.00    +0.000 C 
ATOM     14  C   UNL     1      45.529   3.648   7.695  0.00  0.00    +0.000 C 
ATOM     15  C   UNL     1      46.704   3.619   6.719  0.00  0.00    +0.000 C 
ATOM     16  C   UNL     1      46.943   2.220   6.168  0.00  0.00    +0.000 C 
ATOM     17  C   UNL     1      47.142   1.212   7.293  0.00  0.00    +0.000 C 
ATOM     18  C   UNL     1      45.975   1.231   8.281  0.00  0.00    +0.000 C 
ENDBRANCH  12  13
ENDBRANCH  11  12
ENDBRANCH   5  11
TORSDOF 5
ENDMDL
MODEL 4
REMARK VINA RESULT:    -6.352      1.105      2.035
REMARK INTER + INTRA:          -8.415
REMARK INTER:                  -8.028
REMARK INTRA:                  -0.387
REMARK UNBOUND:                -0.392
REMARK  Name = 
REMARK  5 active torsions:
REMARK  status: ('A' for Active; 'I' for Inactive)
REMARK    1  A    between atoms: N_1  and  C_2
REMARK    2  A    between atoms: C_2  and  C_3
REMARK    3  A    between atoms: C_7  and  S_8
REMARK    4  A    between atoms: S_8  and  C_9
REMARK    5  A    between atoms: C_9  and  C_10
REMARK                            x       y       z     vdW  Elec       q    Type
REMARK                         _______ _______ _______ _____ _____    ______ ____
ROOT
ATOM      1  C   UNL     1      46.808   5.881  12.411  0.00  0.00    +0.000 A 
ATOM      2  N   UNL     1      47.302   5.157  13.440  0.00  0.00    +0.000 NA
ATOM      3  C   UNL     1      46.764   3.940  13.626  0.00  0.00    +0.000 A 
ATOM      4  C   UNL     1      45.766   3.424  12.835  0.00  0.00    +0.000 A 
ATOM      5  C   UNL     1      45.334   4.232  11.806  0.00  0.00    +0.000 A 
ATOM      6  N   UNL     1      45.841   5.456  11.574  0.00  0.00    +0.000 NA
ENDROOT
BRANCH   1   7
ATOM      7  C   UNL     1      47.422   7.253  12.173  0.00  0.00    +0.000 C 
BRANCH   7   8
ATOM      8  N   UNL     1      48.870   7.305  12.445  0.00  0.00    +0.000 NA
ATOM      9  H   UNL     1      49.072   8.151  12.972  0.00  0.00    +0.000 HD
ATOM     10  H   UNL     1      49.340   7.405  11.543  0.00  0.00    +0.000 HD
ENDBRANCH   7   8
ENDBRANCH   1   7
BRANCH   5  11
ATOM     11  S   UNL     1      44.138   3.641  10.621  0.00  0.00    +0.000 S 
BRANCH  11  12
ATOM     12  C   UNL     1      44.805   4.355   9.074  0.00  0.00    +0.000 C 
BRANCH  12  13
ATOM     13  C   UNL     1      45.335   3.266   8.113  0.00  0.00    +0.000 C 
ATOM     14  C   UNL     1      45.771   1.983   8.847  0.00  0.00    +0.000 C 
ATOM     15  C   UNL     1      46.367   0.949   7.894  0.00  0.00    +0.000 C 
ATOM     16  C   UNL     1      47.529   1.525   7.095  0.00  0.00    +0.000 C 
ATOM     17  C   UNL     1      47.111   2.784   6.345  0.00  0.00    +0.000 C 
ATOM     18  C   UNL     1      46.508   3.827   7.285  0.00  0.00    +0.000 C 
ENDBRANCH  12  13
ENDBRANCH  11  12
ENDBRANCH   5  11
TORSDOF 5
ENDMDL
MODEL 5
REMARK VINA RESULT:    -6.320      2.688      5.882
REMARK INTER + INTRA:          -8.374
REMARK INTER:                  -7.901
REMARK INTRA:                  -0.473
REMARK UNBOUND:                -0.392
REMARK  Name = 
REMARK  5 active torsions:
REMARK  status: ('A' for Active; 'I' for Inactive)
REMARK    1  A    between atoms: N_1  and  C_2
REMARK    2  A    between atoms: C_2  and  C_3
REMARK    3  A    between atoms: C_7  and  S_8
REMARK    4  A    between atoms: S_8  and  C_9
REMARK    5  A    between atoms: C_9  and  C_10
REMARK                            x       y       z     vdW  Elec       q    Type
REMARK                         _______ _______ _______ _____ _____    ______ ____
ROOT
ATOM      1  C   UNL     1      46.551   2.074   7.651  0.00  0.00    +0.000 A 
ATOM      2  N   UNL     1      46.944   3.246   7.105  0.00  0.00    +0.000 NA
ATOM      3  C   UNL     1      46.384   4.357   7.610  0.00  0.00    +0.000 A 
ATOM      4  C   UNL     1      45.459   4.345   8.627  0.00  0.00    +0.000 A 
ATOM      5  C   UNL     1      45.128   3.104   9.125  0.00  0.00    +0.000 A 
ATOM      6  N   UNL     1      45.662   1.962   8.657  0.00  0.00    +0.000 NA
ENDROOT
BRANCH   1   7
ATOM      7  C   UNL     1      47.192   0.807   7.104  0.00  0.00    +0.000 C 
BRANCH   7   8
ATOM      8  N   UNL     1      46.765  -0.419   7.803  0.00  0.00    +0.000 NA
ATOM      9  H   UNL     1      47.514  -0.719   8.423  0.00  0.00    +0.000 HD
ATOM     10  H   UNL     1      46.663  -1.148   7.095  0.00  0.00    +0.000 HD
ENDBRANCH   7   8
ENDBRANCH   1   7
BRANCH   5  11
ATOM     11  S   UNL     1      44.043   2.944  10.531  0.00  0.00    +0.000 S 
BRANCH  11  12
ATOM     12  C   UNL     1      43.612   4.696  10.836  0.00  0.00    +0.000 C 
BRANCH  12  13
ATOM     13  C   UNL     1      44.411   5.294  12.017  0.00  0.00    +0.000 C 
ATOM     14  C   UNL     1      45.248   6.522  11.609  0.00  0.00    +0.000 C 
ATOM     15  C   UNL     1      46.094   7.052  12.766  0.00  0.00    +0.000 C 
ATOM     16  C   UNL     1      46.989   5.968  13.351  0.00  0.00    +0.000 C 
ATOM     17  C   UNL     1      46.175   4.753  13.779  0.00  0.00    +0.000 C 
ATOM     18  C   UNL     1      45.320   4.213  12.633  0.00  0.00    +0.000 C 
ENDBRANCH  12  13
ENDBRANCH  11  12
ENDBRANCH   5  11
TORSDOF 5
ENDMDL
MODEL 6
REMARK VINA RESULT:    -5.995      1.537      2.205
REMARK INTER + INTRA:          -7.964
REMARK INTER:                  -7.623
REMARK INTRA:                  -0.341
REMARK UNBOUND:                -0.392
REMARK  Name = 
REMARK  5 active torsions:
REMARK  status: ('A' for Active; 'I' for Inactive)
REMARK    1  A    between atoms: N_1  and  C_2
REMARK    2  A    between atoms: C_2  and  C_3
REMARK    3  A    between atoms: C_7  and  S_8
REMARK    4  A    between atoms: S_8  and  C_9
REMARK    5  A    between atoms: C_9  and  C_10
REMARK                            x       y       z     vdW  Elec       q    Type
REMARK                         _______ _______ _______ _____ _____    ______ ____
ROOT
ATOM      1  C   UNL     1      47.060   5.147  13.953  0.00  0.00    +0.000 A 
ATOM      2  N   UNL     1      48.271   5.746  13.910  0.00  0.00    +0.000 NA
ATOM      3  C   UNL     1      48.458   6.642  12.927  0.00  0.00    +0.000 A 
ATOM      4  C   UNL     1      47.496   6.961  11.998  0.00  0.00    +0.000 A 
ATOM      5  C   UNL     1      46.293   6.304  12.128  0.00  0.00    +0.000 A 
ATOM      6  N   UNL     1      46.052   5.402  13.096  0.00  0.00    +0.000 NA
ENDROOT
BRANCH   1   7
ATOM      7  C   UNL     1      46.825   4.145  15.073  0.00  0.00    +0.000 C 
BRANCH   7   8
ATOM      8  N   UNL     1      47.849   3.087  15.142  0.00  0.00    +0.000 NA
ATOM      9  H   UNL     1      48.646   3.366  14.574  0.00  0.00    +0.000 HD
ATOM     10  H   UNL     1      47.453   2.256  14.699  0.00  0.00    +0.000 HD
ENDBRANCH   7   8
ENDBRANCH   1   7
BRANCH   5  11
ATOM     11  S   UNL     1      44.911   6.712  11.076  0.00  0.00    +0.000 S 
BRANCH  11  12
ATOM     12  C   UNL     1      43.938   5.166  11.169  0.00  0.00    +0.000 C 
BRANCH  12  13
ATOM     13  C   UNL     1      44.154   4.267   9.929  0.00  0.00    +0.000 C 
ATOM     14  C   UNL     1      44.298   2.777  10.291  0.00  0.00    +0.000 C 
ATOM     15  C   UNL     1      44.592   1.912   9.065  0.00  0.00    +0.000 C 
ATOM     16  C   UNL     1      45.825   2.400   8.317  0.00  0.00    +0.000 C 
ATOM     17  C   UNL     1      45.691   3.868   7.932  0.00  0.00    +0.000 C 
ATOM     18  C   UNL     1      45.393   4.746   9.148  0.00  0.00    +0.000 C 
ENDBRANCH  12  13
ENDBRANCH  11  12
ENDBRANCH   5  11
TORSDOF 5
ENDMDL
MODEL 7
REMARK VINA RESULT:    -5.771      2.882      6.121
REMARK INTER + INTRA:          -7.681
REMARK INTER:                  -7.298
REMARK INTRA:                  -0.383
REMARK UNBOUND:                -0.392
REMARK  Name = 
REMARK  5 active torsions:
REMARK  status: ('A' for Active; 'I' for Inactive)
REMARK    1  A    between atoms: N_1  and  C_2
REMARK    2  A    between atoms: C_2  and  C_3
REMARK    3  A    between atoms: C_7  and  S_8
REMARK    4  A    between atoms: S_8  and  C_9
REMARK    5  A    between atoms: C_9  and  C_10
REMARK                            x       y       z     vdW  Elec       q    Type
REMARK                         _______ _______ _______ _____ _____    ______ ____
ROOT
ATOM      1  C   UNL     1      46.803   2.622   7.306  0.00  0.00    +0.000 A 
ATOM      2  N   UNL     1      46.618   1.311   7.578  0.00  0.00    +0.000 NA
ATOM      3  C   UNL     1      45.661   1.017   8.474  0.00  0.00    +0.000 A 
ATOM      4  C   UNL     1      44.892   1.968   9.101  0.00  0.00    +0.000 A 
ATOM      5  C   UNL     1      45.149   3.275   8.754  0.00  0.00    +0.000 A 
ATOM      6  N   UNL     1      46.092   3.623   7.860  0.00  0.00    +0.000 NA
ENDROOT
BRANCH   1   7
ATOM      7  C   UNL     1      47.868   2.970   6.277  0.00  0.00    +0.000 C 
BRANCH   7   8
ATOM      8  N   UNL     1      48.551   1.791   5.713  0.00  0.00    +0.000 NA
ATOM      9  H   UNL     1      48.993   1.276   6.472  0.00  0.00    +0.000 HD
ATOM     10  H   UNL     1      49.306   2.138   5.119  0.00  0.00    +0.000 HD
ENDBRANCH   7   8
ENDBRANCH   1   7
BRANCH   5  11
ATOM     11  S   UNL     1      44.142   4.604   9.387  0.00  0.00    +0.000 S 
BRANCH  11  12
ATOM     12  C   UNL     1      44.244   4.286  11.186  0.00  0.00    +0.000 C 
BRANCH  12  13
ATOM     13  C   UNL     1      45.606   4.717  11.777  0.00  0.00    +0.000 C 
ATOM     14  C   UNL     1      45.656   4.592  13.312  0.00  0.00    +0.000 C 
ATOM     15  C   UNL     1      46.979   5.098  13.888  0.00  0.00    +0.000 C 
ATOM     16  C   UNL     1      47.266   6.531  13.460  0.00  0.00    +0.000 C 
ATOM     17  C   UNL     1      47.241   6.669  11.943  0.00  0.00    +0.000 C 
ATOM     18  C   UNL     1      45.925   6.163  11.352  0.00  0.00    +0.000 C 
ENDBRANCH  12  13
ENDBRANCH  11  12
ENDBRANCH   5  11
TORSDOF 5
ENDMDL
MODEL 8
REMARK VINA RESULT:    -5.215      2.751      6.307
REMARK INTER + INTRA:          -6.978
REMARK INTER:                  -6.659
REMARK INTRA:                  -0.319
REMARK UNBOUND:                -0.392
REMARK  Name = 
REMARK  5 active torsions:
REMARK  status: ('A' for Active; 'I' for Inactive)
REMARK    1  A    between atoms: N_1  and  C_2
REMARK    2  A    between atoms: C_2  and  C_3
REMARK    3  A    between atoms: C_7  and  S_8
REMARK    4  A    between atoms: S_8  and  C_9
REMARK    5  A    between atoms: C_9  and  C_10
REMARK                            x       y       z     vdW  Elec       q    Type
REMARK                         _______ _______ _______ _____ _____    ______ ____
ROOT
ATOM      1  C   UNL     1      45.098   3.628   8.960  0.00  0.00    +0.000 A 
ATOM      2  N   UNL     1      44.454   2.578   9.516  0.00  0.00    +0.000 NA
ATOM      3  C   UNL     1      43.884   2.794  10.714  0.00  0.00    +0.000 A 
ATOM      4  C   UNL     1      43.930   4.001  11.368  0.00  0.00    +0.000 A 
ATOM      5  C   UNL     1      44.602   5.013  10.719  0.00  0.00    +0.000 A 
ATOM      6  N   UNL     1      45.186   4.851   9.518  0.00  0.00    +0.000 NA
ENDROOT
BRANCH   1   7
ATOM      7  C   UNL     1      45.730   3.406   7.594  0.00  0.00    +0.000 C 
BRANCH   7   8
ATOM      8  N   UNL     1      46.773   4.393   7.261  0.00  0.00    +0.000 NA
ATOM      9  H   UNL     1      46.352   5.318   7.241  0.00  0.00    +0.000 HD
ATOM     10  H   UNL     1      47.081   4.193   6.307  0.00  0.00    +0.000 HD
ENDBRANCH   7   8
ENDBRANCH   1   7
BRANCH   5  11
ATOM     11  S   UNL     1      44.630   6.667  11.387  0.00  0.00    +0.000 S 
BRANCH  11  12
ATOM     12  C   UNL     1      45.637   6.413  12.893  0.00  0.00    +0.000 C 
BRANCH  12  13
ATOM     13  C   UNL     1      46.862   7.355  12.940  0.00  0.00    +0.000 C 
ATOM     14  C   UNL     1      46.468   8.845  12.939  0.00  0.00    +0.000 C 
ATOM     15  C   UNL     1      47.690   9.762  12.903  0.00  0.00    +0.000 C 
ATOM     16  C   UNL     1      48.593   9.449  11.718  0.00  0.00    +0.000 C 
ATOM     17  C   UNL     1      49.009   7.984  11.714  0.00  0.00    +0.000 C 
ATOM     18  C   UNL     1      47.798   7.052  11.754  0.00  0.00    +0.000 C 
ENDBRANCH  12  13
ENDBRANCH  11  12
ENDBRANCH   5  11
TORSDOF 5
ENDMDL
MODEL 9
REMARK VINA RESULT:    -5.146      3.340      6.070
REMARK INTER + INTRA:          -6.892
REMARK INTER:                  -6.529
REMARK INTRA:                  -0.363
REMARK UNBOUND:                -0.392
REMARK  Name = 
REMARK  5 active torsions:
REMARK  status: ('A' for Active; 'I' for Inactive)
REMARK    1  A    between atoms: N_1  and  C_2
REMARK    2  A    between atoms: C_2  and  C_3
REMARK    3  A    between atoms: C_7  and  S_8
REMARK    4  A    between atoms: S_8  and  C_9
REMARK    5  A    between atoms: C_9  and  C_10
REMARK                            x       y       z     vdW  Elec       q    Type
REMARK                         _______ _______ _______ _____ _____    ______ ____
ROOT
ATOM      1  C   UNL     1      44.828   3.873  11.839  0.00  0.00    +0.000 A 
ATOM      2  N   UNL     1      45.605   3.196  12.713  0.00  0.00    +0.000 NA
ATOM      3  C   UNL     1      46.397   3.938  13.505  0.00  0.00    +0.000 A 
ATOM      4  C   UNL     1      46.442   5.311  13.460  0.00  0.00    +0.000 A 
ATOM      5  C   UNL     1      45.609   5.911  12.543  0.00  0.00    +0.000 A 
ATOM      6  N   UNL     1      44.794   5.215  11.729  0.00  0.00    +0.000 NA
ENDROOT
BRANCH   1   7
ATOM      7  C   UNL     1      43.909   3.049  10.949  0.00  0.00    +0.000 C 
BRANCH   7   8
ATOM      8  N   UNL     1      43.046   2.116  11.697  0.00  0.00    +0.000 NA
ATOM      9  H   UNL     1      43.010   1.232  11.196  0.00  0.00    +0.000 HD
ATOM     10  H   UNL     1      42.100   2.501  11.676  0.00  0.00    +0.000 HD
ENDBRANCH   7   8
ENDBRANCH   1   7
BRANCH   5  11
ATOM     11  S   UNL     1      45.465   7.687  12.463  0.00  0.00    +0.000 S 
BRANCH  11  12
ATOM     12  C   UNL     1      47.053   8.196  13.218  0.00  0.00    +0.000 C 
BRANCH  12  13
ATOM     13  C   UNL     1      48.152   8.430  12.157  0.00  0.00    +0.000 C 
ATOM     14  C   UNL     1      49.333   7.449  12.297  0.00  0.00    +0.000 C 
ATOM     15  C   UNL     1      50.448   7.745  11.294  0.00  0.00    +0.000 C 
ATOM     16  C   UNL     1      50.935   9.184  11.403  0.00  0.00    +0.000 C 
ATOM     17  C   UNL     1      49.783  10.169  11.247  0.00  0.00    +0.000 C 
ATOM     18  C   UNL     1      48.657   9.883  12.242  0.00  0.00    +0.000 C 
ENDBRANCH  12  13
ENDBRANCH  11  12
ENDBRANCH   5  11
TORSDOF 5
ENDMDL
