MODEL 1
REMARK VINA RESULT:    -8.889      0.000      0.000
REMARK INTER + INTRA:         -12.818
REMARK INTER:                 -12.267
REMARK INTRA:                  -0.552
REMARK UNBOUND:                -0.552
REMARK  Name = 
REMARK  8 active torsions:
REMARK  status: ('A' for Active; 'I' for Inactive)
REMARK    1  A    between atoms: C_1  and  C_2
REMARK    2  A    between atoms: C_2  and  O_3
REMARK    3  A    between atoms: C_5  and  N_6
REMARK    4  A    between atoms: C_9  and  C_10
REMARK    5  A    between atoms: C_10  and  C_13
REMARK    6  A    between atoms: C_13  and  N_14
REMARK    7  A    between atoms: N_14  and  C_15
REMARK    8  A    between atoms: C_18  and  C_19
REMARK                            x       y       z     vdW  Elec       q    Type
REMARK                         _______ _______ _______ _____ _____    ______ ____
ROOT
ATOM      1  C   UNL     1      43.764   5.652  12.209  0.00  0.00    +0.000 C 
ATOM      2  F   UNL     1      42.884   5.571  13.251  0.00  0.00    +0.000 F 
ATOM      3  F   UNL     1      43.539   6.879  11.644  0.00  0.00    +0.000 F 
ENDROOT
BRANCH   1   7
ATOM      4  N   UNL     1      46.957   3.664  15.369  0.00  0.00    +0.000 N 
ATOM      5  C   UNL     1      46.759   4.527  14.270  0.00  0.00    +0.000 A 
ATOM      6  C   UNL     1      45.468   4.648  13.768  0.00  0.00    +0.000 A 
ATOM      7  C   UNL     1      45.200   5.528  12.706  0.00  0.00    +0.000 A 
ATOM      8  C   UNL     1      46.279   6.239  12.173  0.00  0.00    +0.000 A 
ATOM      9  C   UNL     1      47.535   6.056  12.730  0.00  0.00    +0.000 A 
ATOM     10  N   UNL     1      47.790   5.235  13.769  0.00  0.00    +0.000 NA
ATOM     11  H   UNL     1      46.786   2.709  15.067  0.00  0.00    +0.000 HD
BRANCH   4  15
ATOM     12  C   UNL     1      47.902   5.229  19.414  0.00  0.00    +0.000 C 
ATOM     13  C   UNL     1      48.523   4.548  18.205  0.00  0.00    +0.000 C 
ATOM     14  C   UNL     1      48.170   5.208  16.847  0.00  0.00    +0.000 C 
ATOM     15  C   UNL     1      48.083   3.782  16.248  0.00  0.00    +0.000 C 
ATOM     16  C   UNL     1      47.779   3.281  17.682  0.00  0.00    +0.000 C 
BRANCH  13  17
ATOM     17  O   UNL     1      49.936   4.360  18.448  0.00  0.00    +0.000 OA
ATOM     18  H   UNL     1      50.369   4.599  17.610  0.00  0.00    +0.000 HD
ENDBRANCH  13  17
ENDBRANCH   4  15
ENDBRANCH   1   7
BRANCH   1  19
ATOM     19  C   UNL     1      43.377   4.577  11.159  0.00  0.00    +0.000 C 
BRANCH  19  20
ATOM     20  N   UNL     1      43.755   4.884   9.761  0.00  0.00    +0.000 N 
ATOM     21  H   UNL     1      44.099   5.840   9.653  0.00  0.00    +0.000 HD
BRANCH  20  22
ATOM     22  C   UNL     1      44.543   3.932   9.103  0.00  0.00    +0.000 A 
ATOM     23  C   UNL     1      45.546   4.228   8.186  0.00  0.00    +0.000 A 
ATOM     24  N   UNL     1      46.362   3.328   7.593  0.00  0.00    +0.000 NA
ATOM     25  C   UNL     1      46.175   2.045   7.979  0.00  0.00    +0.000 A 
ATOM     26  N   UNL     1      45.271   1.623   8.880  0.00  0.00    +0.000 NA
ATOM     27  C   UNL     1      44.494   2.583   9.428  0.00  0.00    +0.000 A 
BRANCH  25  28
ATOM     28  C   UNL     1      47.099   1.022   7.359  0.00  0.00    +0.000 C 
ATOM     29  N   UNL     1      46.792  -0.296   7.624  0.00  0.00    +0.000 N 
ATOM     30  O   UNL     1      48.062   1.302   6.664  0.00  0.00    +0.000 OA
ATOM     31  H   UNL     1      45.982  -0.529   8.187  0.00  0.00    +0.000 HD
ATOM     32  H   UNL     1      47.361  -1.021   7.210  0.00  0.00    +0.000 HD
ENDBRANCH  25  28
ENDBRANCH  20  22
ENDBRANCH  19  20
ENDBRANCH   1  19
TORSDOF 7
ENDMDL
MODEL 2
REMARK VINA RESULT:    -8.570      2.445      3.899
REMARK INTER + INTRA:         -12.378
REMARK INTER:                 -11.517
REMARK INTRA:                  -0.861
REMARK UNBOUND:                -0.552
REMARK  Name = 
REMARK  8 active torsions:
REMARK  status: ('A' for Active; 'I' for Inactive)
REMARK    1  A    between atoms: C_1  and  C_2
REMARK    2  A    between atoms: C_2  and  O_3
REMARK    3  A    between atoms: C_5  and  N_6
REMARK    4  A    between atoms: C_9  and  C_10
REMARK    5  A    between atoms: C_10  and  C_13
REMARK    6  A    between atoms: C_13  and  N_14
REMARK    7  A    between atoms: N_14  and  C_15
REMARK    8  A    between atoms: C_18  and  C_19
REMARK                            x       y       z     vdW  Elec       q    Type
REMARK                         _______ _______ _______ _____ _____    ______ ____
ROOT
ATOM      1  C   UNL     1      43.553   5.154  12.469  0.00  0.00    +0.000 C 
ATOM      2  F   UNL     1      42.705   4.808  13.484  0.00  0.00    +0.000 F 
ATOM      3  F   UNL     1      43.181   6.421  12.107  0.00  0.00    +0.000 F 
ENDROOT
BRANCH   1   7
ATOM      4  N   UNL     1      47.915   7.386  12.822  0.00  0.00    +0.000 N 
ATOM      5  C   UNL     1      47.143   6.241  13.112  0.00  0.00    +0.000 A 
ATOM      6  C   UNL     1      45.808   6.245  12.723  0.00  0.00    +0.000 A 
ATOM      7  C   UNL     1      45.002   5.115  12.940  0.00  0.00    +0.000 A 
ATOM      8  C   UNL     1      45.590   4.020  13.579  0.00  0.00    +0.000 A 
ATOM      9  C   UNL     1      46.927   4.099  13.938  0.00  0.00    +0.000 A 
ATOM     10  N   UNL     1      47.710   5.171  13.703  0.00  0.00    +0.000 NA
ATOM     11  H   UNL     1      47.563   8.162  13.376  0.00  0.00    +0.000 HD
BRANCH   4  15
ATOM     12  C   UNL     1      51.267  10.002  11.550  0.00  0.00    +0.000 C 
ATOM     13  C   UNL     1      50.955   8.629  12.123  0.00  0.00    +0.000 C 
ATOM     14  C   UNL     1      49.839   7.860  11.369  0.00  0.00    +0.000 C 
ATOM     15  C   UNL     1      49.345   7.352  12.746  0.00  0.00    +0.000 C 
ATOM     16  C   UNL     1      50.009   8.609  13.362  0.00  0.00    +0.000 C 
BRANCH  13  17
ATOM     17  O   UNL     1      52.192   7.901  12.297  0.00  0.00    +0.000 OA
ATOM     18  H   UNL     1      52.535   8.192  13.159  0.00  0.00    +0.000 HD
ENDBRANCH  13  17
ENDBRANCH   4  15
ENDBRANCH   1   7
BRANCH   1  19
ATOM     19  C   UNL     1      43.271   4.223  11.260  0.00  0.00    +0.000 C 
BRANCH  19  20
ATOM     20  N   UNL     1      43.699   4.741   9.941  0.00  0.00    +0.000 N 
ATOM     21  H   UNL     1      43.909   5.741   9.966  0.00  0.00    +0.000 HD
BRANCH  20  22
ATOM     22  C   UNL     1      44.661   3.988   9.256  0.00  0.00    +0.000 A 
ATOM     23  C   UNL     1      44.786   2.605   9.327  0.00  0.00    +0.000 A 
ATOM     24  N   UNL     1      45.662   1.856   8.622  0.00  0.00    +0.000 NA
ATOM     25  C   UNL     1      46.442   2.548   7.760  0.00  0.00    +0.000 A 
ATOM     26  N   UNL     1      46.403   3.876   7.564  0.00  0.00    +0.000 NA
ATOM     27  C   UNL     1      45.500   4.554   8.305  0.00  0.00    +0.000 A 
BRANCH  25  28
ATOM     28  C   UNL     1      47.406   1.730   6.932  0.00  0.00    +0.000 C 
ATOM     29  N   UNL     1      48.509   2.408   6.458  0.00  0.00    +0.000 N 
ATOM     30  O   UNL     1      47.256   0.546   6.675  0.00  0.00    +0.000 OA
ATOM     31  H   UNL     1      48.644   3.387   6.685  0.00  0.00    +0.000 HD
ATOM     32  H   UNL     1      49.201   1.901   5.923  0.00  0.00    +0.000 HD
ENDBRANCH  25  28
ENDBRANCH  20  22
ENDBRANCH  19  20
ENDBRANCH   1  19
TORSDOF 7
ENDMDL
MODEL 3
REMARK VINA RESULT:    -7.784      2.110      2.586
REMARK INTER + INTRA:         -11.293
REMARK INTER:                 -10.568
REMARK INTRA:                  -0.725
REMARK UNBOUND:                -0.552
REMARK  Name = 
REMARK  8 active torsions:
REMARK  status: ('A' for Active; 'I' for Inactive)
REMARK    1  A    between atoms: C_1  and  C_2
REMARK    2  A    between atoms: C_2  and  O_3
REMARK    3  A    between atoms: C_5  and  N_6
REMARK    4  A    between atoms: C_9  and  C_10
REMARK    5  A    between atoms: C_10  and  C_13
REMARK    6  A    between atoms: C_13  and  N_14
REMARK    7  A    between atoms: N_14  and  C_15
REMARK    8  A    between atoms: C_18  and  C_19
REMARK                            x       y       z     vdW  Elec       q    Type
REMARK                         _______ _______ _______ _____ _____    ______ ____
ROOT
ATOM      1  C   UNL     1      43.829   5.206  12.016  0.00  0.00    +0.000 C 
ATOM      2  F   UNL     1      42.900   5.114  13.015  0.00  0.00    +0.000 F 
ATOM      3  F   UNL     1      43.129   5.618  10.913  0.00  0.00    +0.000 F 
ENDROOT
BRANCH   1   7
ATOM      4  N   UNL     1      47.920   6.216  14.540  0.00  0.00    +0.000 N 
ATOM      5  C   UNL     1      46.944   6.678  13.632  0.00  0.00    +0.000 A 
ATOM      6  C   UNL     1      45.946   5.790  13.248  0.00  0.00    +0.000 A 
ATOM      7  C   UNL     1      44.919   6.205  12.384  0.00  0.00    +0.000 A 
ATOM      8  C   UNL     1      44.966   7.522  11.918  0.00  0.00    +0.000 A 
ATOM      9  C   UNL     1      45.998   8.343  12.347  0.00  0.00    +0.000 A 
ATOM     10  N   UNL     1      46.968   7.954  13.200  0.00  0.00    +0.000 NA
ATOM     11  H   UNL     1      48.477   5.500  14.081  0.00  0.00    +0.000 HD
BRANCH   4  15
ATOM     12  C   UNL     1      51.962   6.405  16.365  0.00  0.00    +0.000 C 
ATOM     13  C   UNL     1      50.660   7.177  16.226  0.00  0.00    +0.000 C 
ATOM     14  C   UNL     1      49.386   6.340  16.508  0.00  0.00    +0.000 C 
ATOM     15  C   UNL     1      48.702   7.104  15.348  0.00  0.00    +0.000 C 
ATOM     16  C   UNL     1      50.121   7.346  14.773  0.00  0.00    +0.000 C 
BRANCH  13  17
ATOM     17  O   UNL     1      50.764   8.409  16.977  0.00  0.00    +0.000 OA
ATOM     18  H   UNL     1      51.417   8.944  16.493  0.00  0.00    +0.000 HD
ENDBRANCH  13  17
ENDBRANCH   4  15
ENDBRANCH   1   7
BRANCH   1  19
ATOM     19  C   UNL     1      44.369   3.782  11.720  0.00  0.00    +0.000 C 
BRANCH  19  20
ATOM     20  N   UNL     1      43.787   3.111  10.535  0.00  0.00    +0.000 N 
ATOM     21  H   UNL     1      42.840   3.438  10.330  0.00  0.00    +0.000 HD
BRANCH  20  22
ATOM     22  C   UNL     1      44.603   3.026   9.401  0.00  0.00    +0.000 A 
ATOM     23  C   UNL     1      44.989   4.107   8.615  0.00  0.00    +0.000 A 
ATOM     24  N   UNL     1      45.830   4.054   7.559  0.00  0.00    +0.000 NA
ATOM     25  C   UNL     1      46.345   2.830   7.300  0.00  0.00    +0.000 A 
ATOM     26  N   UNL     1      46.088   1.710   7.996  0.00  0.00    +0.000 NA
ATOM     27  C   UNL     1      45.239   1.846   9.037  0.00  0.00    +0.000 A 
BRANCH  25  28
ATOM     28  C   UNL     1      47.318   2.749   6.146  0.00  0.00    +0.000 C 
ATOM     29  N   UNL     1      48.627   2.485   6.488  0.00  0.00    +0.000 N 
ATOM     30  O   UNL     1      47.007   2.901   4.976  0.00  0.00    +0.000 OA
ATOM     31  H   UNL     1      48.883   2.342   7.458  0.00  0.00    +0.000 HD
ATOM     32  H   UNL     1      49.314   2.392   5.753  0.00  0.00    +0.000 HD
ENDBRANCH  25  28
ENDBRANCH  20  22
ENDBRANCH  19  20
ENDBRANCH   1  19
TORSDOF 7
ENDMDL
MODEL 4
REMARK VINA RESULT:    -6.875      3.447      8.347
REMARK INTER + INTRA:         -10.038
REMARK INTER:                  -9.359
REMARK INTRA:                  -0.680
REMARK UNBOUND:                -0.552
REMARK  Name = 
REMARK  8 active torsions:
REMARK  status: ('A' for Active; 'I' for Inactive)
REMARK    1  A    between atoms: C_1  and  C_2
REMARK    2  A    between atoms: C_2  and  O_3
REMARK    3  A    between atoms: C_5  and  N_6
REMARK    4  A    between atoms: C_9  and  C_10
REMARK    5  A    between atoms: C_10  and  C_13
REMARK    6  A    between atoms: C_13  and  N_14
REMARK    7  A    between atoms: N_14  and  C_15
REMARK    8  A    between atoms: C_18  and  C_19
REMARK                            x       y       z     vdW  Elec       q    Type
REMARK                         _______ _______ _______ _____ _____    ______ ____
ROOT
ATOM      1  C   UNL     1      49.077   7.847  14.696  0.00  0.00    +0.000 C 
ATOM      2  F   UNL     1      49.981   6.958  14.186  0.00  0.00    +0.000 F 
ATOM      3  F   UNL     1      49.658   9.078  14.542  0.00  0.00    +0.000 F 
ENDROOT
BRANCH   1   7
ATOM      4  N   UNL     1      45.849   5.137  12.173  0.00  0.00    +0.000 N 
ATOM      5  C   UNL     1      46.171   6.402  12.708  0.00  0.00    +0.000 A 
ATOM      6  C   UNL     1      47.356   6.518  13.426  0.00  0.00    +0.000 A 
ATOM      7  C   UNL     1      47.755   7.762  13.942  0.00  0.00    +0.000 A 
ATOM      8  C   UNL     1      46.903   8.849  13.726  0.00  0.00    +0.000 A 
ATOM      9  C   UNL     1      45.738   8.648  13.002  0.00  0.00    +0.000 A 
ATOM     10  N   UNL     1      45.369   7.460  12.480  0.00  0.00    +0.000 NA
ATOM     11  H   UNL     1      45.662   4.498  12.941  0.00  0.00    +0.000 HD
BRANCH   4  15
ATOM     12  C   UNL     1      45.823   3.413   8.082  0.00  0.00    +0.000 C 
ATOM     13  C   UNL     1      44.951   4.137   9.095  0.00  0.00    +0.000 C 
ATOM     14  C   UNL     1      45.616   5.382   9.738  0.00  0.00    +0.000 C 
ATOM     15  C   UNL     1      44.945   4.973  11.073  0.00  0.00    +0.000 C 
ATOM     16  C   UNL     1      44.919   3.523  10.528  0.00  0.00    +0.000 C 
BRANCH  13  17
ATOM     17  O   UNL     1      43.649   4.371   8.511  0.00  0.00    +0.000 OA
ATOM     18  H   UNL     1      43.029   4.348   9.261  0.00  0.00    +0.000 HD
ENDBRANCH  13  17
ENDBRANCH   4  15
ENDBRANCH   1   7
BRANCH   1  19
ATOM     19  C   UNL     1      48.939   7.584  16.219  0.00  0.00    +0.000 C 
BRANCH  19  20
ATOM     20  N   UNL     1      48.285   6.309  16.590  0.00  0.00    +0.000 N 
ATOM     21  H   UNL     1      47.543   6.048  15.937  0.00  0.00    +0.000 HD
BRANCH  20  22
ATOM     22  C   UNL     1      49.133   5.244  16.920  0.00  0.00    +0.000 A 
ATOM     23  C   UNL     1      48.750   3.908  16.969  0.00  0.00    +0.000 A 
ATOM     24  N   UNL     1      49.568   2.862  17.218  0.00  0.00    +0.000 NA
ATOM     25  C   UNL     1      50.870   3.184  17.396  0.00  0.00    +0.000 A 
ATOM     26  N   UNL     1      51.383   4.425  17.340  0.00  0.00    +0.000 NA
ATOM     27  C   UNL     1      50.501   5.416  17.086  0.00  0.00    +0.000 A 
BRANCH  25  28
ATOM     28  C   UNL     1      51.813   2.029  17.640  0.00  0.00    +0.000 C 
ATOM     29  N   UNL     1      51.227   0.783  17.696  0.00  0.00    +0.000 N 
ATOM     30  O   UNL     1      53.019   2.148  17.784  0.00  0.00    +0.000 OA
ATOM     31  H   UNL     1      50.227   0.681  17.560  0.00  0.00    +0.000 HD
ATOM     32  H   UNL     1      51.816  -0.028  17.828  0.00  0.00    +0.000 HD
ENDBRANCH  25  28
ENDBRANCH  20  22
ENDBRANCH  19  20
ENDBRANCH   1  19
TORSDOF 7
ENDMDL
MODEL 5
REMARK VINA RESULT:    -6.571      3.236      8.161
REMARK INTER + INTRA:          -9.620
REMARK INTER:                  -8.702
REMARK INTRA:                  -0.918
REMARK UNBOUND:                -0.552
REMARK  Name = 
REMARK  8 active torsions:
REMARK  status: ('A' for Active; 'I' for Inactive)
REMARK    1  A    between atoms: C_1  and  C_2
REMARK    2  A    between atoms: C_2  and  O_3
REMARK    3  A    between atoms: C_5  and  N_6
REMARK    4  A    between atoms: C_9  and  C_10
REMARK    5  A    between atoms: C_10  and  C_13
REMARK    6  A    between atoms: C_13  and  N_14
REMARK    7  A    between atoms: N_14  and  C_15
REMARK    8  A    between atoms: C_18  and  C_19
REMARK                            x       y       z     vdW  Elec       q    Type
REMARK                         _______ _______ _______ _____ _____    ______ ____
ROOT
ATOM      1  C   UNL     1      48.391   9.260  13.259  0.00  0.00    +0.000 C 
ATOM      2  F   UNL     1      49.474   8.531  12.854  0.00  0.00    +0.000 F 
ATOM      3  F   UNL     1      48.644  10.540  12.842  0.00  0.00    +0.000 F 
ENDROOT
BRANCH   1   7
ATOM      4  N   UNL     1      45.835   5.406  11.603  0.00  0.00    +0.000 N 
ATOM      5  C   UNL     1      45.865   6.798  11.831  0.00  0.00    +0.000 A 
ATOM      6  C   UNL     1      47.003   7.332  12.425  0.00  0.00    +0.000 A 
ATOM      7  C   UNL     1      47.112   8.717  12.634  0.00  0.00    +0.000 A 
ATOM      8  C   UNL     1      46.029   9.511  12.247  0.00  0.00    +0.000 A 
ATOM      9  C   UNL     1      44.930   8.899  11.665  0.00  0.00    +0.000 A 
ATOM     10  N   UNL     1      44.836   7.574  11.436  0.00  0.00    +0.000 NA
ATOM     11  H   UNL     1      45.815   4.931  12.501  0.00  0.00    +0.000 HD
BRANCH   4  15
ATOM     12  C   UNL     1      46.014   2.299   8.437  0.00  0.00    +0.000 C 
ATOM     13  C   UNL     1      45.080   3.300   9.099  0.00  0.00    +0.000 C 
ATOM     14  C   UNL     1      45.671   4.726   9.247  0.00  0.00    +0.000 C 
ATOM     15  C   UNL     1      44.975   4.804  10.628  0.00  0.00    +0.000 C 
ATOM     16  C   UNL     1      45.028   3.256  10.656  0.00  0.00    +0.000 C 
BRANCH  13  17
ATOM     17  O   UNL     1      43.789   3.236   8.451  0.00  0.00    +0.000 OA
ATOM     18  H   UNL     1      43.234   2.706   9.049  0.00  0.00    +0.000 HD
ENDBRANCH  13  17
ENDBRANCH   4  15
ENDBRANCH   1   7
BRANCH   1  19
ATOM     19  C   UNL     1      48.364   9.273  14.811  0.00  0.00    +0.000 C 
BRANCH  19  20
ATOM     20  N   UNL     1      49.349   8.388  15.474  0.00  0.00    +0.000 N 
ATOM     21  H   UNL     1      49.972   8.901  16.101  0.00  0.00    +0.000 HD
BRANCH  20  22
ATOM     22  C   UNL     1      48.851   7.205  16.032  0.00  0.00    +0.000 A 
ATOM     23  C   UNL     1      48.549   6.052  15.313  0.00  0.00    +0.000 A 
ATOM     24  N   UNL     1      48.133   4.881  15.842  0.00  0.00    +0.000 NA
ATOM     25  C   UNL     1      48.048   4.861  17.192  0.00  0.00    +0.000 A 
ATOM     26  N   UNL     1      48.342   5.886  18.009  0.00  0.00    +0.000 NA
ATOM     27  C   UNL     1      48.752   7.022  17.404  0.00  0.00    +0.000 A 
BRANCH  25  28
ATOM     28  C   UNL     1      47.619   3.550  17.812  0.00  0.00    +0.000 C 
ATOM     29  N   UNL     1      48.386   3.114  18.872  0.00  0.00    +0.000 N 
ATOM     30  O   UNL     1      46.666   2.892  17.431  0.00  0.00    +0.000 OA
ATOM     31  H   UNL     1      49.168   3.669  19.200  0.00  0.00    +0.000 HD
ATOM     32  H   UNL     1      48.126   2.258  19.341  0.00  0.00    +0.000 HD
ENDBRANCH  25  28
ENDBRANCH  20  22
ENDBRANCH  19  20
ENDBRANCH   1  19
TORSDOF 7
ENDMDL
MODEL 6
REMARK VINA RESULT:    -6.562      1.719      2.249
REMARK INTER + INTRA:          -9.608
REMARK INTER:                  -9.929
REMARK INTRA:                   0.322
REMARK UNBOUND:                -0.552
REMARK  Name = 
REMARK  8 active torsions:
REMARK  status: ('A' for Active; 'I' for Inactive)
REMARK    1  A    between atoms: C_1  and  C_2
REMARK    2  A    between atoms: C_2  and  O_3
REMARK    3  A    between atoms: C_5  and  N_6
REMARK    4  A    between atoms: C_9  and  C_10
REMARK    5  A    between atoms: C_10  and  C_13
REMARK    6  A    between atoms: C_13  and  N_14
REMARK    7  A    between atoms: N_14  and  C_15
REMARK    8  A    between atoms: C_18  and  C_19
REMARK                            x       y       z     vdW  Elec       q    Type
REMARK                         _______ _______ _______ _____ _____    ______ ____
ROOT
ATOM      1  C   UNL     1      46.387   6.633  11.796  0.00  0.00    +0.000 C 
ATOM      2  F   UNL     1      46.344   7.914  12.271  0.00  0.00    +0.000 F 
ATOM      3  F   UNL     1      47.388   6.630  10.862  0.00  0.00    +0.000 F 
ENDROOT
BRANCH   1   7
ATOM      4  N   UNL     1      48.317   5.789  16.234  0.00  0.00    +0.000 N 
ATOM      5  C   UNL     1      47.631   5.260  15.121  0.00  0.00    +0.000 A 
ATOM      6  C   UNL     1      47.319   6.128  14.080  0.00  0.00    +0.000 A 
ATOM      7  C   UNL     1      46.680   5.650  12.924  0.00  0.00    +0.000 A 
ATOM      8  C   UNL     1      46.355   4.292  12.885  0.00  0.00    +0.000 A 
ATOM      9  C   UNL     1      46.697   3.495  13.967  0.00  0.00    +0.000 A 
ATOM     10  N   UNL     1      47.338   3.945  15.065  0.00  0.00    +0.000 NA
ATOM     11  H   UNL     1      47.701   6.439  16.714  0.00  0.00    +0.000 HD
BRANCH   4  15
ATOM     12  C   UNL     1      50.642   6.198  19.993  0.00  0.00    +0.000 C 
ATOM     13  C   UNL     1      50.203   5.187  18.946  0.00  0.00    +0.000 C 
ATOM     14  C   UNL     1      50.429   5.643  17.481  0.00  0.00    +0.000 C 
ATOM     15  C   UNL     1      49.079   4.970  17.129  0.00  0.00    +0.000 C 
ATOM     16  C   UNL     1      48.680   5.171  18.613  0.00  0.00    +0.000 C 
BRANCH  13  17
ATOM     17  O   UNL     1      50.760   3.895  19.280  0.00  0.00    +0.000 OA
ATOM     18  H   UNL     1      51.696   3.950  19.021  0.00  0.00    +0.000 HD
ENDBRANCH  13  17
ENDBRANCH   4  15
ENDBRANCH   1   7
BRANCH   1  19
ATOM     19  C   UNL     1      45.055   6.343  11.054  0.00  0.00    +0.000 C 
BRANCH  19  20
ATOM     20  N   UNL     1      44.706   4.912  10.904  0.00  0.00    +0.000 N 
ATOM     21  H   UNL     1      43.716   4.733  11.085  0.00  0.00    +0.000 HD
BRANCH  20  22
ATOM     22  C   UNL     1      45.187   4.268   9.758  0.00  0.00    +0.000 A 
ATOM     23  C   UNL     1      45.826   4.903   8.698  0.00  0.00    +0.000 A 
ATOM     24  N   UNL     1      46.357   4.291   7.617  0.00  0.00    +0.000 NA
ATOM     25  C   UNL     1      46.268   2.941   7.623  0.00  0.00    +0.000 A 
ATOM     26  N   UNL     1      45.712   2.198   8.595  0.00  0.00    +0.000 NA
ATOM     27  C   UNL     1      45.204   2.884   9.642  0.00  0.00    +0.000 A 
BRANCH  25  28
ATOM     28  C   UNL     1      46.887   2.228   6.443  0.00  0.00    +0.000 C 
ATOM     29  N   UNL     1      47.159   3.018   5.346  0.00  0.00    +0.000 N 
ATOM     30  O   UNL     1      47.145   1.036   6.421  0.00  0.00    +0.000 OA
ATOM     31  H   UNL     1      46.961   4.012   5.370  0.00  0.00    +0.000 HD
ATOM     32  H   UNL     1      47.600   2.597   4.540  0.00  0.00    +0.000 HD
ENDBRANCH  25  28
ENDBRANCH  20  22
ENDBRANCH  19  20
ENDBRANCH   1  19
TORSDOF 7
ENDMDL
MODEL 7
REMARK VINA RESULT:    -6.536      3.704      8.240
REMARK INTER + INTRA:          -9.571
REMARK INTER:                  -8.656
REMARK INTRA:                  -0.915
REMARK UNBOUND:                -0.552
REMARK  Name = 
REMARK  8 active torsions:
REMARK  status: ('A' for Active; 'I' for Inactive)
REMARK    1  A    between atoms: C_1  and  C_2
REMARK    2  A    between atoms: C_2  and  O_3
REMARK    3  A    between atoms: C_5  and  N_6
REMARK    4  A    between atoms: C_9  and  C_10
REMARK    5  A    between atoms: C_10  and  C_13
REMARK    6  A    between atoms: C_13  and  N_14
REMARK    7  A    between atoms: N_14  and  C_15
REMARK    8  A    between atoms: C_18  and  C_19
REMARK                            x       y       z     vdW  Elec       q    Type
REMARK                         _______ _______ _______ _____ _____    ______ ____
ROOT
ATOM      1  C   UNL     1      49.683   8.846  12.165  0.00  0.00    +0.000 C 
ATOM      2  F   UNL     1      50.208   8.188  11.088  0.00  0.00    +0.000 F 
ATOM      3  F   UNL     1      49.787  10.176  11.859  0.00  0.00    +0.000 F 
ENDROOT
BRANCH   1   7
ATOM      4  N   UNL     1      46.347   5.274  12.663  0.00  0.00    +0.000 N 
ATOM      5  C   UNL     1      46.602   6.661  12.639  0.00  0.00    +0.000 A 
ATOM      6  C   UNL     1      47.919   7.074  12.467  0.00  0.00    +0.000 A 
ATOM      7  C   UNL     1      48.230   8.441  12.386  0.00  0.00    +0.000 A 
ATOM      8  C   UNL     1      47.174   9.348  12.514  0.00  0.00    +0.000 A 
ATOM      9  C   UNL     1      45.890   8.854  12.688  0.00  0.00    +0.000 A 
ATOM     10  N   UNL     1      45.586   7.541  12.735  0.00  0.00    +0.000 NA
ATOM     11  H   UNL     1      46.774   4.880  13.497  0.00  0.00    +0.000 HD
BRANCH   4  15
ATOM     12  C   UNL     1      44.433   2.543   9.733  0.00  0.00    +0.000 C 
ATOM     13  C   UNL     1      44.144   3.403  10.953  0.00  0.00    +0.000 C 
ATOM     14  C   UNL     1      44.720   4.841  10.873  0.00  0.00    +0.000 C 
ATOM     15  C   UNL     1      45.054   4.724  12.381  0.00  0.00    +0.000 C 
ATOM     16  C   UNL     1      45.087   3.188  12.176  0.00  0.00    +0.000 C 
BRANCH  13  17
ATOM     17  O   UNL     1      42.733   3.323  11.259  0.00  0.00    +0.000 OA
ATOM     18  H   UNL     1      42.317   4.006  10.705  0.00  0.00    +0.000 HD
ENDBRANCH  13  17
ENDBRANCH   4  15
ENDBRANCH   1   7
BRANCH   1  19
ATOM     19  C   UNL     1      50.594   8.577  13.393  0.00  0.00    +0.000 C 
BRANCH  19  20
ATOM     20  N   UNL     1      50.099   9.107  14.683  0.00  0.00    +0.000 N 
ATOM     21  H   UNL     1      49.457   9.893  14.560  0.00  0.00    +0.000 HD
BRANCH  20  22
ATOM     22  C   UNL     1      49.649   8.164  15.615  0.00  0.00    +0.000 A 
ATOM     23  C   UNL     1      48.828   8.449  16.701  0.00  0.00    +0.000 A 
ATOM     24  N   UNL     1      48.328   7.543  17.570  0.00  0.00    +0.000 NA
ATOM     25  C   UNL     1      48.652   6.256  17.304  0.00  0.00    +0.000 A 
ATOM     26  N   UNL     1      49.403   5.836  16.273  0.00  0.00    +0.000 NA
ATOM     27  C   UNL     1      49.864   6.803  15.449  0.00  0.00    +0.000 A 
BRANCH  25  28
ATOM     28  C   UNL     1      48.076   5.219  18.240  0.00  0.00    +0.000 C 
ATOM     29  N   UNL     1      46.761   5.412  18.607  0.00  0.00    +0.000 N 
ATOM     30  O   UNL     1      48.698   4.259  18.666  0.00  0.00    +0.000 OA
ATOM     31  H   UNL     1      46.238   6.199  18.240  0.00  0.00    +0.000 HD
ATOM     32  H   UNL     1      46.317   4.732  19.209  0.00  0.00    +0.000 HD
ENDBRANCH  25  28
ENDBRANCH  20  22
ENDBRANCH  19  20
ENDBRANCH   1  19
TORSDOF 7
ENDMDL
MODEL 8
REMARK VINA RESULT:    -6.393      4.066      8.013
REMARK INTER + INTRA:          -9.374
REMARK INTER:                  -8.238
REMARK INTRA:                  -1.136
REMARK UNBOUND:                -0.552
REMARK  Name = 
REMARK  8 active torsions:
REMARK  status: ('A' for Active; 'I' for Inactive)
REMARK    1  A    between atoms: C_1  and  C_2
REMARK    2  A    between atoms: C_2  and  O_3
REMARK    3  A    between atoms: C_5  and  N_6
REMARK    4  A    between atoms: C_9  and  C_10
REMARK    5  A    between atoms: C_10  and  C_13
REMARK    6  A    between atoms: C_13  and  N_14
REMARK    7  A    between atoms: N_14  and  C_15
REMARK    8  A    between atoms: C_18  and  C_19
REMARK                            x       y       z     vdW  Elec       q    Type
REMARK                         _______ _______ _______ _____ _____    ______ ____
ROOT
ATOM      1  C   UNL     1      49.298   9.602  15.695  0.00  0.00    +0.000 C 
ATOM      2  F   UNL     1      49.624  10.850  15.244  0.00  0.00    +0.000 F 
ATOM      3  F   UNL     1      48.154   9.773  16.428  0.00  0.00    +0.000 F 
ENDROOT
BRANCH   1   7
ATOM      4  N   UNL     1      46.350   6.425  13.381  0.00  0.00    +0.000 N 
ATOM      5  C   UNL     1      47.593   7.093  13.396  0.00  0.00    +0.000 A 
ATOM      6  C   UNL     1      47.832   7.991  14.430  0.00  0.00    +0.000 A 
ATOM      7  C   UNL     1      49.069   8.650  14.526  0.00  0.00    +0.000 A 
ATOM      8  C   UNL     1      50.016   8.385  13.534  0.00  0.00    +0.000 A 
ATOM      9  C   UNL     1      49.696   7.479  12.534  0.00  0.00    +0.000 A 
ATOM     10  N   UNL     1      48.521   6.822  12.458  0.00  0.00    +0.000 NA
ATOM     11  H   UNL     1      45.617   7.108  13.207  0.00  0.00    +0.000 HD
BRANCH   4  15
ATOM     12  C   UNL     1      43.059   4.190  11.413  0.00  0.00    +0.000 C 
ATOM     13  C   UNL     1      44.542   4.122  11.737  0.00  0.00    +0.000 C 
ATOM     14  C   UNL     1      44.891   4.455  13.211  0.00  0.00    +0.000 C 
ATOM     15  C   UNL     1      46.147   5.191  12.682  0.00  0.00    +0.000 C 
ATOM     16  C   UNL     1      45.382   5.377  11.347  0.00  0.00    +0.000 C 
BRANCH  13  17
ATOM     17  O   UNL     1      45.072   2.868  11.248  0.00  0.00    +0.000 OA
ATOM     18  H   UNL     1      44.873   2.222  11.948  0.00  0.00    +0.000 HD
ENDBRANCH  13  17
ENDBRANCH   4  15
ENDBRANCH   1   7
BRANCH   1  19
ATOM     19  C   UNL     1      50.410   9.129  16.669  0.00  0.00    +0.000 C 
BRANCH  19  20
ATOM     20  N   UNL     1      49.939   8.410  17.875  0.00  0.00    +0.000 N 
ATOM     21  H   UNL     1      49.297   8.973  18.437  0.00  0.00    +0.000 HD
BRANCH  20  22
ATOM     22  C   UNL     1      49.504   7.093  17.686  0.00  0.00    +0.000 A 
ATOM     23  C   UNL     1      48.281   6.590  18.118  0.00  0.00    +0.000 A 
ATOM     24  N   UNL     1      47.816   5.343  17.886  0.00  0.00    +0.000 NA
ATOM     25  C   UNL     1      48.626   4.560  17.137  0.00  0.00    +0.000 A 
ATOM     26  N   UNL     1      49.813   4.927  16.627  0.00  0.00    +0.000 NA
ATOM     27  C   UNL     1      50.208   6.189  16.902  0.00  0.00    +0.000 A 
BRANCH  25  28
ATOM     28  C   UNL     1      48.113   3.171  16.832  0.00  0.00    +0.000 C 
ATOM     29  N   UNL     1      47.018   2.766  17.566  0.00  0.00    +0.000 N 
ATOM     30  O   UNL     1      48.605   2.427  16.000  0.00  0.00    +0.000 OA
ATOM     31  H   UNL     1      46.598   3.391  18.246  0.00  0.00    +0.000 HD
ATOM     32  H   UNL     1      46.617   1.857  17.382  0.00  0.00    +0.000 HD
ENDBRANCH  25  28
ENDBRANCH  20  22
ENDBRANCH  19  20
ENDBRANCH   1  19
TORSDOF 7
ENDMDL
MODEL 9
REMARK VINA RESULT:    -6.089      4.470      6.253
REMARK INTER + INTRA:          -8.954
REMARK INTER:                  -8.365
REMARK INTRA:                  -0.589
REMARK UNBOUND:                -0.552
REMARK  Name = 
REMARK  8 active torsions:
REMARK  status: ('A' for Active; 'I' for Inactive)
REMARK    1  A    between atoms: C_1  and  C_2
REMARK    2  A    between atoms: C_2  and  O_3
REMARK    3  A    between atoms: C_5  and  N_6
REMARK    4  A    between atoms: C_9  and  C_10
REMARK    5  A    between atoms: C_10  and  C_13
REMARK    6  A    between atoms: C_13  and  N_14
REMARK    7  A    between atoms: N_14  and  C_15
REMARK    8  A    between atoms: C_18  and  C_19
REMARK                            x       y       z     vdW  Elec       q    Type
REMARK                         _______ _______ _______ _____ _____    ______ ____
ROOT
ATOM      1  C   UNL     1      47.588   3.827  17.126  0.00  0.00    +0.000 C 
ATOM      2  F   UNL     1      46.986   2.675  17.549  0.00  0.00    +0.000 F 
ATOM      3  F   UNL     1      46.818   4.840  17.633  0.00  0.00    +0.000 F 
ENDROOT
BRANCH   1   7
ATOM      4  N   UNL     1      52.068   1.833  17.416  0.00  0.00    +0.000 N 
ATOM      5  C   UNL     1      51.226   2.910  17.765  0.00  0.00    +0.000 A 
ATOM      6  C   UNL     1      49.919   2.889  17.291  0.00  0.00    +0.000 A 
ATOM      7  C   UNL     1      49.019   3.909  17.644  0.00  0.00    +0.000 A 
ATOM      8  C   UNL     1      49.502   4.938  18.457  0.00  0.00    +0.000 A 
ATOM      9  C   UNL     1      50.820   4.885  18.883  0.00  0.00    +0.000 A 
ATOM     10  N   UNL     1      51.677   3.892  18.570  0.00  0.00    +0.000 NA
ATOM     11  H   UNL     1      52.234   1.864  16.414  0.00  0.00    +0.000 HD
BRANCH   4  15
ATOM     12  C   UNL     1      55.775  -0.565  16.956  0.00  0.00    +0.000 C 
ATOM     13  C   UNL     1      55.024   0.327  17.932  0.00  0.00    +0.000 C 
ATOM     14  C   UNL     1      53.523  -0.026  18.097  0.00  0.00    +0.000 C 
ATOM     15  C   UNL     1      53.238   1.495  18.170  0.00  0.00    +0.000 C 
ATOM     16  C   UNL     1      54.548   1.702  17.370  0.00  0.00    +0.000 C 
BRANCH  13  17
ATOM     17  O   UNL     1      55.775   0.408  19.165  0.00  0.00    +0.000 OA
ATOM     18  H   UNL     1      56.417  -0.322  19.118  0.00  0.00    +0.000 HD
ENDBRANCH  13  17
ENDBRANCH   4  15
ENDBRANCH   1   7
BRANCH   1  19
ATOM     19  C   UNL     1      47.484   3.892  15.579  0.00  0.00    +0.000 C 
BRANCH  19  20
ATOM     20  N   UNL     1      46.739   5.051  15.037  0.00  0.00    +0.000 N 
ATOM     21  H   UNL     1      47.252   5.928  15.145  0.00  0.00    +0.000 HD
BRANCH  20  22
ATOM     22  C   UNL     1      46.174   4.891  13.766  0.00  0.00    +0.000 A 
ATOM     23  C   UNL     1      46.102   5.886  12.797  0.00  0.00    +0.000 A 
ATOM     24  N   UNL     1      45.623   5.732  11.543  0.00  0.00    +0.000 NA
ATOM     25  C   UNL     1      45.221   4.477  11.235  0.00  0.00    +0.000 A 
ATOM     26  N   UNL     1      45.269   3.417  12.058  0.00  0.00    +0.000 NA
ATOM     27  C   UNL     1      45.761   3.653  13.293  0.00  0.00    +0.000 A 
BRANCH  25  28
ATOM     28  C   UNL     1      44.715   4.269   9.826  0.00  0.00    +0.000 C 
ATOM     29  N   UNL     1      45.361   4.995   8.848  0.00  0.00    +0.000 N 
ATOM     30  O   UNL     1      43.800   3.518   9.531  0.00  0.00    +0.000 OA
ATOM     31  H   UNL     1      46.133   5.606   9.089  0.00  0.00    +0.000 HD
ATOM     32  H   UNL     1      45.081   4.872   7.884  0.00  0.00    +0.000 HD
ENDBRANCH  25  28
ENDBRANCH  20  22
ENDBRANCH  19  20
ENDBRANCH   1  19
TORSDOF 7
ENDMDL
