MODEL 1
REMARK VINA RESULT:    -8.134      0.000      0.000
REMARK INTER + INTRA:         -11.502
REMARK INTER:                 -10.512
REMARK INTRA:                  -0.990
REMARK UNBOUND:                -0.990
REMARK  Name = 
REMARK  6 active torsions:
REMARK  status: ('A' for Active; 'I' for Inactive)
REMARK    1  A    between atoms: C_1  and  C_2
REMARK    2  A    between atoms: C_2  and  N_3
REMARK    3  A    between atoms: C_2  and  C_16
REMARK    4  A    between atoms: C_4  and  C_6
REMARK    5  A    between atoms: C_19  and  C_20
REMARK    6  A    between atoms: C_20  and  N_21
REMARK                            x       y       z     vdW  Elec       q    Type
REMARK                         _______ _______ _______ _____ _____    ______ ____
ROOT
ATOM      1  C   UNL     1      47.908   9.492  13.608  0.00  0.00    +0.000 C 
ATOM      2  C   UNL     1      47.967   7.960  13.622  0.00  0.00    +0.000 C 
ENDROOT
BRANCH   2   3
ATOM      3  C   UNL     1      46.672   7.395  13.021  0.00  0.00    +0.000 A 
ATOM      4  C   UNL     1      45.891   8.148  12.140  0.00  0.00    +0.000 A 
ATOM      5  C   UNL     1      44.789   7.556  11.514  0.00  0.00    +0.000 A 
ATOM      6  C   UNL     1      44.474   6.221  11.771  0.00  0.00    +0.000 A 
ATOM      7  C   UNL     1      45.276   5.563  12.698  0.00  0.00    +0.000 A 
ATOM      8  N   UNL     1      46.350   6.111  13.321  0.00  0.00    +0.000 NA
BRANCH   6   9
ATOM      9  C   UNL     1      43.349   5.507  11.069  0.00  0.00    +0.000 C 
BRANCH   9  10
ATOM     10  N   UNL     1      43.785   4.825   9.869  0.00  0.00    +0.000 N 
ATOM     11  C   UNL     1      44.221   3.524   9.949  0.00  0.00    +0.000 C 
ATOM     12  O   UNL     1      44.282   2.921  11.015  0.00  0.00    +0.000 OA
ATOM     13  N   UNL     1      44.562   2.953   8.730  0.00  0.00    +0.000 N 
ATOM     14  C   UNL     1      44.885   1.527   8.666  0.00  0.00    +0.000 C 
ATOM     15  C   UNL     1      46.348   1.306   8.283  0.00  0.00    +0.000 C 
ATOM     16  C   UNL     1      46.703   2.060   7.001  0.00  0.00    +0.000 C 
ATOM     17  C   UNL     1      46.319   3.534   7.109  0.00  0.00    +0.000 C 
ATOM     18  C   UNL     1      44.853   3.701   7.506  0.00  0.00    +0.000 C 
ATOM     19  H   UNL     1      43.233   5.008   9.045  0.00  0.00    +0.000 HD
ENDBRANCH   9  10
ENDBRANCH   6   9
ENDBRANCH   2   3
BRANCH   2  20
ATOM     20  N   UNL     1      48.219   7.430  14.960  0.00  0.00    +0.000 N 
ATOM     21  C   UNL     1      49.480   7.111  15.417  0.00  0.00    +0.000 C 
ATOM     22  O   UNL     1      50.498   7.308  14.765  0.00  0.00    +0.000 OA
ATOM     23  H   UNL     1      47.444   6.908  15.362  0.00  0.00    +0.000 HD
BRANCH  21  24
ATOM     24  C   UNL     1      49.553   6.577  16.785  0.00  0.00    +0.000 A 
ATOM     25  C   UNL     1      50.239   7.276  17.768  0.00  0.00    +0.000 A 
ATOM     26  S   UNL     1      50.204   6.519  19.299  0.00  0.00    +0.000 S 
ATOM     27  C   UNL     1      49.316   5.203  18.688  0.00  0.00    +0.000 A 
ATOM     28  N   UNL     1      48.981   4.151  19.481  0.00  0.00    +0.000 NA
ATOM     29  C   UNL     1      48.339   3.209  18.876  0.00  0.00    +0.000 A 
ATOM     30  N   UNL     1      47.984   3.232  17.550  0.00  0.00    +0.000 N 
ATOM     31  C   UNL     1      48.252   4.298  16.727  0.00  0.00    +0.000 A 
ATOM     32  O   UNL     1      47.840   4.330  15.573  0.00  0.00    +0.000 OA
ATOM     33  C   UNL     1      49.014   5.362  17.346  0.00  0.00    +0.000 A 
ATOM     34  H   UNL     1      47.457   2.475  17.141  0.00  0.00    +0.000 HD
ENDBRANCH  21  24
ENDBRANCH   2  20
TORSDOF 5
ENDMDL
MODEL 2
REMARK VINA RESULT:    -8.008      2.110      2.748
REMARK INTER + INTRA:         -11.338
REMARK INTER:                 -10.359
REMARK INTRA:                  -0.979
REMARK UNBOUND:                -0.990
REMARK  Name = 
REMARK  6 active torsions:
REMARK  status: ('A' for Active; 'I' for Inactive)
REMARK    1  A    between atoms: C_1  and  C_2
REMARK    2  A    between atoms: C_2  and  N_3
REMARK    3  A    between atoms: C_2  and  C_16
REMARK    4  A    between atoms: C_4  and  C_6
REMARK    5  A    between atoms: C_19  and  C_20
REMARK    6  A    between atoms: C_20  and  N_21
REMARK                            x       y       z     vdW  Elec       q    Type
REMARK                         _______ _______ _______ _____ _____    ______ ____
ROOT
ATOM      1  C   UNL     1      49.401   7.571  13.723  0.00  0.00    +0.000 C 
ATOM      2  C   UNL     1      48.545   6.435  14.293  0.00  0.00    +0.000 C 
ENDROOT
BRANCH   2   3
ATOM      3  C   UNL     1      47.277   6.276  13.441  0.00  0.00    +0.000 A 
ATOM      4  C   UNL     1      47.168   6.874  12.182  0.00  0.00    +0.000 A 
ATOM      5  C   UNL     1      46.053   6.601  11.382  0.00  0.00    +0.000 A 
ATOM      6  C   UNL     1      45.058   5.738  11.842  0.00  0.00    +0.000 A 
ATOM      7  C   UNL     1      45.224   5.229  13.126  0.00  0.00    +0.000 A 
ATOM      8  N   UNL     1      46.294   5.475  13.925  0.00  0.00    +0.000 NA
BRANCH   6   9
ATOM      9  C   UNL     1      43.875   5.347  10.996  0.00  0.00    +0.000 C 
BRANCH   9  10
ATOM     10  N   UNL     1      44.263   4.696   9.762  0.00  0.00    +0.000 N 
ATOM     11  C   UNL     1      44.633   3.373   9.782  0.00  0.00    +0.000 C 
ATOM     12  O   UNL     1      44.674   2.721  10.820  0.00  0.00    +0.000 OA
ATOM     13  N   UNL     1      44.932   2.839   8.535  0.00  0.00    +0.000 N 
ATOM     14  C   UNL     1      45.181   1.402   8.406  0.00  0.00    +0.000 C 
ATOM     15  C   UNL     1      46.627   1.124   7.996  0.00  0.00    +0.000 C 
ATOM     16  C   UNL     1      47.007   1.914   6.743  0.00  0.00    +0.000 C 
ATOM     17  C   UNL     1      46.700   3.400   6.919  0.00  0.00    +0.000 C 
ATOM     18  C   UNL     1      45.248   3.623   7.341  0.00  0.00    +0.000 C 
ATOM     19  H   UNL     1      43.713   4.942   8.954  0.00  0.00    +0.000 HD
ENDBRANCH   9  10
ENDBRANCH   6   9
ENDBRANCH   2   3
BRANCH   2  20
ATOM     20  N   UNL     1      48.226   6.639  15.704  0.00  0.00    +0.000 N 
ATOM     21  C   UNL     1      48.999   6.139  16.730  0.00  0.00    +0.000 C 
ATOM     22  O   UNL     1      50.051   5.539  16.544  0.00  0.00    +0.000 OA
ATOM     23  H   UNL     1      47.236   6.767  15.901  0.00  0.00    +0.000 HD
BRANCH  21  24
ATOM     24  C   UNL     1      48.528   6.427  18.092  0.00  0.00    +0.000 A 
ATOM     25  C   UNL     1      48.438   5.406  19.028  0.00  0.00    +0.000 A 
ATOM     26  S   UNL     1      47.891   5.926  20.559  0.00  0.00    +0.000 S 
ATOM     27  C   UNL     1      47.703   7.525  20.011  0.00  0.00    +0.000 A 
ATOM     28  N   UNL     1      47.216   8.497  20.826  0.00  0.00    +0.000 NA
ATOM     29  C   UNL     1      47.094   9.653  20.267  0.00  0.00    +0.000 A 
ATOM     30  N   UNL     1      47.433   9.931  18.966  0.00  0.00    +0.000 N 
ATOM     31  C   UNL     1      47.982   8.995  18.124  0.00  0.00    +0.000 A 
ATOM     32  O   UNL     1      48.362   9.296  16.998  0.00  0.00    +0.000 OA
ATOM     33  C   UNL     1      48.094   7.667  18.690  0.00  0.00    +0.000 A 
ATOM     34  H   UNL     1      47.340  10.864  18.594  0.00  0.00    +0.000 HD
ENDBRANCH  21  24
ENDBRANCH   2  20
TORSDOF 5
ENDMDL
MODEL 3
REMARK VINA RESULT:    -7.109      3.757      9.079
REMARK INTER + INTRA:         -10.177
REMARK INTER:                  -9.149
REMARK INTRA:                  -1.028
REMARK UNBOUND:                -0.990
REMARK  Name = 
REMARK  6 active torsions:
REMARK  status: ('A' for Active; 'I' for Inactive)
REMARK    1  A    between atoms: C_1  and  C_2
REMARK    2  A    between atoms: C_2  and  N_3
REMARK    3  A    between atoms: C_2  and  C_16
REMARK    4  A    between atoms: C_4  and  C_6
REMARK    5  A    between atoms: C_19  and  C_20
REMARK    6  A    between atoms: C_20  and  N_21
REMARK                            x       y       z     vdW  Elec       q    Type
REMARK                         _______ _______ _______ _____ _____    ______ ____
ROOT
ATOM      1  C   UNL     1      49.347   7.830  12.584  0.00  0.00    +0.000 C 
ATOM      2  C   UNL     1      48.150   7.216  13.319  0.00  0.00    +0.000 C 
ENDROOT
BRANCH   2   3
ATOM      3  C   UNL     1      48.635   6.560  14.620  0.00  0.00    +0.000 A 
ATOM      4  C   UNL     1      49.697   7.098  15.353  0.00  0.00    +0.000 A 
ATOM      5  C   UNL     1      50.025   6.549  16.598  0.00  0.00    +0.000 A 
ATOM      6  C   UNL     1      49.296   5.470  17.100  0.00  0.00    +0.000 A 
ATOM      7  C   UNL     1      48.290   4.968  16.281  0.00  0.00    +0.000 A 
ATOM      8  N   UNL     1      47.948   5.479  15.070  0.00  0.00    +0.000 NA
BRANCH   6   9
ATOM      9  C   UNL     1      49.553   4.888  18.465  0.00  0.00    +0.000 C 
BRANCH   9  10
ATOM     10  N   UNL     1      50.956   4.624  18.702  0.00  0.00    +0.000 N 
ATOM     11  C   UNL     1      51.543   3.517  18.137  0.00  0.00    +0.000 C 
ATOM     12  O   UNL     1      50.909   2.720  17.453  0.00  0.00    +0.000 OA
ATOM     13  N   UNL     1      52.904   3.393  18.387  0.00  0.00    +0.000 N 
ATOM     14  C   UNL     1      53.670   2.348  17.707  0.00  0.00    +0.000 C 
ATOM     15  C   UNL     1      54.196   1.311  18.699  0.00  0.00    +0.000 C 
ATOM     16  C   UNL     1      54.969   1.979  19.837  0.00  0.00    +0.000 C 
ATOM     17  C   UNL     1      54.137   3.079  20.492  0.00  0.00    +0.000 C 
ATOM     18  C   UNL     1      53.625   4.081  19.458  0.00  0.00    +0.000 C 
ATOM     19  H   UNL     1      51.554   5.435  18.697  0.00  0.00    +0.000 HD
ENDBRANCH   9  10
ENDBRANCH   6   9
ENDBRANCH   2   3
BRANCH   2  20
ATOM     20  N   UNL     1      47.412   6.274  12.481  0.00  0.00    +0.000 N 
ATOM     21  C   UNL     1      46.301   6.631  11.747  0.00  0.00    +0.000 C 
ATOM     22  O   UNL     1      45.880   7.779  11.685  0.00  0.00    +0.000 OA
ATOM     23  H   UNL     1      47.465   5.305  12.786  0.00  0.00    +0.000 HD
BRANCH  21  24
ATOM     24  C   UNL     1      45.672   5.555  10.967  0.00  0.00    +0.000 A 
ATOM     25  C   UNL     1      45.734   5.574   9.581  0.00  0.00    +0.000 A 
ATOM     26  S   UNL     1      44.967   4.239   8.842  0.00  0.00    +0.000 S 
ATOM     27  C   UNL     1      44.479   3.616  10.347  0.00  0.00    +0.000 A 
ATOM     28  N   UNL     1      43.729   2.486  10.432  0.00  0.00    +0.000 NA
ATOM     29  C   UNL     1      43.401   2.150  11.634  0.00  0.00    +0.000 A 
ATOM     30  N   UNL     1      43.773   2.835  12.765  0.00  0.00    +0.000 N 
ATOM     31  C   UNL     1      44.577   3.947  12.730  0.00  0.00    +0.000 A 
ATOM     32  O   UNL     1      44.970   4.481  13.762  0.00  0.00    +0.000 OA
ATOM     33  C   UNL     1      44.932   4.394  11.399  0.00  0.00    +0.000 A 
ATOM     34  H   UNL     1      43.508   2.505  13.681  0.00  0.00    +0.000 HD
ENDBRANCH  21  24
ENDBRANCH   2  20
TORSDOF 5
ENDMDL
MODEL 4
REMARK VINA RESULT:    -7.015      3.011      8.646
REMARK INTER + INTRA:         -10.056
REMARK INTER:                  -8.972
REMARK INTRA:                  -1.083
REMARK UNBOUND:                -0.990
REMARK  Name = 
REMARK  6 active torsions:
REMARK  status: ('A' for Active; 'I' for Inactive)
REMARK    1  A    between atoms: C_1  and  C_2
REMARK    2  A    between atoms: C_2  and  N_3
REMARK    3  A    between atoms: C_2  and  C_16
REMARK    4  A    between atoms: C_4  and  C_6
REMARK    5  A    between atoms: C_19  and  C_20
REMARK    6  A    between atoms: C_20  and  N_21
REMARK                            x       y       z     vdW  Elec       q    Type
REMARK                         _______ _______ _______ _____ _____    ______ ____
ROOT
ATOM      1  C   UNL     1      49.094   7.980  11.224  0.00  0.00    +0.000 C 
ATOM      2  C   UNL     1      47.936   7.858  12.221  0.00  0.00    +0.000 C 
ENDROOT
BRANCH   2   3
ATOM      3  C   UNL     1      48.496   7.849  13.651  0.00  0.00    +0.000 A 
ATOM      4  C   UNL     1      47.928   8.635  14.658  0.00  0.00    +0.000 A 
ATOM      5  C   UNL     1      48.382   8.503  15.976  0.00  0.00    +0.000 A 
ATOM      6  C   UNL     1      49.396   7.593  16.278  0.00  0.00    +0.000 A 
ATOM      7  C   UNL     1      49.936   6.890  15.206  0.00  0.00    +0.000 A 
ATOM      8  N   UNL     1      49.517   6.996  13.919  0.00  0.00    +0.000 NA
BRANCH   6   9
ATOM      9  C   UNL     1      49.871   7.353  17.686  0.00  0.00    +0.000 C 
BRANCH   9  10
ATOM     10  N   UNL     1      50.031   5.946  17.987  0.00  0.00    +0.000 N 
ATOM     11  C   UNL     1      51.293   5.428  18.154  0.00  0.00    +0.000 C 
ATOM     12  O   UNL     1      52.302   6.114  18.030  0.00  0.00    +0.000 OA
ATOM     13  N   UNL     1      51.325   4.081  18.494  0.00  0.00    +0.000 N 
ATOM     14  C   UNL     1      52.598   3.458  18.856  0.00  0.00    +0.000 C 
ATOM     15  C   UNL     1      53.009   2.400  17.833  0.00  0.00    +0.000 C 
ATOM     16  C   UNL     1      51.887   1.385  17.608  0.00  0.00    +0.000 C 
ATOM     17  C   UNL     1      50.575   2.088  17.263  0.00  0.00    +0.000 C 
ATOM     18  C   UNL     1      50.217   3.144  18.307  0.00  0.00    +0.000 C 
ATOM     19  H   UNL     1      49.357   5.563  18.632  0.00  0.00    +0.000 HD
ENDBRANCH   9  10
ENDBRANCH   6   9
ENDBRANCH   2   3
BRANCH   2  20
ATOM     20  N   UNL     1      47.104   6.686  11.959  0.00  0.00    +0.000 N 
ATOM     21  C   UNL     1      45.741   6.669  12.170  0.00  0.00    +0.000 C 
ATOM     22  O   UNL     1      45.108   7.653  12.532  0.00  0.00    +0.000 OA
ATOM     23  H   UNL     1      47.588   5.796  12.040  0.00  0.00    +0.000 HD
BRANCH  21  24
ATOM     24  C   UNL     1      45.058   5.404  11.866  0.00  0.00    +0.000 A 
ATOM     25  C   UNL     1      44.335   4.749  12.852  0.00  0.00    +0.000 A 
ATOM     26  S   UNL     1      43.594   3.307  12.316  0.00  0.00    +0.000 S 
ATOM     27  C   UNL     1      44.258   3.479  10.760  0.00  0.00    +0.000 A 
ATOM     28  N   UNL     1      44.050   2.542   9.798  0.00  0.00    +0.000 NA
ATOM     29  C   UNL     1      44.643   2.785   8.678  0.00  0.00    +0.000 A 
ATOM     30  N   UNL     1      45.414   3.892   8.426  0.00  0.00    +0.000 N 
ATOM     31  C   UNL     1      45.605   4.891   9.349  0.00  0.00    +0.000 A 
ATOM     32  O   UNL     1      46.220   5.912   9.064  0.00  0.00    +0.000 OA
ATOM     33  C   UNL     1      44.999   4.642  10.641  0.00  0.00    +0.000 A 
ATOM     34  H   UNL     1      45.830   4.039   7.519  0.00  0.00    +0.000 HD
ENDBRANCH  21  24
ENDBRANCH   2  20
TORSDOF 5
ENDMDL
MODEL 5
REMARK VINA RESULT:    -6.996      1.704      2.109
REMARK INTER + INTRA:         -10.030
REMARK INTER:                  -8.954
REMARK INTRA:                  -1.076
REMARK UNBOUND:                -0.990
REMARK  Name = 
REMARK  6 active torsions:
REMARK  status: ('A' for Active; 'I' for Inactive)
REMARK    1  A    between atoms: C_1  and  C_2
REMARK    2  A    between atoms: C_2  and  N_3
REMARK    3  A    between atoms: C_2  and  C_16
REMARK    4  A    between atoms: C_4  and  C_6
REMARK    5  A    between atoms: C_19  and  C_20
REMARK    6  A    between atoms: C_20  and  N_21
REMARK                            x       y       z     vdW  Elec       q    Type
REMARK                         _______ _______ _______ _____ _____    ______ ____
ROOT
ATOM      1  C   UNL     1      47.224  10.811  12.015  0.00  0.00    +0.000 C 
ATOM      2  C   UNL     1      47.807   9.408  12.224  0.00  0.00    +0.000 C 
ENDROOT
BRANCH   2   3
ATOM      3  C   UNL     1      46.696   8.364  12.044  0.00  0.00    +0.000 A 
ATOM      4  C   UNL     1      45.385   8.743  11.742  0.00  0.00    +0.000 A 
ATOM      5  C   UNL     1      44.430   7.760  11.457  0.00  0.00    +0.000 A 
ATOM      6  C   UNL     1      44.787   6.412  11.477  0.00  0.00    +0.000 A 
ATOM      7  C   UNL     1      46.100   6.125  11.836  0.00  0.00    +0.000 A 
ATOM      8  N   UNL     1      47.049   7.055  12.117  0.00  0.00    +0.000 NA
BRANCH   6   9
ATOM      9  C   UNL     1      43.824   5.316  11.104  0.00  0.00    +0.000 C 
BRANCH   9  10
ATOM     10  N   UNL     1      44.173   4.669   9.857  0.00  0.00    +0.000 N 
ATOM     11  C   UNL     1      44.675   3.390   9.874  0.00  0.00    +0.000 C 
ATOM     12  O   UNL     1      44.867   2.778  10.919  0.00  0.00    +0.000 OA
ATOM     13  N   UNL     1      44.922   2.849   8.618  0.00  0.00    +0.000 N 
ATOM     14  C   UNL     1      45.303   1.441   8.501  0.00  0.00    +0.000 C 
ATOM     15  C   UNL     1      46.730   1.295   7.975  0.00  0.00    +0.000 C 
ATOM     16  C   UNL     1      46.923   2.079   6.677  0.00  0.00    +0.000 C 
ATOM     17  C   UNL     1      46.483   3.532   6.845  0.00  0.00    +0.000 C 
ATOM     18  C   UNL     1      45.057   3.624   7.385  0.00  0.00    +0.000 C 
ATOM     19  H   UNL     1      43.536   4.834   9.093  0.00  0.00    +0.000 HD
ENDBRANCH   9  10
ENDBRANCH   6   9
ENDBRANCH   2   3
BRANCH   2  20
ATOM     20  N   UNL     1      48.470   9.274  13.520  0.00  0.00    +0.000 N 
ATOM     21  C   UNL     1      49.774   8.849  13.657  0.00  0.00    +0.000 C 
ATOM     22  O   UNL     1      50.504   8.612  12.702  0.00  0.00    +0.000 OA
ATOM     23  H   UNL     1      47.843   9.081  14.298  0.00  0.00    +0.000 HD
BRANCH  21  24
ATOM     24  C   UNL     1      50.281   8.760  15.034  0.00  0.00    +0.000 A 
ATOM     25  C   UNL     1      51.129   9.740  15.528  0.00  0.00    +0.000 A 
ATOM     26  S   UNL     1      51.602   9.485  17.149  0.00  0.00    +0.000 S 
ATOM     27  C   UNL     1      50.732   8.026  17.230  0.00  0.00    +0.000 A 
ATOM     28  N   UNL     1      50.748   7.258  18.352  0.00  0.00    +0.000 NA
ATOM     29  C   UNL     1      50.074   6.162  18.259  0.00  0.00    +0.000 A 
ATOM     30  N   UNL     1      49.366   5.771  17.150  0.00  0.00    +0.000 N 
ATOM     31  C   UNL     1      49.276   6.542  16.016  0.00  0.00    +0.000 A 
ATOM     32  O   UNL     1      48.560   6.211  15.077  0.00  0.00    +0.000 OA
ATOM     33  C   UNL     1      50.056   7.761  16.052  0.00  0.00    +0.000 A 
ATOM     34  H   UNL     1      48.835   4.915  17.149  0.00  0.00    +0.000 HD
ENDBRANCH  21  24
ENDBRANCH   2  20
TORSDOF 5
ENDMDL
MODEL 6
REMARK VINA RESULT:    -6.620      2.289      4.032
REMARK INTER + INTRA:          -9.545
REMARK INTER:                  -8.679
REMARK INTRA:                  -0.866
REMARK UNBOUND:                -0.990
REMARK  Name = 
REMARK  6 active torsions:
REMARK  status: ('A' for Active; 'I' for Inactive)
REMARK    1  A    between atoms: C_1  and  C_2
REMARK    2  A    between atoms: C_2  and  N_3
REMARK    3  A    between atoms: C_2  and  C_16
REMARK    4  A    between atoms: C_4  and  C_6
REMARK    5  A    between atoms: C_19  and  C_20
REMARK    6  A    between atoms: C_20  and  N_21
REMARK                            x       y       z     vdW  Elec       q    Type
REMARK                         _______ _______ _______ _____ _____    ______ ____
ROOT
ATOM      1  C   UNL     1      47.540   3.695  15.171  0.00  0.00    +0.000 C 
ATOM      2  C   UNL     1      47.101   5.137  14.893  0.00  0.00    +0.000 C 
ENDROOT
BRANCH   2   3
ATOM      3  C   UNL     1      46.117   5.150  13.714  0.00  0.00    +0.000 A 
ATOM      4  C   UNL     1      46.218   6.100  12.694  0.00  0.00    +0.000 A 
ATOM      5  C   UNL     1      45.386   6.002  11.573  0.00  0.00    +0.000 A 
ATOM      6  C   UNL     1      44.462   4.961  11.479  0.00  0.00    +0.000 A 
ATOM      7  C   UNL     1      44.395   4.091  12.562  0.00  0.00    +0.000 A 
ATOM      8  N   UNL     1      45.189   4.161  13.662  0.00  0.00    +0.000 NA
BRANCH   6   9
ATOM      9  C   UNL     1      43.595   4.759  10.264  0.00  0.00    +0.000 C 
BRANCH   9  10
ATOM     10  N   UNL     1      44.341   4.273   9.122  0.00  0.00    +0.000 N 
ATOM     11  C   UNL     1      44.742   2.960   9.084  0.00  0.00    +0.000 C 
ATOM     12  O   UNL     1      44.514   2.180  10.002  0.00  0.00    +0.000 OA
ATOM     13  N   UNL     1      45.402   2.591   7.918  0.00  0.00    +0.000 N 
ATOM     14  C   UNL     1      45.734   1.184   7.690  0.00  0.00    +0.000 C 
ATOM     15  C   UNL     1      47.246   0.965   7.679  0.00  0.00    +0.000 C 
ATOM     16  C   UNL     1      47.933   1.911   6.693  0.00  0.00    +0.000 C 
ATOM     17  C   UNL     1      47.531   3.361   6.954  0.00  0.00    +0.000 C 
ATOM     18  C   UNL     1      46.011   3.524   6.969  0.00  0.00    +0.000 C 
ATOM     19  H   UNL     1      44.033   4.620   8.227  0.00  0.00    +0.000 HD
ENDBRANCH   9  10
ENDBRANCH   6   9
ENDBRANCH   2   3
BRANCH   2  20
ATOM     20  N   UNL     1      48.237   6.025  14.660  0.00  0.00    +0.000 N 
ATOM     21  C   UNL     1      48.949   6.620  15.680  0.00  0.00    +0.000 C 
ATOM     22  O   UNL     1      48.729   6.402  16.865  0.00  0.00    +0.000 OA
ATOM     23  H   UNL     1      48.211   6.522  13.773  0.00  0.00    +0.000 HD
BRANCH  21  24
ATOM     24  C   UNL     1      50.056   7.495  15.267  0.00  0.00    +0.000 A 
ATOM     25  C   UNL     1      51.357   7.194  15.644  0.00  0.00    +0.000 A 
ATOM     26  S   UNL     1      52.514   8.306  15.061  0.00  0.00    +0.000 S 
ATOM     27  C   UNL     1      51.310   9.259  14.329  0.00  0.00    +0.000 A 
ATOM     28  N   UNL     1      51.622  10.413  13.682  0.00  0.00    +0.000 NA
ATOM     29  C   UNL     1      50.606  11.051  13.206  0.00  0.00    +0.000 A 
ATOM     30  N   UNL     1      49.303  10.628  13.304  0.00  0.00    +0.000 N 
ATOM     31  C   UNL     1      48.949   9.442  13.898  0.00  0.00    +0.000 A 
ATOM     32  O   UNL     1      47.788   9.046  13.886  0.00  0.00    +0.000 OA
ATOM     33  C   UNL     1      50.049   8.712  14.491  0.00  0.00    +0.000 A 
ATOM     34  H   UNL     1      48.554  11.158  12.886  0.00  0.00    +0.000 HD
ENDBRANCH  21  24
ENDBRANCH   2  20
TORSDOF 5
ENDMDL
MODEL 7
REMARK VINA RESULT:    -6.255      3.406      8.468
REMARK INTER + INTRA:          -9.073
REMARK INTER:                  -8.323
REMARK INTRA:                  -0.750
REMARK UNBOUND:                -0.990
REMARK  Name = 
REMARK  6 active torsions:
REMARK  status: ('A' for Active; 'I' for Inactive)
REMARK    1  A    between atoms: C_1  and  C_2
REMARK    2  A    between atoms: C_2  and  N_3
REMARK    3  A    between atoms: C_2  and  C_16
REMARK    4  A    between atoms: C_4  and  C_6
REMARK    5  A    between atoms: C_19  and  C_20
REMARK    6  A    between atoms: C_20  and  N_21
REMARK                            x       y       z     vdW  Elec       q    Type
REMARK                         _______ _______ _______ _____ _____    ______ ____
ROOT
ATOM      1  C   UNL     1      47.901   9.970  11.504  0.00  0.00    +0.000 C 
ATOM      2  C   UNL     1      47.401   8.893  12.473  0.00  0.00    +0.000 C 
ENDROOT
BRANCH   2   3
ATOM      3  C   UNL     1      48.501   8.579  13.498  0.00  0.00    +0.000 A 
ATOM      4  C   UNL     1      48.247   8.617  14.872  0.00  0.00    +0.000 A 
ATOM      5  C   UNL     1      49.236   8.200  15.769  0.00  0.00    +0.000 A 
ATOM      6  C   UNL     1      50.469   7.752  15.292  0.00  0.00    +0.000 A 
ATOM      7  C   UNL     1      50.652   7.797  13.913  0.00  0.00    +0.000 A 
ATOM      8  N   UNL     1      49.711   8.195  13.018  0.00  0.00    +0.000 NA
BRANCH   6   9
ATOM      9  C   UNL     1      51.542   7.220  16.203  0.00  0.00    +0.000 C 
BRANCH   9  10
ATOM     10  N   UNL     1      51.195   5.941  16.786  0.00  0.00    +0.000 N 
ATOM     11  C   UNL     1      52.184   5.140  17.303  0.00  0.00    +0.000 C 
ATOM     12  O   UNL     1      53.368   5.459  17.266  0.00  0.00    +0.000 OA
ATOM     13  N   UNL     1      51.730   3.963  17.885  0.00  0.00    +0.000 N 
ATOM     14  C   UNL     1      52.669   3.108  18.612  0.00  0.00    +0.000 C 
ATOM     15  C   UNL     1      52.853   1.763  17.909  0.00  0.00    +0.000 C 
ATOM     16  C   UNL     1      51.506   1.089  17.649  0.00  0.00    +0.000 C 
ATOM     17  C   UNL     1      50.554   2.032  16.916  0.00  0.00    +0.000 C 
ATOM     18  C   UNL     1      50.416   3.365  17.650  0.00  0.00    +0.000 C 
ATOM     19  H   UNL     1      50.350   5.934  17.337  0.00  0.00    +0.000 HD
ENDBRANCH   9  10
ENDBRANCH   6   9
ENDBRANCH   2   3
BRANCH   2  20
ATOM     20  N   UNL     1      46.952   7.689  11.777  0.00  0.00    +0.000 N 
ATOM     21  C   UNL     1      45.627   7.316  11.698  0.00  0.00    +0.000 C 
ATOM     22  O   UNL     1      44.712   7.996  12.148  0.00  0.00    +0.000 OA
ATOM     23  H   UNL     1      47.639   6.940  11.739  0.00  0.00    +0.000 HD
BRANCH  21  24
ATOM     24  C   UNL     1      45.351   6.070  10.969  0.00  0.00    +0.000 A 
ATOM     25  C   UNL     1      45.773   5.925   9.655  0.00  0.00    +0.000 A 
ATOM     26  S   UNL     1      45.384   4.409   8.973  0.00  0.00    +0.000 S 
ATOM     27  C   UNL     1      44.591   3.912  10.393  0.00  0.00    +0.000 A 
ATOM     28  N   UNL     1      43.978   2.702  10.470  0.00  0.00    +0.000 NA
ATOM     29  C   UNL     1      43.386   2.473  11.594  0.00  0.00    +0.000 A 
ATOM     30  N   UNL     1      43.367   3.340  12.658  0.00  0.00    +0.000 N 
ATOM     31  C   UNL     1      44.020   4.548  12.644  0.00  0.00    +0.000 A 
ATOM     32  O   UNL     1      44.064   5.259  13.642  0.00  0.00    +0.000 OA
ATOM     33  C   UNL     1      44.660   4.874  11.386  0.00  0.00    +0.000 A 
ATOM     34  H   UNL     1      42.909   3.092  13.521  0.00  0.00    +0.000 HD
ENDBRANCH  21  24
ENDBRANCH   2  20
TORSDOF 5
ENDMDL
MODEL 8
REMARK VINA RESULT:    -5.417      5.480      7.550
REMARK INTER + INTRA:          -7.989
REMARK INTER:                  -7.110
REMARK INTRA:                  -0.879
REMARK UNBOUND:                -0.990
REMARK  Name = 
REMARK  6 active torsions:
REMARK  status: ('A' for Active; 'I' for Inactive)
REMARK    1  A    between atoms: C_1  and  C_2
REMARK    2  A    between atoms: C_2  and  N_3
REMARK    3  A    between atoms: C_2  and  C_16
REMARK    4  A    between atoms: C_4  and  C_6
REMARK    5  A    between atoms: C_19  and  C_20
REMARK    6  A    between atoms: C_20  and  N_21
REMARK                            x       y       z     vdW  Elec       q    Type
REMARK                         _______ _______ _______ _____ _____    ______ ____
ROOT
ATOM      1  C   UNL     1      47.113  10.978  11.533  0.00  0.00    +0.000 C 
ATOM      2  C   UNL     1      47.733   9.788  12.275  0.00  0.00    +0.000 C 
ENDROOT
BRANCH   2   3
ATOM      3  C   UNL     1      49.213   9.663  11.887  0.00  0.00    +0.000 A 
ATOM      4  C   UNL     1      49.945   8.509  12.179  0.00  0.00    +0.000 A 
ATOM      5  C   UNL     1      51.252   8.379  11.696  0.00  0.00    +0.000 A 
ATOM      6  C   UNL     1      51.818   9.398  10.930  0.00  0.00    +0.000 A 
ATOM      7  C   UNL     1      51.035  10.531  10.731  0.00  0.00    +0.000 A 
ATOM      8  N   UNL     1      49.765  10.685  11.186  0.00  0.00    +0.000 NA
BRANCH   6   9
ATOM      9  C   UNL     1      53.190   9.283  10.319  0.00  0.00    +0.000 C 
BRANCH   9  10
ATOM     10  N   UNL     1      53.162   8.706   8.992  0.00  0.00    +0.000 N 
ATOM     11  C   UNL     1      53.442   7.370   8.827  0.00  0.00    +0.000 C 
ATOM     12  O   UNL     1      53.746   6.646   9.769  0.00  0.00    +0.000 OA
ATOM     13  N   UNL     1      53.332   6.914   7.520  0.00  0.00    +0.000 N 
ATOM     14  C   UNL     1      53.446   5.481   7.243  0.00  0.00    +0.000 C 
ATOM     15  C   UNL     1      54.690   5.175   6.410  0.00  0.00    +0.000 C 
ATOM     16  C   UNL     1      54.734   6.035   5.147  0.00  0.00    +0.000 C 
ATOM     17  C   UNL     1      54.581   7.516   5.488  0.00  0.00    +0.000 C 
ATOM     18  C   UNL     1      53.331   7.767   6.332  0.00  0.00    +0.000 C 
ATOM     19  H   UNL     1      52.416   9.030   8.397  0.00  0.00    +0.000 HD
ENDBRANCH   9  10
ENDBRANCH   6   9
ENDBRANCH   2   3
BRANCH   2  20
ATOM     20  N   UNL     1      47.002   8.546  12.033  0.00  0.00    +0.000 N 
ATOM     21  C   UNL     1      45.694   8.354  12.423  0.00  0.00    +0.000 C 
ATOM     22  O   UNL     1      45.016   9.231  12.945  0.00  0.00    +0.000 OA
ATOM     23  H   UNL     1      47.587   7.715  11.976  0.00  0.00    +0.000 HD
BRANCH  21  24
ATOM     24  C   UNL     1      45.115   7.039  12.112  0.00  0.00    +0.000 A 
ATOM     25  C   UNL     1      43.958   6.952  11.352  0.00  0.00    +0.000 A 
ATOM     26  S   UNL     1      43.440   5.348  11.073  0.00  0.00    +0.000 S 
ATOM     27  C   UNL     1      44.716   4.717  12.004  0.00  0.00    +0.000 A 
ATOM     28  N   UNL     1      44.839   3.380  12.215  0.00  0.00    +0.000 NA
ATOM     29  C   UNL     1      45.832   3.046  12.968  0.00  0.00    +0.000 A 
ATOM     30  N   UNL     1      46.727   3.930  13.518  0.00  0.00    +0.000 N 
ATOM     31  C   UNL     1      46.674   5.283  13.285  0.00  0.00    +0.000 A 
ATOM     32  O   UNL     1      47.542   6.036  13.712  0.00  0.00    +0.000 OA
ATOM     33  C   UNL     1      45.548   5.713  12.483  0.00  0.00    +0.000 A 
ATOM     34  H   UNL     1      47.500   3.604  14.077  0.00  0.00    +0.000 HD
ENDBRANCH  21  24
ENDBRANCH   2  20
TORSDOF 5
ENDMDL
