MODEL 1
REMARK VINA RESULT:    -7.785      0.000      0.000
REMARK INTER + INTRA:         -12.579
REMARK INTER:                 -11.426
REMARK INTRA:                  -1.153
REMARK UNBOUND:                -1.153
REMARK  Name = 
REMARK  9 active torsions:
REMARK  status: ('A' for Active; 'I' for Inactive)
REMARK    1  A    between atoms: C_1  and  O_2
REMARK    2  A    between atoms: O_2  and  C_3
REMARK    3  A    between atoms: C_10  and  C_11
REMARK    4  A    between atoms: N_13  and  C_14
REMARK    5  A    between atoms: C_14  and  C_15
REMARK    6  A    between atoms: C_18  and  C_19
REMARK    7  A    between atoms: C_19  and  S_20
REMARK    8  A    between atoms: S_20  and  C_21
REMARK    9  A    between atoms: C_21  and  C_22
REMARK                            x       y       z     vdW  Elec       q    Type
REMARK                         _______ _______ _______ _____ _____    ______ ____
ROOT
ATOM      1  C   UNL     1      47.458   8.428  13.614  0.00  0.00    +0.000 C 
ENDROOT
BRANCH   1   2
ATOM      2  C   UNL     1      46.478   7.681  12.744  0.00  0.00    +0.000 A 
ATOM      3  C   UNL     1      46.814   6.432  12.207  0.00  0.00    +0.000 A 
ATOM      4  C   UNL     1      45.882   5.701  11.462  0.00  0.00    +0.000 A 
ATOM      5  C   UNL     1      44.586   6.193  11.241  0.00  0.00    +0.000 A 
ATOM      6  C   UNL     1      44.276   7.475  11.718  0.00  0.00    +0.000 A 
ATOM      7  C   UNL     1      45.214   8.212  12.457  0.00  0.00    +0.000 A 
BRANCH   5   8
ATOM      8  C   UNL     1      43.550   5.349  10.525  0.00  0.00    +0.000 C 
BRANCH   8   9
ATOM      9  S   UNL     1      44.233   3.715  10.071  0.00  0.00    +0.000 S 
BRANCH   9  10
ATOM     10  C   UNL     1      44.616   3.998   8.306  0.00  0.00    +0.000 C 
BRANCH  10  11
ATOM     11  C   UNL     1      45.685   3.053   7.792  0.00  0.00    +0.000 A 
ATOM     12  C   UNL     1      46.620   3.479   6.845  0.00  0.00    +0.000 A 
ATOM     13  C   UNL     1      47.584   2.585   6.387  0.00  0.00    +0.000 A 
ATOM     14  C   UNL     1      47.607   1.293   6.891  0.00  0.00    +0.000 A 
ATOM     15  C   UNL     1      46.661   0.949   7.842  0.00  0.00    +0.000 A 
ATOM     16  N   UNL     1      45.709   1.795   8.305  0.00  0.00    +0.000 NA
ENDBRANCH  10  11
ENDBRANCH   9  10
ENDBRANCH   8   9
ENDBRANCH   5   8
ENDBRANCH   1   2
BRANCH   1  19
ATOM     17  C   UNL     1      49.001   7.020  14.918  0.00  0.00    +0.000 C 
ATOM     18  O   UNL     1      49.834   7.036  14.014  0.00  0.00    +0.000 OA
ATOM     19  N   UNL     1      47.806   7.677  14.794  0.00  0.00    +0.000 N 
ATOM     20  H   UNL     1      47.120   7.627  15.532  0.00  0.00    +0.000 HD
BRANCH  17  28
ATOM     21  C   UNL     1      47.521   4.284  16.384  0.00  0.00    +0.000 A 
ATOM     22  N   UNL     1      47.156   3.232  17.141  0.00  0.00    +0.000 NA
ATOM     23  C   UNL     1      47.831   3.015  18.274  0.00  0.00    +0.000 A 
ATOM     24  N   UNL     1      48.842   3.732  18.756  0.00  0.00    +0.000 NA
ATOM     25  C   UNL     1      49.181   4.763  17.963  0.00  0.00    +0.000 A 
ATOM     26  S   UNL     1      50.447   5.796  18.422  0.00  0.00    +0.000 S 
ATOM     27  C   UNL     1      50.258   6.733  17.017  0.00  0.00    +0.000 A 
ATOM     28  C   UNL     1      49.247   6.286  16.173  0.00  0.00    +0.000 A 
ATOM     29  C   UNL     1      48.593   5.115  16.752  0.00  0.00    +0.000 A 
BRANCH  21  31
ATOM     30  C   UNL     1      47.119   3.534  14.202  0.00  0.00    +0.000 C 
ATOM     31  O   UNL     1      46.839   4.504  15.207  0.00  0.00    +0.000 OA
ENDBRANCH  21  31
ENDBRANCH  17  28
ENDBRANCH   1  19
TORSDOF 8
ENDMDL
MODEL 2
REMARK VINA RESULT:    -7.581      2.483      3.297
REMARK INTER + INTRA:         -12.280
REMARK INTER:                 -11.128
REMARK INTRA:                  -1.151
REMARK UNBOUND:                -1.153
REMARK  Name = 
REMARK  9 active torsions:
REMARK  status: ('A' for Active; 'I' for Inactive)
REMARK    1  A    between atoms: C_1  and  O_2
REMARK    2  A    between atoms: O_2  and  C_3
REMARK    3  A    between atoms: C_10  and  C_11
REMARK    4  A    between atoms: N_13  and  C_14
REMARK    5  A    between atoms: C_14  and  C_15
REMARK    6  A    between atoms: C_18  and  C_19
REMARK    7  A    between atoms: C_19  and  S_20
REMARK    8  A    between atoms: S_20  and  C_21
REMARK    9  A    between atoms: C_21  and  C_22
REMARK                            x       y       z     vdW  Elec       q    Type
REMARK                         _______ _______ _______ _____ _____    ______ ____
ROOT
ATOM      1  C   UNL     1      48.566   6.660  14.197  0.00  0.00    +0.000 C 
ENDROOT
BRANCH   1   2
ATOM      2  C   UNL     1      47.428   6.026  13.436  0.00  0.00    +0.000 A 
ATOM      3  C   UNL     1      46.778   4.894  13.942  0.00  0.00    +0.000 A 
ATOM      4  C   UNL     1      45.674   4.347  13.279  0.00  0.00    +0.000 A 
ATOM      5  C   UNL     1      45.184   4.921  12.096  0.00  0.00    +0.000 A 
ATOM      6  C   UNL     1      45.879   6.011  11.553  0.00  0.00    +0.000 A 
ATOM      7  C   UNL     1      46.992   6.554  12.214  0.00  0.00    +0.000 A 
BRANCH   5   8
ATOM      8  C   UNL     1      43.924   4.388  11.442  0.00  0.00    +0.000 C 
BRANCH   8   9
ATOM      9  S   UNL     1      44.131   4.257   9.630  0.00  0.00    +0.000 S 
BRANCH   9  10
ATOM     10  C   UNL     1      44.702   2.526   9.490  0.00  0.00    +0.000 C 
BRANCH  10  11
ATOM     11  C   UNL     1      45.667   2.331   8.336  0.00  0.00    +0.000 A 
ATOM     12  C   UNL     1      45.907   3.361   7.424  0.00  0.00    +0.000 A 
ATOM     13  C   UNL     1      46.792   3.149   6.370  0.00  0.00    +0.000 A 
ATOM     14  C   UNL     1      47.430   1.922   6.257  0.00  0.00    +0.000 A 
ATOM     15  C   UNL     1      47.157   0.956   7.210  0.00  0.00    +0.000 A 
ATOM     16  N   UNL     1      46.300   1.132   8.243  0.00  0.00    +0.000 NA
ENDBRANCH  10  11
ENDBRANCH   9  10
ENDBRANCH   8   9
ENDBRANCH   5   8
ENDBRANCH   1   2
BRANCH   1  19
ATOM     17  C   UNL     1      49.165   6.369  16.567  0.00  0.00    +0.000 C 
ATOM     18  O   UNL     1      50.260   5.895  16.267  0.00  0.00    +0.000 OA
ATOM     19  N   UNL     1      48.275   6.764  15.605  0.00  0.00    +0.000 N 
ATOM     20  H   UNL     1      47.368   7.120  15.868  0.00  0.00    +0.000 HD
BRANCH  17  28
ATOM     21  C   UNL     1      47.814   8.973  18.360  0.00  0.00    +0.000 A 
ATOM     22  N   UNL     1      47.259   9.800  19.268  0.00  0.00    +0.000 NA
ATOM     23  C   UNL     1      47.086   9.337  20.509  0.00  0.00    +0.000 A 
ATOM     24  N   UNL     1      47.405   8.131  20.968  0.00  0.00    +0.000 NA
ATOM     25  C   UNL     1      47.943   7.336  20.027  0.00  0.00    +0.000 A 
ATOM     26  S   UNL     1      48.423   5.759  20.433  0.00  0.00    +0.000 S 
ATOM     27  C   UNL     1      48.941   5.453  18.843  0.00  0.00    +0.000 A 
ATOM     28  C   UNL     1      48.759   6.525  17.976  0.00  0.00    +0.000 A 
ATOM     29  C   UNL     1      48.176   7.657  18.694  0.00  0.00    +0.000 A 
BRANCH  21  31
ATOM     30  C   UNL     1      49.209  10.133  16.880  0.00  0.00    +0.000 C 
ATOM     31  O   UNL     1      47.981   9.439  17.074  0.00  0.00    +0.000 OA
ENDBRANCH  21  31
ENDBRANCH  17  28
ENDBRANCH   1  19
TORSDOF 8
ENDMDL
MODEL 3
REMARK VINA RESULT:    -7.472      1.768      2.188
REMARK INTER + INTRA:         -12.119
REMARK INTER:                 -10.743
REMARK INTRA:                  -1.376
REMARK UNBOUND:                -1.153
REMARK  Name = 
REMARK  9 active torsions:
REMARK  status: ('A' for Active; 'I' for Inactive)
REMARK    1  A    between atoms: C_1  and  O_2
REMARK    2  A    between atoms: O_2  and  C_3
REMARK    3  A    between atoms: C_10  and  C_11
REMARK    4  A    between atoms: N_13  and  C_14
REMARK    5  A    between atoms: C_14  and  C_15
REMARK    6  A    between atoms: C_18  and  C_19
REMARK    7  A    between atoms: C_19  and  S_20
REMARK    8  A    between atoms: S_20  and  C_21
REMARK    9  A    between atoms: C_21  and  C_22
REMARK                            x       y       z     vdW  Elec       q    Type
REMARK                         _______ _______ _______ _____ _____    ______ ____
ROOT
ATOM      1  C   UNL     1      48.666   7.039  13.630  0.00  0.00    +0.000 C 
ENDROOT
BRANCH   1   2
ATOM      2  C   UNL     1      47.325   6.430  13.303  0.00  0.00    +0.000 A 
ATOM      3  C   UNL     1      47.127   5.047  13.411  0.00  0.00    +0.000 A 
ATOM      4  C   UNL     1      45.866   4.486  13.183  0.00  0.00    +0.000 A 
ATOM      5  C   UNL     1      44.765   5.291  12.850  0.00  0.00    +0.000 A 
ATOM      6  C   UNL     1      44.981   6.666  12.672  0.00  0.00    +0.000 A 
ATOM      7  C   UNL     1      46.249   7.227  12.892  0.00  0.00    +0.000 A 
BRANCH   5   8
ATOM      8  C   UNL     1      43.381   4.690  12.709  0.00  0.00    +0.000 C 
BRANCH   8   9
ATOM      9  S   UNL     1      43.353   3.403  11.411  0.00  0.00    +0.000 S 
BRANCH   9  10
ATOM     10  C   UNL     1      43.867   4.389   9.960  0.00  0.00    +0.000 C 
BRANCH  10  11
ATOM     11  C   UNL     1      44.849   3.643   9.076  0.00  0.00    +0.000 A 
ATOM     12  C   UNL     1      45.032   2.265   9.217  0.00  0.00    +0.000 A 
ATOM     13  C   UNL     1      45.947   1.610   8.397  0.00  0.00    +0.000 A 
ATOM     14  C   UNL     1      46.647   2.337   7.444  0.00  0.00    +0.000 A 
ATOM     15  C   UNL     1      46.397   3.695   7.350  0.00  0.00    +0.000 A 
ATOM     16  N   UNL     1      45.517   4.360   8.136  0.00  0.00    +0.000 NA
ENDBRANCH  10  11
ENDBRANCH   9  10
ENDBRANCH   8   9
ENDBRANCH   5   8
ENDBRANCH   1   2
BRANCH   1  19
ATOM     17  C   UNL     1      48.703   7.878  15.943  0.00  0.00    +0.000 C 
ATOM     18  O   UNL     1      48.160   8.929  15.607  0.00  0.00    +0.000 OA
ATOM     19  N   UNL     1      48.989   6.902  15.027  0.00  0.00    +0.000 N 
ATOM     20  H   UNL     1      49.465   6.060  15.315  0.00  0.00    +0.000 HD
BRANCH  17  28
ATOM     21  C   UNL     1      48.319   5.183  18.043  0.00  0.00    +0.000 A 
ATOM     22  N   UNL     1      48.333   4.277  19.040  0.00  0.00    +0.000 NA
ATOM     23  C   UNL     1      48.896   4.633  20.198  0.00  0.00    +0.000 A 
ATOM     24  N   UNL     1      49.457   5.802  20.492  0.00  0.00    +0.000 NA
ATOM     25  C   UNL     1      49.433   6.670  19.466  0.00  0.00    +0.000 A 
ATOM     26  S   UNL     1      50.096   8.220  19.660  0.00  0.00    +0.000 S 
ATOM     27  C   UNL     1      49.708   8.641  18.060  0.00  0.00    +0.000 A 
ATOM     28  C   UNL     1      49.079   7.626  17.347  0.00  0.00    +0.000 A 
ATOM     29  C   UNL     1      48.902   6.452  18.199  0.00  0.00    +0.000 A 
BRANCH  21  31
ATOM     30  C   UNL     1      47.744   3.409  16.626  0.00  0.00    +0.000 C 
ATOM     31  O   UNL     1      47.752   4.816  16.841  0.00  0.00    +0.000 OA
ENDBRANCH  21  31
ENDBRANCH  17  28
ENDBRANCH   1  19
TORSDOF 8
ENDMDL
MODEL 4
REMARK VINA RESULT:    -7.405      2.294      2.722
REMARK INTER + INTRA:         -12.021
REMARK INTER:                 -10.927
REMARK INTRA:                  -1.094
REMARK UNBOUND:                -1.153
REMARK  Name = 
REMARK  9 active torsions:
REMARK  status: ('A' for Active; 'I' for Inactive)
REMARK    1  A    between atoms: C_1  and  O_2
REMARK    2  A    between atoms: O_2  and  C_3
REMARK    3  A    between atoms: C_10  and  C_11
REMARK    4  A    between atoms: N_13  and  C_14
REMARK    5  A    between atoms: C_14  and  C_15
REMARK    6  A    between atoms: C_18  and  C_19
REMARK    7  A    between atoms: C_19  and  S_20
REMARK    8  A    between atoms: S_20  and  C_21
REMARK    9  A    between atoms: C_21  and  C_22
REMARK                            x       y       z     vdW  Elec       q    Type
REMARK                         _______ _______ _______ _____ _____    ______ ____
ROOT
ATOM      1  C   UNL     1      48.568   7.042  14.017  0.00  0.00    +0.000 C 
ENDROOT
BRANCH   1   2
ATOM      2  C   UNL     1      47.471   6.269  13.327  0.00  0.00    +0.000 A 
ATOM      3  C   UNL     1      46.989   5.075  13.878  0.00  0.00    +0.000 A 
ATOM      4  C   UNL     1      45.921   4.394  13.284  0.00  0.00    +0.000 A 
ATOM      5  C   UNL     1      45.300   4.891  12.127  0.00  0.00    +0.000 A 
ATOM      6  C   UNL     1      45.831   6.047  11.536  0.00  0.00    +0.000 A 
ATOM      7  C   UNL     1      46.908   6.725  12.128  0.00  0.00    +0.000 A 
BRANCH   5   8
ATOM      8  C   UNL     1      44.077   4.206  11.550  0.00  0.00    +0.000 C 
BRANCH   8   9
ATOM      9  S   UNL     1      44.144   4.171   9.723  0.00  0.00    +0.000 S 
BRANCH   9  10
ATOM     10  C   UNL     1      44.631   2.431   9.445  0.00  0.00    +0.000 C 
BRANCH  10  11
ATOM     11  C   UNL     1      45.648   2.290   8.329  0.00  0.00    +0.000 A 
ATOM     12  C   UNL     1      45.909   3.354   7.462  0.00  0.00    +0.000 A 
ATOM     13  C   UNL     1      46.843   3.191   6.443  0.00  0.00    +0.000 A 
ATOM     14  C   UNL     1      47.508   1.980   6.318  0.00  0.00    +0.000 A 
ATOM     15  C   UNL     1      47.211   0.978   7.227  0.00  0.00    +0.000 A 
ATOM     16  N   UNL     1      46.306   1.106   8.226  0.00  0.00    +0.000 NA
ENDBRANCH  10  11
ENDBRANCH   9  10
ENDBRANCH   8   9
ENDBRANCH   5   8
ENDBRANCH   1   2
BRANCH   1  19
ATOM     17  C   UNL     1      48.903   8.298  16.107  0.00  0.00    +0.000 C 
ATOM     18  O   UNL     1      49.853   8.913  15.626  0.00  0.00    +0.000 OA
ATOM     19  N   UNL     1      48.224   7.358  15.380  0.00  0.00    +0.000 N 
ATOM     20  H   UNL     1      47.467   6.839  15.800  0.00  0.00    +0.000 HD
BRANCH  17  28
ATOM     21  C   UNL     1      48.108   6.218  18.727  0.00  0.00    +0.000 A 
ATOM     22  N   UNL     1      47.785   5.644  19.902  0.00  0.00    +0.000 NA
ATOM     23  C   UNL     1      47.468   6.446  20.922  0.00  0.00    +0.000 A 
ATOM     24  N   UNL     1      47.431   7.776  20.916  0.00  0.00    +0.000 NA
ATOM     25  C   UNL     1      47.772   8.306  19.729  0.00  0.00    +0.000 A 
ATOM     26  S   UNL     1      47.771   9.992  19.530  0.00  0.00    +0.000 S 
ATOM     27  C   UNL     1      48.274   9.851  17.913  0.00  0.00    +0.000 A 
ATOM     28  C   UNL     1      48.458   8.538  17.492  0.00  0.00    +0.000 A 
ATOM     29  C   UNL     1      48.140   7.616  18.579  0.00  0.00    +0.000 A 
BRANCH  21  31
ATOM     30  C   UNL     1      49.821   5.009  17.684  0.00  0.00    +0.000 C 
ATOM     31  O   UNL     1      48.450   5.396  17.676  0.00  0.00    +0.000 OA
ENDBRANCH  21  31
ENDBRANCH  17  28
ENDBRANCH   1  19
TORSDOF 8
ENDMDL
MODEL 5
REMARK VINA RESULT:    -7.380      2.117      2.686
REMARK INTER + INTRA:         -11.984
REMARK INTER:                 -10.877
REMARK INTRA:                  -1.107
REMARK UNBOUND:                -1.153
REMARK  Name = 
REMARK  9 active torsions:
REMARK  status: ('A' for Active; 'I' for Inactive)
REMARK    1  A    between atoms: C_1  and  O_2
REMARK    2  A    between atoms: O_2  and  C_3
REMARK    3  A    between atoms: C_10  and  C_11
REMARK    4  A    between atoms: N_13  and  C_14
REMARK    5  A    between atoms: C_14  and  C_15
REMARK    6  A    between atoms: C_18  and  C_19
REMARK    7  A    between atoms: C_19  and  S_20
REMARK    8  A    between atoms: S_20  and  C_21
REMARK    9  A    between atoms: C_21  and  C_22
REMARK                            x       y       z     vdW  Elec       q    Type
REMARK                         _______ _______ _______ _____ _____    ______ ____
ROOT
ATOM      1  C   UNL     1      48.896   7.668  15.518  0.00  0.00    +0.000 C 
ENDROOT
BRANCH   1   2
ATOM      2  C   UNL     1      48.124   7.247  14.292  0.00  0.00    +0.000 A 
ATOM      3  C   UNL     1      47.688   5.924  14.146  0.00  0.00    +0.000 A 
ATOM      4  C   UNL     1      46.908   5.546  13.049  0.00  0.00    +0.000 A 
ATOM      5  C   UNL     1      46.534   6.481  12.070  0.00  0.00    +0.000 A 
ATOM      6  C   UNL     1      47.031   7.787  12.180  0.00  0.00    +0.000 A 
ATOM      7  C   UNL     1      47.822   8.164  13.276  0.00  0.00    +0.000 A 
BRANCH   5   8
ATOM      8  C   UNL     1      45.600   6.088  10.942  0.00  0.00    +0.000 C 
BRANCH   8   9
ATOM      9  S   UNL     1      44.828   4.462  11.264  0.00  0.00    +0.000 S 
BRANCH   9  10
ATOM     10  C   UNL     1      44.167   4.078   9.604  0.00  0.00    +0.000 C 
BRANCH  10  11
ATOM     11  C   UNL     1      45.197   3.407   8.716  0.00  0.00    +0.000 A 
ATOM     12  C   UNL     1      45.446   2.037   8.821  0.00  0.00    +0.000 A 
ATOM     13  C   UNL     1      46.404   1.451   7.998  0.00  0.00    +0.000 A 
ATOM     14  C   UNL     1      47.082   2.239   7.078  0.00  0.00    +0.000 A 
ATOM     15  C   UNL     1      46.767   3.586   7.018  0.00  0.00    +0.000 A 
ATOM     16  N   UNL     1      45.843   4.184   7.807  0.00  0.00    +0.000 NA
ENDBRANCH  10  11
ENDBRANCH   9  10
ENDBRANCH   8   9
ENDBRANCH   5   8
ENDBRANCH   1   2
BRANCH   1  19
ATOM     17  C   UNL     1      50.126   6.477  17.286  0.00  0.00    +0.000 C 
ATOM     18  O   UNL     1      49.681   7.230  18.151  0.00  0.00    +0.000 OA
ATOM     19  N   UNL     1      49.790   6.632  15.968  0.00  0.00    +0.000 N 
ATOM     20  H   UNL     1      50.190   6.026  15.268  0.00  0.00    +0.000 HD
BRANCH  17  28
ATOM     21  C   UNL     1      49.979   3.063  16.902  0.00  0.00    +0.000 A 
ATOM     22  N   UNL     1      50.191   1.734  16.840  0.00  0.00    +0.000 NA
ATOM     23  C   UNL     1      51.341   1.262  17.327  0.00  0.00    +0.000 A 
ATOM     24  N   UNL     1      52.326   1.964  17.882  0.00  0.00    +0.000 NA
ATOM     25  C   UNL     1      52.079   3.284  17.912  0.00  0.00    +0.000 A 
ATOM     26  S   UNL     1      53.222   4.338  18.594  0.00  0.00    +0.000 S 
ATOM     27  C   UNL     1      52.247   5.690  18.263  0.00  0.00    +0.000 A 
ATOM     28  C   UNL     1      51.048   5.379  17.629  0.00  0.00    +0.000 A 
ATOM     29  C   UNL     1      50.945   3.934  17.436  0.00  0.00    +0.000 A 
BRANCH  21  31
ATOM     30  C   UNL     1      47.680   3.349  17.241  0.00  0.00    +0.000 C 
ATOM     31  O   UNL     1      48.801   3.558  16.388  0.00  0.00    +0.000 OA
ENDBRANCH  21  31
ENDBRANCH  17  28
ENDBRANCH   1  19
TORSDOF 8
ENDMDL
MODEL 6
REMARK VINA RESULT:    -6.812      3.483      8.679
REMARK INTER + INTRA:         -11.150
REMARK INTER:                  -9.148
REMARK INTRA:                  -2.002
REMARK UNBOUND:                -1.153
REMARK  Name = 
REMARK  9 active torsions:
REMARK  status: ('A' for Active; 'I' for Inactive)
REMARK    1  A    between atoms: C_1  and  O_2
REMARK    2  A    between atoms: O_2  and  C_3
REMARK    3  A    between atoms: C_10  and  C_11
REMARK    4  A    between atoms: N_13  and  C_14
REMARK    5  A    between atoms: C_14  and  C_15
REMARK    6  A    between atoms: C_18  and  C_19
REMARK    7  A    between atoms: C_19  and  S_20
REMARK    8  A    between atoms: S_20  and  C_21
REMARK    9  A    between atoms: C_21  and  C_22
REMARK                            x       y       z     vdW  Elec       q    Type
REMARK                         _______ _______ _______ _____ _____    ______ ____
ROOT
ATOM      1  C   UNL     1      47.129   3.340  16.924  0.00  0.00    +0.000 C 
ENDROOT
BRANCH   1   2
ATOM      2  C   UNL     1      48.451   3.616  17.596  0.00  0.00    +0.000 A 
ATOM      3  C   UNL     1      49.627   3.020  17.124  0.00  0.00    +0.000 A 
ATOM      4  C   UNL     1      50.865   3.330  17.695  0.00  0.00    +0.000 A 
ATOM      5  C   UNL     1      50.965   4.252  18.749  0.00  0.00    +0.000 A 
ATOM      6  C   UNL     1      49.780   4.794  19.268  0.00  0.00    +0.000 A 
ATOM      7  C   UNL     1      48.537   4.474  18.701  0.00  0.00    +0.000 A 
BRANCH   5   8
ATOM      8  C   UNL     1      52.319   4.664  19.291  0.00  0.00    +0.000 C 
BRANCH   8   9
ATOM      9  S   UNL     1      53.474   5.072  17.933  0.00  0.00    +0.000 S 
BRANCH   9  10
ATOM     10  C   UNL     1      53.195   6.873  17.795  0.00  0.00    +0.000 C 
BRANCH  10  11
ATOM     11  C   UNL     1      51.765   7.205  17.409  0.00  0.00    +0.000 A 
ATOM     12  C   UNL     1      51.206   6.696  16.235  0.00  0.00    +0.000 A 
ATOM     13  C   UNL     1      49.894   7.026  15.904  0.00  0.00    +0.000 A 
ATOM     14  C   UNL     1      49.163   7.841  16.757  0.00  0.00    +0.000 A 
ATOM     15  C   UNL     1      49.779   8.290  17.913  0.00  0.00    +0.000 A 
ATOM     16  N   UNL     1      51.053   7.990  18.259  0.00  0.00    +0.000 NA
ENDBRANCH  10  11
ENDBRANCH   9  10
ENDBRANCH   8   9
ENDBRANCH   5   8
ENDBRANCH   1   2
BRANCH   1  19
ATOM     17  C   UNL     1      46.927   4.204  14.628  0.00  0.00    +0.000 C 
ATOM     18  O   UNL     1      47.370   3.157  14.159  0.00  0.00    +0.000 OA
ATOM     19  N   UNL     1      46.784   4.372  15.979  0.00  0.00    +0.000 N 
ATOM     20  H   UNL     1      46.450   5.249  16.349  0.00  0.00    +0.000 HD
BRANCH  17  28
ATOM     21  C   UNL     1      44.191   4.815  12.638  0.00  0.00    +0.000 A 
ATOM     22  N   UNL     1      43.233   5.311  11.831  0.00  0.00    +0.000 NA
ATOM     23  C   UNL     1      43.434   6.518  11.295  0.00  0.00    +0.000 A 
ATOM     24  N   UNL     1      44.491   7.307  11.465  0.00  0.00    +0.000 NA
ATOM     25  C   UNL     1      45.414   6.778  12.286  0.00  0.00    +0.000 A 
ATOM     26  S   UNL     1      46.840   7.640  12.614  0.00  0.00    +0.000 S 
ATOM     27  C   UNL     1      47.409   6.408  13.636  0.00  0.00    +0.000 A 
ATOM     28  C   UNL     1      46.539   5.329  13.757  0.00  0.00    +0.000 A 
ATOM     29  C   UNL     1      45.353   5.549  12.933  0.00  0.00    +0.000 A 
BRANCH  21  31
ATOM     30  C   UNL     1      43.507   2.604  12.282  0.00  0.00    +0.000 C 
ATOM     31  O   UNL     1      43.983   3.577  13.206  0.00  0.00    +0.000 OA
ENDBRANCH  21  31
ENDBRANCH  17  28
ENDBRANCH   1  19
TORSDOF 8
ENDMDL
MODEL 7
REMARK VINA RESULT:    -6.773      2.650      3.946
REMARK INTER + INTRA:         -11.093
REMARK INTER:                 -10.038
REMARK INTRA:                  -1.055
REMARK UNBOUND:                -1.153
REMARK  Name = 
REMARK  9 active torsions:
REMARK  status: ('A' for Active; 'I' for Inactive)
REMARK    1  A    between atoms: C_1  and  O_2
REMARK    2  A    between atoms: O_2  and  C_3
REMARK    3  A    between atoms: C_10  and  C_11
REMARK    4  A    between atoms: N_13  and  C_14
REMARK    5  A    between atoms: C_14  and  C_15
REMARK    6  A    between atoms: C_18  and  C_19
REMARK    7  A    between atoms: C_19  and  S_20
REMARK    8  A    between atoms: S_20  and  C_21
REMARK    9  A    between atoms: C_21  and  C_22
REMARK                            x       y       z     vdW  Elec       q    Type
REMARK                         _______ _______ _______ _____ _____    ______ ____
ROOT
ATOM      1  C   UNL     1      47.909   4.672  15.935  0.00  0.00    +0.000 C 
ENDROOT
BRANCH   1   2
ATOM      2  C   UNL     1      47.211   4.906  14.618  0.00  0.00    +0.000 A 
ATOM      3  C   UNL     1      47.464   6.067  13.876  0.00  0.00    +0.000 A 
ATOM      4  C   UNL     1      46.878   6.254  12.620  0.00  0.00    +0.000 A 
ATOM      5  C   UNL     1      46.029   5.284  12.066  0.00  0.00    +0.000 A 
ATOM      6  C   UNL     1      45.719   4.156  12.841  0.00  0.00    +0.000 A 
ATOM      7  C   UNL     1      46.300   3.973  14.105  0.00  0.00    +0.000 A 
BRANCH   5   8
ATOM      8  C   UNL     1      45.483   5.445  10.661  0.00  0.00    +0.000 C 
BRANCH   8   9
ATOM      9  S   UNL     1      44.363   4.065  10.229  0.00  0.00    +0.000 S 
BRANCH   9  10
ATOM     10  C   UNL     1      44.503   4.086   8.407  0.00  0.00    +0.000 C 
BRANCH  10  11
ATOM     11  C   UNL     1      45.587   3.152   7.903  0.00  0.00    +0.000 A 
ATOM     12  C   UNL     1      46.533   3.591   6.974  0.00  0.00    +0.000 A 
ATOM     13  C   UNL     1      47.511   2.708   6.524  0.00  0.00    +0.000 A 
ATOM     14  C   UNL     1      47.534   1.412   7.020  0.00  0.00    +0.000 A 
ATOM     15  C   UNL     1      46.576   1.055   7.953  0.00  0.00    +0.000 A 
ATOM     16  N   UNL     1      45.612   1.891   8.407  0.00  0.00    +0.000 NA
ENDBRANCH  10  11
ENDBRANCH   9  10
ENDBRANCH   8   9
ENDBRANCH   5   8
ENDBRANCH   1   2
BRANCH   1  19
ATOM     17  C   UNL     1      48.327   5.827  18.068  0.00  0.00    +0.000 C 
ATOM     18  O   UNL     1      49.086   4.934  18.442  0.00  0.00    +0.000 OA
ATOM     19  N   UNL     1      47.706   5.767  16.849  0.00  0.00    +0.000 N 
ATOM     20  H   UNL     1      47.061   6.491  16.572  0.00  0.00    +0.000 HD
BRANCH  17  28
ATOM     21  C   UNL     1      48.151   9.205  17.453  0.00  0.00    +0.000 A 
ATOM     22  N   UNL     1      47.986  10.542  17.478  0.00  0.00    +0.000 NA
ATOM     23  C   UNL     1      47.671  11.110  18.646  0.00  0.00    +0.000 A 
ATOM     24  N   UNL     1      47.499  10.499  19.814  0.00  0.00    +0.000 NA
ATOM     25  C   UNL     1      47.659   9.167  19.740  0.00  0.00    +0.000 A 
ATOM     26  S   UNL     1      47.486   8.220  21.139  0.00  0.00    +0.000 S 
ATOM     27  C   UNL     1      47.808   6.794  20.274  0.00  0.00    +0.000 A 
ATOM     28  C   UNL     1      48.045   6.998  18.919  0.00  0.00    +0.000 A 
ATOM     29  C   UNL     1      47.971   8.423  18.607  0.00  0.00    +0.000 A 
BRANCH  21  31
ATOM     30  C   UNL     1      48.506   9.530  15.161  0.00  0.00    +0.000 C 
ATOM     31  O   UNL     1      48.461   8.612  16.248  0.00  0.00    +0.000 OA
ENDBRANCH  21  31
ENDBRANCH  17  28
ENDBRANCH   1  19
TORSDOF 8
ENDMDL
MODEL 8
REMARK VINA RESULT:    -6.530      2.911      3.936
REMARK INTER + INTRA:         -10.736
REMARK INTER:                  -9.779
REMARK INTRA:                  -0.957
REMARK UNBOUND:                -1.153
REMARK  Name = 
REMARK  9 active torsions:
REMARK  status: ('A' for Active; 'I' for Inactive)
REMARK    1  A    between atoms: C_1  and  O_2
REMARK    2  A    between atoms: O_2  and  C_3
REMARK    3  A    between atoms: C_10  and  C_11
REMARK    4  A    between atoms: N_13  and  C_14
REMARK    5  A    between atoms: C_14  and  C_15
REMARK    6  A    between atoms: C_18  and  C_19
REMARK    7  A    between atoms: C_19  and  S_20
REMARK    8  A    between atoms: S_20  and  C_21
REMARK    9  A    between atoms: C_21  and  C_22
REMARK                            x       y       z     vdW  Elec       q    Type
REMARK                         _______ _______ _______ _____ _____    ______ ____
ROOT
ATOM      1  C   UNL     1      49.540   6.831  16.698  0.00  0.00    +0.000 C 
ENDROOT
BRANCH   1   2
ATOM      2  C   UNL     1      48.607   6.318  15.630  0.00  0.00    +0.000 A 
ATOM      3  C   UNL     1      48.563   6.929  14.370  0.00  0.00    +0.000 A 
ATOM      4  C   UNL     1      47.755   6.411  13.352  0.00  0.00    +0.000 A 
ATOM      5  C   UNL     1      46.975   5.263  13.562  0.00  0.00    +0.000 A 
ATOM      6  C   UNL     1      46.965   4.695  14.844  0.00  0.00    +0.000 A 
ATOM      7  C   UNL     1      47.768   5.221  15.868  0.00  0.00    +0.000 A 
BRANCH   5   8
ATOM      8  C   UNL     1      46.185   4.646  12.424  0.00  0.00    +0.000 C 
BRANCH   8   9
ATOM      9  S   UNL     1      44.389   4.717  12.757  0.00  0.00    +0.000 S 
BRANCH   9  10
ATOM     10  C   UNL     1      43.754   5.017  11.069  0.00  0.00    +0.000 C 
BRANCH  10  11
ATOM     11  C   UNL     1      44.429   4.135  10.036  0.00  0.00    +0.000 A 
ATOM     12  C   UNL     1      45.265   4.687   9.064  0.00  0.00    +0.000 A 
ATOM     13  C   UNL     1      45.864   3.852   8.124  0.00  0.00    +0.000 A 
ATOM     14  C   UNL     1      45.629   2.485   8.182  0.00  0.00    +0.000 A 
ATOM     15  C   UNL     1      44.804   2.010   9.187  0.00  0.00    +0.000 A 
ATOM     16  N   UNL     1      44.206   2.797  10.112  0.00  0.00    +0.000 NA
ENDBRANCH  10  11
ENDBRANCH   9  10
ENDBRANCH   8   9
ENDBRANCH   5   8
ENDBRANCH   1   2
BRANCH   1  19
ATOM     17  C   UNL     1      50.881   5.649  18.391  0.00  0.00    +0.000 C 
ATOM     18  O   UNL     1      50.410   6.339  19.294  0.00  0.00    +0.000 OA
ATOM     19  N   UNL     1      50.506   5.835  17.087  0.00  0.00    +0.000 N 
ATOM     20  H   UNL     1      50.926   5.284  16.355  0.00  0.00    +0.000 HD
BRANCH  17  28
ATOM     21  C   UNL     1      51.178   2.363  17.424  0.00  0.00    +0.000 A 
ATOM     22  N   UNL     1      51.548   1.093  17.169  0.00  0.00    +0.000 NA
ATOM     23  C   UNL     1      52.679   0.650  17.726  0.00  0.00    +0.000 A 
ATOM     24  N   UNL     1      53.502   1.328  18.521  0.00  0.00    +0.000 NA
ATOM     25  C   UNL     1      53.101   2.592  18.737  0.00  0.00    +0.000 A 
ATOM     26  S   UNL     1      54.024   3.606  19.738  0.00  0.00    +0.000 S 
ATOM     27  C   UNL     1      52.945   4.899  19.506  0.00  0.00    +0.000 A 
ATOM     28  C   UNL     1      51.876   4.598  18.669  0.00  0.00    +0.000 A 
ATOM     29  C   UNL     1      51.965   3.209  18.224  0.00  0.00    +0.000 A 
BRANCH  21  31
ATOM     30  C   UNL     1      48.855   2.581  17.619  0.00  0.00    +0.000 C 
ATOM     31  O   UNL     1      50.021   2.831  16.840  0.00  0.00    +0.000 OA
ENDBRANCH  21  31
ENDBRANCH  17  28
ENDBRANCH   1  19
TORSDOF 8
ENDMDL
MODEL 9
REMARK VINA RESULT:    -6.311      2.367      7.989
REMARK INTER + INTRA:         -10.415
REMARK INTER:                  -9.131
REMARK INTRA:                  -1.284
REMARK UNBOUND:                -1.153
REMARK  Name = 
REMARK  9 active torsions:
REMARK  status: ('A' for Active; 'I' for Inactive)
REMARK    1  A    between atoms: C_1  and  O_2
REMARK    2  A    between atoms: O_2  and  C_3
REMARK    3  A    between atoms: C_10  and  C_11
REMARK    4  A    between atoms: N_13  and  C_14
REMARK    5  A    between atoms: C_14  and  C_15
REMARK    6  A    between atoms: C_18  and  C_19
REMARK    7  A    between atoms: C_19  and  S_20
REMARK    8  A    between atoms: S_20  and  C_21
REMARK    9  A    between atoms: C_21  and  C_22
REMARK                            x       y       z     vdW  Elec       q    Type
REMARK                         _______ _______ _______ _____ _____    ______ ____
ROOT
ATOM      1  C   UNL     1      47.960   8.024  11.711  0.00  0.00    +0.000 C 
ENDROOT
BRANCH   1   2
ATOM      2  C   UNL     1      48.698   8.294  12.999  0.00  0.00    +0.000 A 
ATOM      3  C   UNL     1      47.993   8.590  14.173  0.00  0.00    +0.000 A 
ATOM      4  C   UNL     1      48.667   8.767  15.386  0.00  0.00    +0.000 A 
ATOM      5  C   UNL     1      50.064   8.644  15.462  0.00  0.00    +0.000 A 
ATOM      6  C   UNL     1      50.773   8.418  14.273  0.00  0.00    +0.000 A 
ATOM      7  C   UNL     1      50.097   8.250  13.055  0.00  0.00    +0.000 A 
BRANCH   5   8
ATOM      8  C   UNL     1      50.776   8.730  16.797  0.00  0.00    +0.000 C 
BRANCH   8   9
ATOM      9  S   UNL     1      50.129   7.485  17.969  0.00  0.00    +0.000 S 
BRANCH   9  10
ATOM     10  C   UNL     1      50.572   5.945  17.088  0.00  0.00    +0.000 C 
BRANCH  10  11
ATOM     11  C   UNL     1      49.482   4.895  17.183  0.00  0.00    +0.000 A 
ATOM     12  C   UNL     1      48.149   5.265  17.376  0.00  0.00    +0.000 A 
ATOM     13  C   UNL     1      47.172   4.277  17.468  0.00  0.00    +0.000 A 
ATOM     14  C   UNL     1      47.540   2.945  17.348  0.00  0.00    +0.000 A 
ATOM     15  C   UNL     1      48.878   2.656  17.137  0.00  0.00    +0.000 A 
ATOM     16  N   UNL     1      49.850   3.594  17.048  0.00  0.00    +0.000 NA
ENDBRANCH  10  11
ENDBRANCH   9  10
ENDBRANCH   8   9
ENDBRANCH   5   8
ENDBRANCH   1   2
BRANCH   1  19
ATOM     17  C   UNL     1      45.771   6.906  11.585  0.00  0.00    +0.000 C 
ATOM     18  O   UNL     1      45.211   7.961  11.294  0.00  0.00    +0.000 OA
ATOM     19  N   UNL     1      47.120   6.857  11.810  0.00  0.00    +0.000 N 
ATOM     20  H   UNL     1      47.559   5.990  12.081  0.00  0.00    +0.000 HD
BRANCH  17  28
ATOM     21  C   UNL     1      45.231   4.249   9.471  0.00  0.00    +0.000 A 
ATOM     22  N   UNL     1      44.899   3.090   8.870  0.00  0.00    +0.000 NA
ATOM     23  C   UNL     1      44.141   2.227   9.553  0.00  0.00    +0.000 A 
ATOM     24  N   UNL     1      43.662   2.381  10.784  0.00  0.00    +0.000 NA
ATOM     25  C   UNL     1      44.028   3.543  11.350  0.00  0.00    +0.000 A 
ATOM     26  S   UNL     1      43.500   3.917  12.920  0.00  0.00    +0.000 S 
ATOM     27  C   UNL     1      44.322   5.404  12.896  0.00  0.00    +0.000 A 
ATOM     28  C   UNL     1      45.013   5.647  11.713  0.00  0.00    +0.000 A 
ATOM     29  C   UNL     1      44.820   4.537  10.784  0.00  0.00    +0.000 A 
BRANCH  21  31
ATOM     30  C   UNL     1      46.659   4.557   7.641  0.00  0.00    +0.000 C 
ATOM     31  O   UNL     1      46.025   5.136   8.777  0.00  0.00    +0.000 OA
ENDBRANCH  21  31
ENDBRANCH  17  28
ENDBRANCH   1  19
TORSDOF 8
ENDMDL
