MODEL 1
REMARK VINA RESULT:    -6.588      0.000      0.000
REMARK INTER + INTRA:         -10.311
REMARK INTER:                  -9.284
REMARK INTRA:                  -1.027
REMARK UNBOUND:                -1.027
REMARK  Name = 
REMARK  7 active torsions:
REMARK  status: ('A' for Active; 'I' for Inactive)
REMARK    1  A    between atoms: C_2  and  C_20
REMARK    2  A    between atoms: N_3  and  C_4
REMARK    3  A    between atoms: C_4  and  C_5
REMARK    4  A    between atoms: C_8  and  C_9
REMARK    5  A    between atoms: C_9  and  C_10
REMARK    6  A    between atoms: C_10  and  C_11
REMARK    7  A    between atoms: C_11  and  N_12
REMARK                            x       y       z     vdW  Elec       q    Type
REMARK                         _______ _______ _______ _____ _____    ______ ____
ROOT
ATOM      1  C   UNL     1      47.624   4.283  15.910  0.00  0.00    +0.000 C 
ENDROOT
BRANCH   1   2
ATOM      2  C   UNL     1      47.110   4.789  14.593  0.00  0.00    +0.000 A 
ATOM      3  C   UNL     1      46.074   4.113  13.950  0.00  0.00    +0.000 A 
ATOM      4  C   UNL     1      45.562   4.591  12.745  0.00  0.00    +0.000 A 
ATOM      5  C   UNL     1      46.056   5.766  12.153  0.00  0.00    +0.000 A 
ATOM      6  C   UNL     1      47.124   6.418  12.782  0.00  0.00    +0.000 A 
ATOM      7  C   UNL     1      47.647   5.933  13.988  0.00  0.00    +0.000 A 
BRANCH   5   8
ATOM      8  C   UNL     1      45.494   6.314  10.849  0.00  0.00    +0.000 C 
BRANCH   8   9
ATOM      9  C   UNL     1      45.068   5.205   9.882  0.00  0.00    +0.000 C 
BRANCH   9  10
ATOM     10  C   UNL     1      46.058   4.898   8.757  0.00  0.00    +0.000 C 
BRANCH  10  11
ATOM     11  N   UNL     1      45.423   4.037   7.739  0.00  0.00    +0.000 NA
ATOM     12  C   UNL     1      44.675   2.879   8.285  0.00  0.00    +0.000 C 
ATOM     13  C   UNL     1      45.571   1.749   8.815  0.00  0.00    +0.000 C 
ATOM     14  O   UNL     1      46.471   1.286   7.801  0.00  0.00    +0.000 OA
ATOM     15  C   UNL     1      47.272   2.366   7.304  0.00  0.00    +0.000 C 
ATOM     16  C   UNL     1      46.404   3.516   6.763  0.00  0.00    +0.000 C 
ENDBRANCH  10  11
ENDBRANCH   9  10
ENDBRANCH   8   9
ENDBRANCH   5   8
ENDBRANCH   1   2
BRANCH   1  19
ATOM     17  O   UNL     1      49.494   5.377  17.591  0.00  0.00    +0.000 OA
ATOM     18  C   UNL     1      48.324   5.694  17.760  0.00  0.00    +0.000 C 
ATOM     19  N   UNL     1      47.303   5.173  16.997  0.00  0.00    +0.000 N 
ATOM     20  H   UNL     1      46.375   5.574  17.053  0.00  0.00    +0.000 HD
BRANCH  18  21
ATOM     21  C   UNL     1      47.911   6.627  18.801  0.00  0.00    +0.000 A 
ATOM     22  C   UNL     1      47.598   6.274  20.109  0.00  0.00    +0.000 A 
ATOM     23  N   UNL     1      47.387   7.422  20.826  0.00  0.00    +0.000 N 
ATOM     24  C   UNL     1      47.523   8.506  20.009  0.00  0.00    +0.000 A 
ATOM     25  N   UNL     1      47.378   9.775  20.419  0.00  0.00    +0.000 NA
ATOM     26  C   UNL     1      47.544  10.651  19.414  0.00  0.00    +0.000 A 
ATOM     27  N   UNL     1      47.800  10.383  18.126  0.00  0.00    +0.000 NA
ATOM     28  C   UNL     1      47.943   9.088  17.793  0.00  0.00    +0.000 A 
ATOM     29 CL   UNL     1      48.145   8.747  16.144  0.00  0.00    +0.000 Cl
ATOM     30  C   UNL     1      47.824   8.062  18.726  0.00  0.00    +0.000 A 
ATOM     31  H   UNL     1      47.182   7.487  21.814  0.00  0.00    +0.000 HD
ENDBRANCH  18  21
ENDBRANCH   1  19
TORSDOF 7
ENDMDL
MODEL 2
REMARK VINA RESULT:    -6.496      3.429      4.962
REMARK INTER + INTRA:         -10.181
REMARK INTER:                  -9.350
REMARK INTRA:                  -0.831
REMARK UNBOUND:                -1.027
REMARK  Name = 
REMARK  7 active torsions:
REMARK  status: ('A' for Active; 'I' for Inactive)
REMARK    1  A    between atoms: C_2  and  C_20
REMARK    2  A    between atoms: N_3  and  C_4
REMARK    3  A    between atoms: C_4  and  C_5
REMARK    4  A    between atoms: C_8  and  C_9
REMARK    5  A    between atoms: C_9  and  C_10
REMARK    6  A    between atoms: C_10  and  C_11
REMARK    7  A    between atoms: C_11  and  N_12
REMARK                            x       y       z     vdW  Elec       q    Type
REMARK                         _______ _______ _______ _____ _____    ______ ____
ROOT
ATOM      1  C   UNL     1      49.108   7.204  16.053  0.00  0.00    +0.000 C 
ENDROOT
BRANCH   1   2
ATOM      2  C   UNL     1      48.378   6.828  14.796  0.00  0.00    +0.000 A 
ATOM      3  C   UNL     1      47.514   5.733  14.800  0.00  0.00    +0.000 A 
ATOM      4  C   UNL     1      46.802   5.394  13.651  0.00  0.00    +0.000 A 
ATOM      5  C   UNL     1      46.918   6.144  12.469  0.00  0.00    +0.000 A 
ATOM      6  C   UNL     1      47.817   7.217  12.458  0.00  0.00    +0.000 A 
ATOM      7  C   UNL     1      48.542   7.554  13.609  0.00  0.00    +0.000 A 
BRANCH   5   8
ATOM      8  C   UNL     1      46.131   5.800  11.212  0.00  0.00    +0.000 C 
BRANCH   8   9
ATOM      9  C   UNL     1      45.019   4.780  11.476  0.00  0.00    +0.000 C 
BRANCH   9  10
ATOM     10  C   UNL     1      45.271   3.376  10.925  0.00  0.00    +0.000 C 
BRANCH  10  11
ATOM     11  N   UNL     1      44.437   3.138   9.730  0.00  0.00    +0.000 NA
ATOM     12  C   UNL     1      44.585   1.790   9.129  0.00  0.00    +0.000 C 
ATOM     13  C   UNL     1      45.902   1.587   8.364  0.00  0.00    +0.000 C 
ATOM     14  O   UNL     1      46.059   2.574   7.338  0.00  0.00    +0.000 OA
ATOM     15  C   UNL     1      46.004   3.895   7.894  0.00  0.00    +0.000 C 
ATOM     16  C   UNL     1      44.694   4.132   8.666  0.00  0.00    +0.000 C 
ENDBRANCH  10  11
ENDBRANCH   9  10
ENDBRANCH   8   9
ENDBRANCH   5   8
ENDBRANCH   1   2
BRANCH   1  19
ATOM     17  O   UNL     1      49.399   5.645  18.290  0.00  0.00    +0.000 OA
ATOM     18  C   UNL     1      50.276   5.585  17.437  0.00  0.00    +0.000 C 
ATOM     19  N   UNL     1      50.247   6.355  16.297  0.00  0.00    +0.000 N 
ATOM     20  H   UNL     1      50.895   6.167  15.543  0.00  0.00    +0.000 HD
BRANCH  18  21
ATOM     21  C   UNL     1      51.439   4.717  17.574  0.00  0.00    +0.000 A 
ATOM     22  C   UNL     1      52.734   5.153  17.828  0.00  0.00    +0.000 A 
ATOM     23  N   UNL     1      53.529   4.055  18.022  0.00  0.00    +0.000 N 
ATOM     24  C   UNL     1      52.788   2.919  17.869  0.00  0.00    +0.000 A 
ATOM     25  N   UNL     1      53.283   1.679  17.999  0.00  0.00    +0.000 NA
ATOM     26  C   UNL     1      52.351   0.738  17.778  0.00  0.00    +0.000 A 
ATOM     27  N   UNL     1      51.066   0.920  17.440  0.00  0.00    +0.000 NA
ATOM     28  C   UNL     1      50.640   2.192  17.338  0.00  0.00    +0.000 A 
ATOM     29 CL   UNL     1      49.051   2.416  16.792  0.00  0.00    +0.000 Cl
ATOM     30  C   UNL     1      51.481   3.278  17.561  0.00  0.00    +0.000 A 
ATOM     31  H   UNL     1      54.511   4.055  18.265  0.00  0.00    +0.000 HD
ENDBRANCH  18  21
ENDBRANCH   1  19
TORSDOF 7
ENDMDL
MODEL 3
REMARK VINA RESULT:    -6.493      3.896      8.294
REMARK INTER + INTRA:         -10.177
REMARK INTER:                  -8.724
REMARK INTRA:                  -1.454
REMARK UNBOUND:                -1.027
REMARK  Name = 
REMARK  7 active torsions:
REMARK  status: ('A' for Active; 'I' for Inactive)
REMARK    1  A    between atoms: C_2  and  C_20
REMARK    2  A    between atoms: N_3  and  C_4
REMARK    3  A    between atoms: C_4  and  C_5
REMARK    4  A    between atoms: C_8  and  C_9
REMARK    5  A    between atoms: C_9  and  C_10
REMARK    6  A    between atoms: C_10  and  C_11
REMARK    7  A    between atoms: C_11  and  N_12
REMARK                            x       y       z     vdW  Elec       q    Type
REMARK                         _______ _______ _______ _____ _____    ______ ____
ROOT
ATOM      1  C   UNL     1      47.976   9.760  13.503  0.00  0.00    +0.000 C 
ENDROOT
BRANCH   1   2
ATOM      2  C   UNL     1      48.783   9.065  14.561  0.00  0.00    +0.000 A 
ATOM      3  C   UNL     1      49.974   8.428  14.215  0.00  0.00    +0.000 A 
ATOM      4  C   UNL     1      50.754   7.812  15.192  0.00  0.00    +0.000 A 
ATOM      5  C   UNL     1      50.377   7.825  16.546  0.00  0.00    +0.000 A 
ATOM      6  C   UNL     1      49.160   8.430  16.882  0.00  0.00    +0.000 A 
ATOM      7  C   UNL     1      48.370   9.042  15.900  0.00  0.00    +0.000 A 
BRANCH   5   8
ATOM      8  C   UNL     1      51.227   7.175  17.629  0.00  0.00    +0.000 C 
BRANCH   8   9
ATOM      9  C   UNL     1      50.499   6.028  18.336  0.00  0.00    +0.000 C 
BRANCH   9  10
ATOM     10  C   UNL     1      50.302   4.761  17.501  0.00  0.00    +0.000 C 
BRANCH  10  11
ATOM     11  N   UNL     1      49.499   3.775  18.250  0.00  0.00    +0.000 NA
ATOM     12  C   UNL     1      49.065   2.599  17.457  0.00  0.00    +0.000 C 
ATOM     13  C   UNL     1      47.935   2.899  16.460  0.00  0.00    +0.000 C 
ATOM     14  O   UNL     1      46.797   3.459  17.124  0.00  0.00    +0.000 OA
ATOM     15  C   UNL     1      47.161   4.649  17.836  0.00  0.00    +0.000 C 
ATOM     16  C   UNL     1      48.290   4.382  18.847  0.00  0.00    +0.000 C 
ENDBRANCH  10  11
ENDBRANCH   9  10
ENDBRANCH   8   9
ENDBRANCH   5   8
ENDBRANCH   1   2
BRANCH   1  19
ATOM     17  O   UNL     1      47.699   7.829  11.574  0.00  0.00    +0.000 OA
ATOM     18  C   UNL     1      46.718   8.095  12.258  0.00  0.00    +0.000 C 
ATOM     19  N   UNL     1      46.739   9.074  13.225  0.00  0.00    +0.000 N 
ATOM     20  H   UNL     1      45.969   9.158  13.876  0.00  0.00    +0.000 HD
BRANCH  18  21
ATOM     21  C   UNL     1      45.440   7.418  12.082  0.00  0.00    +0.000 A 
ATOM     22  C   UNL     1      44.352   7.934  11.387  0.00  0.00    +0.000 A 
ATOM     23  N   UNL     1      43.384   6.968  11.321  0.00  0.00    +0.000 N 
ATOM     24  C   UNL     1      43.804   5.851  11.984  0.00  0.00    +0.000 A 
ATOM     25  N   UNL     1      43.076   4.730  12.095  0.00  0.00    +0.000 NA
ATOM     26  C   UNL     1      43.709   3.788  12.814  0.00  0.00    +0.000 A 
ATOM     27  N   UNL     1      44.909   3.876  13.405  0.00  0.00    +0.000 NA
ATOM     28  C   UNL     1      45.583   5.028  13.240  0.00  0.00    +0.000 A 
ATOM     29 CL   UNL     1      47.043   5.180  14.090  0.00  0.00    +0.000 Cl
ATOM     30  C   UNL     1      45.071   6.091  12.502  0.00  0.00    +0.000 A 
ATOM     31  H   UNL     1      42.496   7.036  10.843  0.00  0.00    +0.000 HD
ENDBRANCH  18  21
ENDBRANCH   1  19
TORSDOF 7
ENDMDL
MODEL 4
REMARK VINA RESULT:    -6.339      4.092      5.629
REMARK INTER + INTRA:          -9.960
REMARK INTER:                  -9.601
REMARK INTRA:                  -0.359
REMARK UNBOUND:                -1.027
REMARK  Name = 
REMARK  7 active torsions:
REMARK  status: ('A' for Active; 'I' for Inactive)
REMARK    1  A    between atoms: C_2  and  C_20
REMARK    2  A    between atoms: N_3  and  C_4
REMARK    3  A    between atoms: C_4  and  C_5
REMARK    4  A    between atoms: C_8  and  C_9
REMARK    5  A    between atoms: C_9  and  C_10
REMARK    6  A    between atoms: C_10  and  C_11
REMARK    7  A    between atoms: C_11  and  N_12
REMARK                            x       y       z     vdW  Elec       q    Type
REMARK                         _______ _______ _______ _____ _____    ______ ____
ROOT
ATOM      1  C   UNL     1      47.829   3.123  17.467  0.00  0.00    +0.000 C 
ENDROOT
BRANCH   1   2
ATOM      2  C   UNL     1      47.784   4.122  16.346  0.00  0.00    +0.000 A 
ATOM      3  C   UNL     1      48.355   5.382  16.521  0.00  0.00    +0.000 A 
ATOM      4  C   UNL     1      48.353   6.306  15.477  0.00  0.00    +0.000 A 
ATOM      5  C   UNL     1      47.798   5.997  14.225  0.00  0.00    +0.000 A 
ATOM      6  C   UNL     1      47.189   4.745  14.068  0.00  0.00    +0.000 A 
ATOM      7  C   UNL     1      47.181   3.818  15.119  0.00  0.00    +0.000 A 
BRANCH   5   8
ATOM      8  C   UNL     1      47.807   6.986  13.068  0.00  0.00    +0.000 C 
BRANCH   8   9
ATOM      9  C   UNL     1      46.892   6.553  11.918  0.00  0.00    +0.000 C 
BRANCH   9  10
ATOM     10  C   UNL     1      45.395   6.753  12.159  0.00  0.00    +0.000 C 
BRANCH  10  11
ATOM     11  N   UNL     1      44.617   6.175  11.045  0.00  0.00    +0.000 NA
ATOM     12  C   UNL     1      43.149   6.163  11.255  0.00  0.00    +0.000 C 
ATOM     13  C   UNL     1      42.669   5.104  12.260  0.00  0.00    +0.000 C 
ATOM     14  O   UNL     1      43.095   3.794  11.869  0.00  0.00    +0.000 OA
ATOM     15  C   UNL     1      44.522   3.744  11.736  0.00  0.00    +0.000 C 
ATOM     16  C   UNL     1      45.035   4.792  10.733  0.00  0.00    +0.000 C 
ENDBRANCH  10  11
ENDBRANCH   9  10
ENDBRANCH   8   9
ENDBRANCH   5   8
ENDBRANCH   1   2
BRANCH   1  19
ATOM     17  O   UNL     1      49.654   1.702  15.994  0.00  0.00    +0.000 OA
ATOM     18  C   UNL     1      50.023   2.159  17.068  0.00  0.00    +0.000 C 
ATOM     19  N   UNL     1      49.176   2.853  17.902  0.00  0.00    +0.000 N 
ATOM     20  H   UNL     1      49.549   3.352  18.699  0.00  0.00    +0.000 HD
BRANCH  18  21
ATOM     21  C   UNL     1      51.381   1.980  17.566  0.00  0.00    +0.000 A 
ATOM     22  C   UNL     1      51.964   0.755  17.870  0.00  0.00    +0.000 A 
ATOM     23  N   UNL     1      53.281   0.969  18.179  0.00  0.00    +0.000 N 
ATOM     24  C   UNL     1      53.557   2.304  18.115  0.00  0.00    +0.000 A 
ATOM     25  N   UNL     1      54.765   2.831  18.363  0.00  0.00    +0.000 NA
ATOM     26  C   UNL     1      54.764   4.169  18.252  0.00  0.00    +0.000 A 
ATOM     27  N   UNL     1      53.727   4.966  17.957  0.00  0.00    +0.000 NA
ATOM     28  C   UNL     1      52.550   4.364  17.710  0.00  0.00    +0.000 A 
ATOM     29 CL   UNL     1      51.217   5.381  17.459  0.00  0.00    +0.000 Cl
ATOM     30  C   UNL     1      52.395   2.982  17.763  0.00  0.00    +0.000 A 
ATOM     31  H   UNL     1      53.970   0.264  18.402  0.00  0.00    +0.000 HD
ENDBRANCH  18  21
ENDBRANCH   1  19
TORSDOF 7
ENDMDL
MODEL 5
REMARK VINA RESULT:    -6.230      5.308      8.460
REMARK INTER + INTRA:          -9.807
REMARK INTER:                  -8.782
REMARK INTRA:                  -1.025
REMARK UNBOUND:                -1.027
REMARK  Name = 
REMARK  7 active torsions:
REMARK  status: ('A' for Active; 'I' for Inactive)
REMARK    1  A    between atoms: C_2  and  C_20
REMARK    2  A    between atoms: N_3  and  C_4
REMARK    3  A    between atoms: C_4  and  C_5
REMARK    4  A    between atoms: C_8  and  C_9
REMARK    5  A    between atoms: C_9  and  C_10
REMARK    6  A    between atoms: C_10  and  C_11
REMARK    7  A    between atoms: C_11  and  N_12
REMARK                            x       y       z     vdW  Elec       q    Type
REMARK                         _______ _______ _______ _____ _____    ______ ____
ROOT
ATOM      1  C   UNL     1      45.889   8.657  12.905  0.00  0.00    +0.000 C 
ENDROOT
BRANCH   1   2
ATOM      2  C   UNL     1      47.273   8.818  12.345  0.00  0.00    +0.000 A 
ATOM      3  C   UNL     1      47.788  10.096  12.132  0.00  0.00    +0.000 A 
ATOM      4  C   UNL     1      49.084  10.262  11.647  0.00  0.00    +0.000 A 
ATOM      5  C   UNL     1      49.911   9.160  11.375  0.00  0.00    +0.000 A 
ATOM      6  C   UNL     1      49.375   7.878  11.551  0.00  0.00    +0.000 A 
ATOM      7  C   UNL     1      48.068   7.709  12.029  0.00  0.00    +0.000 A 
BRANCH   5   8
ATOM      8  C   UNL     1      51.336   9.323  10.865  0.00  0.00    +0.000 C 
BRANCH   8   9
ATOM      9  C   UNL     1      52.124   8.010  10.895  0.00  0.00    +0.000 C 
BRANCH   9  10
ATOM     10  C   UNL     1      53.112   7.810   9.745  0.00  0.00    +0.000 C 
BRANCH  10  11
ATOM     11  N   UNL     1      52.796   6.569   9.010  0.00  0.00    +0.000 NA
ATOM     12  C   UNL     1      53.895   5.574   8.971  0.00  0.00    +0.000 C 
ATOM     13  C   UNL     1      55.047   5.950   8.026  0.00  0.00    +0.000 C 
ATOM     14  O   UNL     1      54.569   6.168   6.694  0.00  0.00    +0.000 OA
ATOM     15  C   UNL     1      53.560   7.186   6.678  0.00  0.00    +0.000 C 
ATOM     16  C   UNL     1      52.388   6.839   7.614  0.00  0.00    +0.000 C 
ENDBRANCH  10  11
ENDBRANCH   9  10
ENDBRANCH   8   9
ENDBRANCH   5   8
ENDBRANCH   1   2
BRANCH   1  19
ATOM     17  O   UNL     1      44.033   7.854  11.053  0.00  0.00    +0.000 OA
ATOM     18  C   UNL     1      44.500   7.001  11.796  0.00  0.00    +0.000 C 
ATOM     19  N   UNL     1      45.408   7.304  12.785  0.00  0.00    +0.000 N 
ATOM     20  H   UNL     1      45.892   6.560  13.272  0.00  0.00    +0.000 HD
BRANCH  18  21
ATOM     21  C   UNL     1      44.110   5.598  11.715  0.00  0.00    +0.000 A 
ATOM     22  C   UNL     1      43.243   4.960  12.593  0.00  0.00    +0.000 A 
ATOM     23  N   UNL     1      43.012   3.692  12.127  0.00  0.00    +0.000 N 
ATOM     24  C   UNL     1      43.735   3.484  10.988  0.00  0.00    +0.000 A 
ATOM     25  N   UNL     1      43.720   2.337  10.292  0.00  0.00    +0.000 NA
ATOM     26  C   UNL     1      44.534   2.385   9.224  0.00  0.00    +0.000 A 
ATOM     27  N   UNL     1      45.319   3.401   8.837  0.00  0.00    +0.000 NA
ATOM     28  C   UNL     1      45.272   4.521   9.579  0.00  0.00    +0.000 A 
ATOM     29 CL   UNL     1      46.356   5.755   9.157  0.00  0.00    +0.000 Cl
ATOM     30  C   UNL     1      44.460   4.636  10.703  0.00  0.00    +0.000 A 
ATOM     31  H   UNL     1      42.392   3.004  12.531  0.00  0.00    +0.000 HD
ENDBRANCH  18  21
ENDBRANCH   1  19
TORSDOF 7
ENDMDL
MODEL 6
REMARK VINA RESULT:    -6.101      4.383      6.233
REMARK INTER + INTRA:          -9.624
REMARK INTER:                  -8.664
REMARK INTRA:                  -0.961
REMARK UNBOUND:                -1.027
REMARK  Name = 
REMARK  7 active torsions:
REMARK  status: ('A' for Active; 'I' for Inactive)
REMARK    1  A    between atoms: C_2  and  C_20
REMARK    2  A    between atoms: N_3  and  C_4
REMARK    3  A    between atoms: C_4  and  C_5
REMARK    4  A    between atoms: C_8  and  C_9
REMARK    5  A    between atoms: C_9  and  C_10
REMARK    6  A    between atoms: C_10  and  C_11
REMARK    7  A    between atoms: C_11  and  N_12
REMARK                            x       y       z     vdW  Elec       q    Type
REMARK                         _______ _______ _______ _____ _____    ______ ____
ROOT
ATOM      1  C   UNL     1      50.850   6.726  16.824  0.00  0.00    +0.000 C 
ENDROOT
BRANCH   1   2
ATOM      2  C   UNL     1      49.998   6.979  15.614  0.00  0.00    +0.000 A 
ATOM      3  C   UNL     1      50.489   7.773  14.578  0.00  0.00    +0.000 A 
ATOM      4  C   UNL     1      49.724   7.987  13.432  0.00  0.00    +0.000 A 
ATOM      5  C   UNL     1      48.456   7.404  13.278  0.00  0.00    +0.000 A 
ATOM      6  C   UNL     1      47.951   6.641  14.339  0.00  0.00    +0.000 A 
ATOM      7  C   UNL     1      48.713   6.433  15.496  0.00  0.00    +0.000 A 
BRANCH   5   8
ATOM      8  C   UNL     1      47.617   7.609  12.024  0.00  0.00    +0.000 C 
BRANCH   8   9
ATOM      9  C   UNL     1      46.842   6.350  11.624  0.00  0.00    +0.000 C 
BRANCH   9  10
ATOM     10  C   UNL     1      45.322   6.440  11.766  0.00  0.00    +0.000 C 
BRANCH  10  11
ATOM     11  N   UNL     1      44.858   5.563  12.859  0.00  0.00    +0.000 NA
ATOM     12  C   UNL     1      45.473   4.213  12.874  0.00  0.00    +0.000 C 
ATOM     13  C   UNL     1      44.949   3.275  11.775  0.00  0.00    +0.000 C 
ATOM     14  O   UNL     1      43.525   3.140  11.849  0.00  0.00    +0.000 OA
ATOM     15  C   UNL     1      42.889   4.421  11.755  0.00  0.00    +0.000 C 
ATOM     16  C   UNL     1      43.390   5.386  12.844  0.00  0.00    +0.000 C 
ENDBRANCH  10  11
ENDBRANCH   9  10
ENDBRANCH   8   9
ENDBRANCH   5   8
ENDBRANCH   1   2
BRANCH   1  19
ATOM     17  O   UNL     1      49.877   4.890  18.615  0.00  0.00    +0.000 OA
ATOM     18  C   UNL     1      50.719   4.509  17.811  0.00  0.00    +0.000 C 
ATOM     19  N   UNL     1      51.300   5.358  16.897  0.00  0.00    +0.000 N 
ATOM     20  H   UNL     1      51.867   4.983  16.148  0.00  0.00    +0.000 HD
BRANCH  18  21
ATOM     21  C   UNL     1      51.197   3.133  17.777  0.00  0.00    +0.000 A 
ATOM     22  C   UNL     1      50.536   2.075  17.163  0.00  0.00    +0.000 A 
ATOM     23  N   UNL     1      51.345   0.971  17.220  0.00  0.00    +0.000 N 
ATOM     24  C   UNL     1      52.497   1.279  17.883  0.00  0.00    +0.000 A 
ATOM     25  N   UNL     1      53.492   0.406  18.101  0.00  0.00    +0.000 NA
ATOM     26  C   UNL     1      54.503   0.955  18.794  0.00  0.00    +0.000 A 
ATOM     27  N   UNL     1      54.585   2.206  19.271  0.00  0.00    +0.000 NA
ATOM     28  C   UNL     1      53.553   3.026  19.004  0.00  0.00    +0.000 A 
ATOM     29 CL   UNL     1      53.607   4.565  19.713  0.00  0.00    +0.000 Cl
ATOM     30  C   UNL     1      52.442   2.612  18.276  0.00  0.00    +0.000 A 
ATOM     31  H   UNL     1      51.154   0.061  16.822  0.00  0.00    +0.000 HD
ENDBRANCH  18  21
ENDBRANCH   1  19
TORSDOF 7
ENDMDL
MODEL 7
REMARK VINA RESULT:    -6.013      4.164      5.772
REMARK INTER + INTRA:          -9.500
REMARK INTER:                  -8.762
REMARK INTRA:                  -0.738
REMARK UNBOUND:                -1.027
REMARK  Name = 
REMARK  7 active torsions:
REMARK  status: ('A' for Active; 'I' for Inactive)
REMARK    1  A    between atoms: C_2  and  C_20
REMARK    2  A    between atoms: N_3  and  C_4
REMARK    3  A    between atoms: C_4  and  C_5
REMARK    4  A    between atoms: C_8  and  C_9
REMARK    5  A    between atoms: C_9  and  C_10
REMARK    6  A    between atoms: C_10  and  C_11
REMARK    7  A    between atoms: C_11  and  N_12
REMARK                            x       y       z     vdW  Elec       q    Type
REMARK                         _______ _______ _______ _____ _____    ______ ____
ROOT
ATOM      1  C   UNL     1      49.794   6.655  17.551  0.00  0.00    +0.000 C 
ENDROOT
BRANCH   1   2
ATOM      2  C   UNL     1      48.859   6.064  16.535  0.00  0.00    +0.000 A 
ATOM      3  C   UNL     1      48.758   6.641  15.270  0.00  0.00    +0.000 A 
ATOM      4  C   UNL     1      47.923   6.082  14.304  0.00  0.00    +0.000 A 
ATOM      5  C   UNL     1      47.177   4.921  14.566  0.00  0.00    +0.000 A 
ATOM      6  C   UNL     1      47.250   4.369  15.850  0.00  0.00    +0.000 A 
ATOM      7  C   UNL     1      48.081   4.936  16.826  0.00  0.00    +0.000 A 
BRANCH   5   8
ATOM      8  C   UNL     1      46.276   4.284  13.516  0.00  0.00    +0.000 C 
BRANCH   8   9
ATOM      9  C   UNL     1      45.343   5.299  12.850  0.00  0.00    +0.000 C 
BRANCH   9  10
ATOM     10  C   UNL     1      45.428   5.367  11.324  0.00  0.00    +0.000 C 
BRANCH  10  11
ATOM     11  N   UNL     1      44.102   5.112  10.726  0.00  0.00    +0.000 NA
ATOM     12  C   UNL     1      43.138   4.431  11.625  0.00  0.00    +0.000 C 
ATOM     13  C   UNL     1      43.430   2.938  11.842  0.00  0.00    +0.000 C 
ATOM     14  O   UNL     1      43.479   2.237  10.594  0.00  0.00    +0.000 OA
ATOM     15  C   UNL     1      44.462   2.816   9.726  0.00  0.00    +0.000 C 
ATOM     16  C   UNL     1      44.197   4.313   9.485  0.00  0.00    +0.000 C 
ENDBRANCH  10  11
ENDBRANCH   9  10
ENDBRANCH   8   9
ENDBRANCH   5   8
ENDBRANCH   1   2
BRANCH   1  19
ATOM     17  O   UNL     1      50.159   4.996  19.703  0.00  0.00    +0.000 OA
ATOM     18  C   UNL     1      51.034   5.018  18.847  0.00  0.00    +0.000 C 
ATOM     19  N   UNL     1      50.968   5.844  17.748  0.00  0.00    +0.000 N 
ATOM     20  H   UNL     1      51.621   5.723  16.985  0.00  0.00    +0.000 HD
BRANCH  18  21
ATOM     21  C   UNL     1      52.233   4.193  18.937  0.00  0.00    +0.000 A 
ATOM     22  C   UNL     1      53.407   4.562  19.584  0.00  0.00    +0.000 A 
ATOM     23  N   UNL     1      54.259   3.489  19.575  0.00  0.00    +0.000 N 
ATOM     24  C   UNL     1      53.680   2.448  18.910  0.00  0.00    +0.000 A 
ATOM     25  N   UNL     1      54.265   1.254  18.734  0.00  0.00    +0.000 NA
ATOM     26  C   UNL     1      53.492   0.412  18.029  0.00  0.00    +0.000 A 
ATOM     27  N   UNL     1      52.281   0.655  17.506  0.00  0.00    +0.000 NA
ATOM     28  C   UNL     1      51.754   1.871  17.734  0.00  0.00    +0.000 A 
ATOM     29 CL   UNL     1      50.281   2.214  16.968  0.00  0.00    +0.000 Cl
ATOM     30  C   UNL     1      52.423   2.846  18.468  0.00  0.00    +0.000 A 
ATOM     31  H   UNL     1      55.173   3.441  20.006  0.00  0.00    +0.000 HD
ENDBRANCH  18  21
ENDBRANCH   1  19
TORSDOF 7
ENDMDL
MODEL 8
REMARK VINA RESULT:    -6.002      3.484      4.544
REMARK INTER + INTRA:          -9.485
REMARK INTER:                  -8.255
REMARK INTRA:                  -1.229
REMARK UNBOUND:                -1.027
REMARK  Name = 
REMARK  7 active torsions:
REMARK  status: ('A' for Active; 'I' for Inactive)
REMARK    1  A    between atoms: C_2  and  C_20
REMARK    2  A    between atoms: N_3  and  C_4
REMARK    3  A    between atoms: C_4  and  C_5
REMARK    4  A    between atoms: C_8  and  C_9
REMARK    5  A    between atoms: C_9  and  C_10
REMARK    6  A    between atoms: C_10  and  C_11
REMARK    7  A    between atoms: C_11  and  N_12
REMARK                            x       y       z     vdW  Elec       q    Type
REMARK                         _______ _______ _______ _____ _____    ______ ____
ROOT
ATOM      1  C   UNL     1      50.412   7.974  14.375  0.00  0.00    +0.000 C 
ENDROOT
BRANCH   1   2
ATOM      2  C   UNL     1      49.148   8.133  13.581  0.00  0.00    +0.000 A 
ATOM      3  C   UNL     1      49.074   7.616  12.288  0.00  0.00    +0.000 A 
ATOM      4  C   UNL     1      47.895   7.724  11.552  0.00  0.00    +0.000 A 
ATOM      5  C   UNL     1      46.751   8.337  12.088  0.00  0.00    +0.000 A 
ATOM      6  C   UNL     1      46.843   8.891  13.371  0.00  0.00    +0.000 A 
ATOM      7  C   UNL     1      48.030   8.792  14.109  0.00  0.00    +0.000 A 
BRANCH   5   8
ATOM      8  C   UNL     1      45.448   8.444  11.307  0.00  0.00    +0.000 C 
BRANCH   8   9
ATOM      9  C   UNL     1      44.492   7.283  11.597  0.00  0.00    +0.000 C 
BRANCH   9  10
ATOM     10  C   UNL     1      44.826   5.966  10.895  0.00  0.00    +0.000 C 
BRANCH  10  11
ATOM     11  N   UNL     1      43.622   5.116  10.804  0.00  0.00    +0.000 NA
ATOM     12  C   UNL     1      42.731   5.175  11.988  0.00  0.00    +0.000 C 
ATOM     13  C   UNL     1      43.274   4.433  13.218  0.00  0.00    +0.000 C 
ATOM     14  O   UNL     1      43.551   3.062  12.912  0.00  0.00    +0.000 OA
ATOM     15  C   UNL     1      44.477   2.964  11.821  0.00  0.00    +0.000 C 
ATOM     16  C   UNL     1      43.961   3.696  10.570  0.00  0.00    +0.000 C 
ENDBRANCH  10  11
ENDBRANCH   9  10
ENDBRANCH   8   9
ENDBRANCH   5   8
ENDBRANCH   1   2
BRANCH   1  19
ATOM     17  O   UNL     1      49.699   8.140  17.017  0.00  0.00    +0.000 OA
ATOM     18  C   UNL     1      49.951   7.030  16.566  0.00  0.00    +0.000 C 
ATOM     19  N   UNL     1      50.357   6.841  15.264  0.00  0.00    +0.000 N 
ATOM     20  H   UNL     1      50.401   5.906  14.879  0.00  0.00    +0.000 HD
BRANCH  18  21
ATOM     21  C   UNL     1      49.873   5.822  17.377  0.00  0.00    +0.000 A 
ATOM     22  C   UNL     1      50.717   5.518  18.439  0.00  0.00    +0.000 A 
ATOM     23  N   UNL     1      50.260   4.375  19.040  0.00  0.00    +0.000 N 
ATOM     24  C   UNL     1      49.161   3.914  18.374  0.00  0.00    +0.000 A 
ATOM     25  N   UNL     1      48.484   2.811  18.724  0.00  0.00    +0.000 NA
ATOM     26  C   UNL     1      47.457   2.566  17.893  0.00  0.00    +0.000 A 
ATOM     27  N   UNL     1      47.092   3.268  16.811  0.00  0.00    +0.000 NA
ATOM     28  C   UNL     1      47.814   4.368  16.530  0.00  0.00    +0.000 A 
ATOM     29 CL   UNL     1      47.426   5.181  15.094  0.00  0.00    +0.000 Cl
ATOM     30  C   UNL     1      48.895   4.768  17.310  0.00  0.00    +0.000 A 
ATOM     31  H   UNL     1      50.644   3.932  19.864  0.00  0.00    +0.000 HD
ENDBRANCH  18  21
ENDBRANCH   1  19
TORSDOF 7
ENDMDL
