MODEL 1
REMARK VINA RESULT:    -8.072      0.000      0.000
REMARK INTER + INTRA:         -12.444
REMARK INTER:                 -11.375
REMARK INTRA:                  -1.069
REMARK UNBOUND:                -1.069
REMARK  Name = 
REMARK  8 active torsions:
REMARK  status: ('A' for Active; 'I' for Inactive)
REMARK    1  A    between atoms: C_1  and  C_2
REMARK    2  A    between atoms: C_2  and  N_3
REMARK    3  A    between atoms: C_2  and  C_16
REMARK    4  A    between atoms: C_4  and  C_6
REMARK    5  A    between atoms: C_19  and  C_20
REMARK    6  A    between atoms: C_20  and  N_21
REMARK    7  A    between atoms: N_21  and  C_22
REMARK    8  A    between atoms: C_22  and  C_23
REMARK                            x       y       z     vdW  Elec       q    Type
REMARK                         _______ _______ _______ _____ _____    ______ ____
ROOT
ATOM      1  C   UNL     1      49.067   7.639  12.797  0.00  0.00    +0.000 C 
ATOM      2  C   UNL     1      48.403   6.512  13.596  0.00  0.00    +0.000 C 
ENDROOT
BRANCH   2   3
ATOM      3  C   UNL     1      47.172   6.003  12.857  0.00  0.00    +0.000 A 
ATOM      4  C   UNL     1      46.851   6.590  11.622  0.00  0.00    +0.000 A 
ATOM      5  C   UNL     1      45.680   6.250  10.939  0.00  0.00    +0.000 A 
ATOM      6  C   UNL     1      44.802   5.292  11.460  0.00  0.00    +0.000 A 
ATOM      7  C   UNL     1      45.133   4.672  12.669  0.00  0.00    +0.000 A 
ATOM      8  C   UNL     1      46.295   5.034  13.366  0.00  0.00    +0.000 A 
BRANCH   6   9
ATOM      9  C   UNL     1      43.500   4.976  10.756  0.00  0.00    +0.000 C 
BRANCH   9  10
ATOM     10  N   UNL     1      43.734   4.441   9.417  0.00  0.00    +0.000 NA
ATOM     11  H   UNL     1      44.423   5.031   8.950  0.00  0.00    +0.000 HD
BRANCH  10  12
ATOM     12  C   UNL     1      44.252   3.068   9.464  0.00  0.00    +0.000 C 
BRANCH  12  13
ATOM     13  C   UNL     1      45.399   2.873   8.496  0.00  0.00    +0.000 A 
ATOM     14  C   UNL     1      46.005   1.626   8.368  0.00  0.00    +0.000 A 
ATOM     15  N   UNL     1      47.027   1.383   7.512  0.00  0.00    +0.000 NA
ATOM     16  C   UNL     1      47.422   2.443   6.777  0.00  0.00    +0.000 A 
ATOM     17  C   UNL     1      46.829   3.690   6.894  0.00  0.00    +0.000 A 
ATOM     18  N   UNL     1      45.810   3.936   7.751  0.00  0.00    +0.000 NA
ENDBRANCH  12  13
ENDBRANCH  10  12
ENDBRANCH   9  10
ENDBRANCH   6   9
ENDBRANCH   2   3
BRANCH   2  19
ATOM     19  N   UNL     1      48.129   6.936  14.954  0.00  0.00    +0.000 N 
ATOM     20  C   UNL     1      49.066   6.869  15.952  0.00  0.00    +0.000 C 
ATOM     21  O   UNL     1      50.188   6.405  15.778  0.00  0.00    +0.000 OA
ATOM     22  H   UNL     1      47.181   7.210  15.180  0.00  0.00    +0.000 HD
BRANCH  20  23
ATOM     23  C   UNL     1      48.669   7.435  17.247  0.00  0.00    +0.000 A 
ATOM     24  C   UNL     1      48.732   8.808  17.454  0.00  0.00    +0.000 A 
ATOM     25  S   UNL     1      48.226   9.287  19.012  0.00  0.00    +0.000 S 
ATOM     26  C   UNL     1      47.947   7.674  19.476  0.00  0.00    +0.000 A 
ATOM     27  N   UNL     1      47.526   7.367  20.733  0.00  0.00    +0.000 NA
ATOM     28  C   UNL     1      47.395   6.102  20.958  0.00  0.00    +0.000 A 
ATOM     29  N   UNL     1      47.632   5.116  20.041  0.00  0.00    +0.000 N 
ATOM     30  C   UNL     1      47.986   5.382  18.741  0.00  0.00    +0.000 A 
ATOM     31  O   UNL     1      48.056   4.481  17.914  0.00  0.00    +0.000 OA
ATOM     32  C   UNL     1      48.201   6.785  18.447  0.00  0.00    +0.000 A 
ATOM     33  H   UNL     1      47.470   4.144  20.261  0.00  0.00    +0.000 HD
ENDBRANCH  20  23
ENDBRANCH   2  19
TORSDOF 7
ENDMDL
MODEL 2
REMARK VINA RESULT:    -8.065      1.497      2.027
REMARK INTER + INTRA:         -12.434
REMARK INTER:                 -11.142
REMARK INTRA:                  -1.292
REMARK UNBOUND:                -1.069
REMARK  Name = 
REMARK  8 active torsions:
REMARK  status: ('A' for Active; 'I' for Inactive)
REMARK    1  A    between atoms: C_1  and  C_2
REMARK    2  A    between atoms: C_2  and  N_3
REMARK    3  A    between atoms: C_2  and  C_16
REMARK    4  A    between atoms: C_4  and  C_6
REMARK    5  A    between atoms: C_19  and  C_20
REMARK    6  A    between atoms: C_20  and  N_21
REMARK    7  A    between atoms: N_21  and  C_22
REMARK    8  A    between atoms: C_22  and  C_23
REMARK                            x       y       z     vdW  Elec       q    Type
REMARK                         _______ _______ _______ _____ _____    ______ ____
ROOT
ATOM      1  C   UNL     1      47.293   8.651  13.217  0.00  0.00    +0.000 C 
ATOM      2  C   UNL     1      47.570   7.151  13.359  0.00  0.00    +0.000 C 
ENDROOT
BRANCH   2   3
ATOM      3  C   UNL     1      46.422   6.348  12.759  0.00  0.00    +0.000 A 
ATOM      4  C   UNL     1      46.005   5.187  13.430  0.00  0.00    +0.000 A 
ATOM      5  C   UNL     1      45.032   4.344  12.885  0.00  0.00    +0.000 A 
ATOM      6  C   UNL     1      44.427   4.648  11.660  0.00  0.00    +0.000 A 
ATOM      7  C   UNL     1      44.807   5.824  11.004  0.00  0.00    +0.000 A 
ATOM      8  C   UNL     1      45.802   6.655  11.538  0.00  0.00    +0.000 A 
BRANCH   6   9
ATOM      9  C   UNL     1      43.427   3.700  11.037  0.00  0.00    +0.000 C 
BRANCH   9  10
ATOM     10  N   UNL     1      43.757   3.418   9.642  0.00  0.00    +0.000 NA
ATOM     11  H   UNL     1      44.309   4.195   9.278  0.00  0.00    +0.000 HD
BRANCH  10  12
ATOM     12  C   UNL     1      44.543   2.185   9.508  0.00  0.00    +0.000 C 
BRANCH  12  13
ATOM     13  C   UNL     1      45.607   2.318   8.441  0.00  0.00    +0.000 A 
ATOM     14  C   UNL     1      45.796   3.532   7.786  0.00  0.00    +0.000 A 
ATOM     15  N   UNL     1      46.739   3.720   6.830  0.00  0.00    +0.000 NA
ATOM     16  C   UNL     1      47.497   2.638   6.555  0.00  0.00    +0.000 A 
ATOM     17  C   UNL     1      47.320   1.424   7.198  0.00  0.00    +0.000 A 
ATOM     18  N   UNL     1      46.377   1.234   8.150  0.00  0.00    +0.000 NA
ENDBRANCH  12  13
ENDBRANCH  10  12
ENDBRANCH   9  10
ENDBRANCH   6   9
ENDBRANCH   2   3
BRANCH   2  19
ATOM     19  N   UNL     1      47.857   6.808  14.738  0.00  0.00    +0.000 N 
ATOM     20  C   UNL     1      49.127   6.815  15.252  0.00  0.00    +0.000 C 
ATOM     21  O   UNL     1      50.116   7.069  14.571  0.00  0.00    +0.000 OA
ATOM     22  H   UNL     1      47.092   6.472  15.308  0.00  0.00    +0.000 HD
BRANCH  20  23
ATOM     23  C   UNL     1      49.241   6.549  16.691  0.00  0.00    +0.000 A 
ATOM     24  C   UNL     1      49.730   7.533  17.543  0.00  0.00    +0.000 A 
ATOM     25  S   UNL     1      49.784   7.051  19.179  0.00  0.00    +0.000 S 
ATOM     26  C   UNL     1      49.198   5.501  18.799  0.00  0.00    +0.000 A 
ATOM     27  N   UNL     1      49.039   4.553  19.762  0.00  0.00    +0.000 NA
ATOM     28  C   UNL     1      48.626   3.410  19.325  0.00  0.00    +0.000 A 
ATOM     29  N   UNL     1      48.343   3.130  18.017  0.00  0.00    +0.000 N 
ATOM     30  C   UNL     1      48.417   4.075  17.023  0.00  0.00    +0.000 A 
ATOM     31  O   UNL     1      48.026   3.824  15.890  0.00  0.00    +0.000 OA
ATOM     32  C   UNL     1      48.930   5.362  17.449  0.00  0.00    +0.000 A 
ATOM     33  H   UNL     1      47.980   2.229  17.740  0.00  0.00    +0.000 HD
ENDBRANCH  20  23
ENDBRANCH   2  19
TORSDOF 7
ENDMDL
MODEL 3
REMARK VINA RESULT:    -7.631      1.530      2.201
REMARK INTER + INTRA:         -11.824
REMARK INTER:                 -10.732
REMARK INTRA:                  -1.092
REMARK UNBOUND:                -1.069
REMARK  Name = 
REMARK  8 active torsions:
REMARK  status: ('A' for Active; 'I' for Inactive)
REMARK    1  A    between atoms: C_1  and  C_2
REMARK    2  A    between atoms: C_2  and  N_3
REMARK    3  A    between atoms: C_2  and  C_16
REMARK    4  A    between atoms: C_4  and  C_6
REMARK    5  A    between atoms: C_19  and  C_20
REMARK    6  A    between atoms: C_20  and  N_21
REMARK    7  A    between atoms: N_21  and  C_22
REMARK    8  A    between atoms: C_22  and  C_23
REMARK                            x       y       z     vdW  Elec       q    Type
REMARK                         _______ _______ _______ _____ _____    ______ ____
ROOT
ATOM      1  C   UNL     1      48.410   8.450  13.693  0.00  0.00    +0.000 C 
ATOM      2  C   UNL     1      48.441   7.015  14.230  0.00  0.00    +0.000 C 
ENDROOT
BRANCH   2   3
ATOM      3  C   UNL     1      47.481   6.138  13.435  0.00  0.00    +0.000 A 
ATOM      4  C   UNL     1      47.003   6.625  12.207  0.00  0.00    +0.000 A 
ATOM      5  C   UNL     1      46.040   5.926  11.475  0.00  0.00    +0.000 A 
ATOM      6  C   UNL     1      45.540   4.702  11.936  0.00  0.00    +0.000 A 
ATOM      7  C   UNL     1      46.040   4.189  13.138  0.00  0.00    +0.000 A 
ATOM      8  C   UNL     1      46.986   4.905  13.885  0.00  0.00    +0.000 A 
BRANCH   6   9
ATOM      9  C   UNL     1      44.446   3.981  11.179  0.00  0.00    +0.000 C 
BRANCH   9  10
ATOM     10  N   UNL     1      44.867   2.638  10.786  0.00  0.00    +0.000 NA
ATOM     11  H   UNL     1      44.472   1.969  11.449  0.00  0.00    +0.000 HD
BRANCH  10  12
ATOM     12  C   UNL     1      44.394   2.293   9.440  0.00  0.00    +0.000 C 
BRANCH  12  13
ATOM     13  C   UNL     1      45.507   2.385   8.420  0.00  0.00    +0.000 A 
ATOM     14  C   UNL     1      45.721   3.570   7.719  0.00  0.00    +0.000 A 
ATOM     15  N   UNL     1      46.707   3.722   6.802  0.00  0.00    +0.000 NA
ATOM     16  C   UNL     1      47.484   2.635   6.613  0.00  0.00    +0.000 A 
ATOM     17  C   UNL     1      47.283   1.450   7.302  0.00  0.00    +0.000 A 
ATOM     18  N   UNL     1      46.296   1.296   8.216  0.00  0.00    +0.000 NA
ENDBRANCH  12  13
ENDBRANCH  10  12
ENDBRANCH   9  10
ENDBRANCH   6   9
ENDBRANCH   2   3
BRANCH   2  19
ATOM     19  N   UNL     1      48.195   6.994  15.658  0.00  0.00    +0.000 N 
ATOM     20  C   UNL     1      49.083   6.456  16.552  0.00  0.00    +0.000 C 
ATOM     21  O   UNL     1      50.128   5.914  16.205  0.00  0.00    +0.000 OA
ATOM     22  H   UNL     1      47.293   7.316  15.985  0.00  0.00    +0.000 HD
BRANCH  20  23
ATOM     23  C   UNL     1      48.739   6.608  17.972  0.00  0.00    +0.000 A 
ATOM     24  C   UNL     1      48.919   5.544  18.848  0.00  0.00    +0.000 A 
ATOM     25  S   UNL     1      48.476   5.904  20.456  0.00  0.00    +0.000 S 
ATOM     26  C   UNL     1      47.987   7.476  20.028  0.00  0.00    +0.000 A 
ATOM     27  N   UNL     1      47.460   8.325  20.951  0.00  0.00    +0.000 NA
ATOM     28  C   UNL     1      47.095   9.470  20.477  0.00  0.00    +0.000 A 
ATOM     29  N   UNL     1      47.221   9.851  19.170  0.00  0.00    +0.000 N 
ATOM     30  C   UNL     1      47.814   9.056  18.220  0.00  0.00    +0.000 A 
ATOM     31  O   UNL     1      48.032   9.485  17.093  0.00  0.00    +0.000 OA
ATOM     32  C   UNL     1      48.193   7.737  18.685  0.00  0.00    +0.000 A 
ATOM     33  H   UNL     1      46.958  10.777  18.866  0.00  0.00    +0.000 HD
ENDBRANCH  20  23
ENDBRANCH   2  19
TORSDOF 7
ENDMDL
MODEL 4
REMARK VINA RESULT:    -6.797      1.812      2.334
REMARK INTER + INTRA:         -10.649
REMARK INTER:                 -10.425
REMARK INTRA:                  -0.223
REMARK UNBOUND:                -1.069
REMARK  Name = 
REMARK  8 active torsions:
REMARK  status: ('A' for Active; 'I' for Inactive)
REMARK    1  A    between atoms: C_1  and  C_2
REMARK    2  A    between atoms: C_2  and  N_3
REMARK    3  A    between atoms: C_2  and  C_16
REMARK    4  A    between atoms: C_4  and  C_6
REMARK    5  A    between atoms: C_19  and  C_20
REMARK    6  A    between atoms: C_20  and  N_21
REMARK    7  A    between atoms: N_21  and  C_22
REMARK    8  A    between atoms: C_22  and  C_23
REMARK                            x       y       z     vdW  Elec       q    Type
REMARK                         _______ _______ _______ _____ _____    ______ ____
ROOT
ATOM      1  C   UNL     1      46.177   8.174  13.291  0.00  0.00    +0.000 C 
ATOM      2  C   UNL     1      46.923   6.847  13.106  0.00  0.00    +0.000 C 
ENDROOT
BRANCH   2   3
ATOM      3  C   UNL     1      46.240   6.009  12.032  0.00  0.00    +0.000 A 
ATOM      4  C   UNL     1      46.534   6.289  10.688  0.00  0.00    +0.000 A 
ATOM      5  C   UNL     1      45.867   5.635   9.648  0.00  0.00    +0.000 A 
ATOM      6  C   UNL     1      44.899   4.661   9.920  0.00  0.00    +0.000 A 
ATOM      7  C   UNL     1      44.629   4.347  11.256  0.00  0.00    +0.000 A 
ATOM      8  C   UNL     1      45.278   5.023  12.298  0.00  0.00    +0.000 A 
BRANCH   6   9
ATOM      9  C   UNL     1      44.128   4.005   8.796  0.00  0.00    +0.000 C 
BRANCH   9  10
ATOM     10  N   UNL     1      44.271   2.551   8.828  0.00  0.00    +0.000 NA
ATOM     11  H   UNL     1      43.914   2.173   7.951  0.00  0.00    +0.000 HD
BRANCH  10  12
ATOM     12  C   UNL     1      45.675   2.148   8.972  0.00  0.00    +0.000 C 
BRANCH  12  13
ATOM     13  C   UNL     1      46.424   2.267   7.662  0.00  0.00    +0.000 A 
ATOM     14  C   UNL     1      47.435   1.362   7.347  0.00  0.00    +0.000 A 
ATOM     15  N   UNL     1      48.134   1.406   6.187  0.00  0.00    +0.000 NA
ATOM     16  C   UNL     1      47.778   2.395   5.341  0.00  0.00    +0.000 A 
ATOM     17  C   UNL     1      46.774   3.302   5.641  0.00  0.00    +0.000 A 
ATOM     18  N   UNL     1      46.077   3.262   6.801  0.00  0.00    +0.000 NA
ENDBRANCH  12  13
ENDBRANCH  10  12
ENDBRANCH   9  10
ENDBRANCH   6   9
ENDBRANCH   2   3
BRANCH   2  19
ATOM     19  N   UNL     1      47.070   6.158  14.372  0.00  0.00    +0.000 N 
ATOM     20  C   UNL     1      48.268   6.069  15.030  0.00  0.00    +0.000 C 
ATOM     21  O   UNL     1      49.311   6.528  14.574  0.00  0.00    +0.000 OA
ATOM     22  H   UNL     1      46.267   5.656  14.730  0.00  0.00    +0.000 HD
BRANCH  20  23
ATOM     23  C   UNL     1      48.231   5.431  16.352  0.00  0.00    +0.000 A 
ATOM     24  C   UNL     1      47.980   4.068  16.459  0.00  0.00    +0.000 A 
ATOM     25  S   UNL     1      47.984   3.500  18.068  0.00  0.00    +0.000 S 
ATOM     26  C   UNL     1      48.277   5.061  18.677  0.00  0.00    +0.000 A 
ATOM     27  N   UNL     1      48.359   5.290  20.016  0.00  0.00    +0.000 NA
ATOM     28  C   UNL     1      48.544   6.527  20.336  0.00  0.00    +0.000 A 
ATOM     29  N   UNL     1      48.669   7.555  19.443  0.00  0.00    +0.000 N 
ATOM     30  C   UNL     1      48.667   7.361  18.083  0.00  0.00    +0.000 A 
ATOM     31  O   UNL     1      48.918   8.285  17.319  0.00  0.00    +0.000 OA
ATOM     32  C   UNL     1      48.407   5.997  17.667  0.00  0.00    +0.000 A 
ATOM     33  H   UNL     1      48.856   8.499  19.751  0.00  0.00    +0.000 HD
ENDBRANCH  20  23
ENDBRANCH   2  19
TORSDOF 7
ENDMDL
MODEL 5
REMARK VINA RESULT:    -6.735      4.070      5.869
REMARK INTER + INTRA:         -10.560
REMARK INTER:                  -9.542
REMARK INTRA:                  -1.018
REMARK UNBOUND:                -1.069
REMARK  Name = 
REMARK  8 active torsions:
REMARK  status: ('A' for Active; 'I' for Inactive)
REMARK    1  A    between atoms: C_1  and  C_2
REMARK    2  A    between atoms: C_2  and  N_3
REMARK    3  A    between atoms: C_2  and  C_16
REMARK    4  A    between atoms: C_4  and  C_6
REMARK    5  A    between atoms: C_19  and  C_20
REMARK    6  A    between atoms: C_20  and  N_21
REMARK    7  A    between atoms: N_21  and  C_22
REMARK    8  A    between atoms: C_22  and  C_23
REMARK                            x       y       z     vdW  Elec       q    Type
REMARK                         _______ _______ _______ _____ _____    ______ ____
ROOT
ATOM      1  C   UNL     1      48.306   7.956  14.558  0.00  0.00    +0.000 C 
ATOM      2  C   UNL     1      48.208   7.810  13.035  0.00  0.00    +0.000 C 
ENDROOT
BRANCH   2   3
ATOM      3  C   UNL     1      47.135   6.790  12.676  0.00  0.00    +0.000 A 
ATOM      4  C   UNL     1      46.852   5.773  13.603  0.00  0.00    +0.000 A 
ATOM      5  C   UNL     1      45.958   4.743  13.299  0.00  0.00    +0.000 A 
ATOM      6  C   UNL     1      45.300   4.708  12.064  0.00  0.00    +0.000 A 
ATOM      7  C   UNL     1      45.546   5.739  11.150  0.00  0.00    +0.000 A 
ATOM      8  C   UNL     1      46.463   6.757  11.445  0.00  0.00    +0.000 A 
BRANCH   6   9
ATOM      9  C   UNL     1      44.388   3.555  11.708  0.00  0.00    +0.000 C 
BRANCH   9  10
ATOM     10  N   UNL     1      45.064   2.586  10.848  0.00  0.00    +0.000 NA
ATOM     11  H   UNL     1      44.941   1.657  11.251  0.00  0.00    +0.000 HD
BRANCH  10  12
ATOM     12  C   UNL     1      44.505   2.583   9.491  0.00  0.00    +0.000 C 
BRANCH  12  13
ATOM     13  C   UNL     1      45.582   2.383   8.447  0.00  0.00    +0.000 A 
ATOM     14  C   UNL     1      45.997   3.450   7.654  0.00  0.00    +0.000 A 
ATOM     15  N   UNL     1      46.964   3.341   6.711  0.00  0.00    +0.000 NA
ATOM     16  C   UNL     1      47.511   2.113   6.592  0.00  0.00    +0.000 A 
ATOM     17  C   UNL     1      47.109   1.043   7.374  0.00  0.00    +0.000 A 
ATOM     18  N   UNL     1      46.141   1.149   8.314  0.00  0.00    +0.000 NA
ENDBRANCH  12  13
ENDBRANCH  10  12
ENDBRANCH   9  10
ENDBRANCH   6   9
ENDBRANCH   2   3
BRANCH   2  19
ATOM     19  N   UNL     1      49.506   7.512  12.463  0.00  0.00    +0.000 N 
ATOM     20  C   UNL     1      50.181   8.395  11.663  0.00  0.00    +0.000 C 
ATOM     21  O   UNL     1      49.717   9.484  11.338  0.00  0.00    +0.000 OA
ATOM     22  H   UNL     1      49.877   6.580  12.598  0.00  0.00    +0.000 HD
BRANCH  20  23
ATOM     23  C   UNL     1      51.530   7.989  11.248  0.00  0.00    +0.000 A 
ATOM     24  C   UNL     1      51.711   7.295  10.058  0.00  0.00    +0.000 A 
ATOM     25  S   UNL     1      53.343   6.913   9.734  0.00  0.00    +0.000 S 
ATOM     26  C   UNL     1      53.855   7.622  11.193  0.00  0.00    +0.000 A 
ATOM     27  N   UNL     1      55.165   7.608  11.560  0.00  0.00    +0.000 NA
ATOM     28  C   UNL     1      55.404   8.145  12.710  0.00  0.00    +0.000 A 
ATOM     29  N   UNL     1      54.458   8.708  13.521  0.00  0.00    +0.000 N 
ATOM     30  C   UNL     1      53.137   8.812  13.159  0.00  0.00    +0.000 A 
ATOM     31  O   UNL     1      52.346   9.443  13.849  0.00  0.00    +0.000 OA
ATOM     32  C   UNL     1      52.803   8.175  11.901  0.00  0.00    +0.000 A 
ATOM     33  H   UNL     1      54.710   9.154  14.391  0.00  0.00    +0.000 HD
ENDBRANCH  20  23
ENDBRANCH   2  19
TORSDOF 7
ENDMDL
MODEL 6
REMARK VINA RESULT:    -6.405      2.529      3.530
REMARK INTER + INTRA:         -10.095
REMARK INTER:                  -9.401
REMARK INTRA:                  -0.695
REMARK UNBOUND:                -1.069
REMARK  Name = 
REMARK  8 active torsions:
REMARK  status: ('A' for Active; 'I' for Inactive)
REMARK    1  A    between atoms: C_1  and  C_2
REMARK    2  A    between atoms: C_2  and  N_3
REMARK    3  A    between atoms: C_2  and  C_16
REMARK    4  A    between atoms: C_4  and  C_6
REMARK    5  A    between atoms: C_19  and  C_20
REMARK    6  A    between atoms: C_20  and  N_21
REMARK    7  A    between atoms: N_21  and  C_22
REMARK    8  A    between atoms: C_22  and  C_23
REMARK                            x       y       z     vdW  Elec       q    Type
REMARK                         _______ _______ _______ _____ _____    ______ ____
ROOT
ATOM      1  C   UNL     1      48.644   8.743  11.957  0.00  0.00    +0.000 C 
ATOM      2  C   UNL     1      48.734   7.242  12.252  0.00  0.00    +0.000 C 
ENDROOT
BRANCH   2   3
ATOM      3  C   UNL     1      47.340   6.626  12.257  0.00  0.00    +0.000 A 
ATOM      4  C   UNL     1      47.166   5.390  12.901  0.00  0.00    +0.000 A 
ATOM      5  C   UNL     1      45.943   4.714  12.855  0.00  0.00    +0.000 A 
ATOM      6  C   UNL     1      44.846   5.266  12.183  0.00  0.00    +0.000 A 
ATOM      7  C   UNL     1      44.999   6.517  11.574  0.00  0.00    +0.000 A 
ATOM      8  C   UNL     1      46.233   7.180  11.597  0.00  0.00    +0.000 A 
BRANCH   6   9
ATOM      9  C   UNL     1      43.544   4.503  12.074  0.00  0.00    +0.000 C 
BRANCH   9  10
ATOM     10  N   UNL     1      43.334   3.999  10.718  0.00  0.00    +0.000 NA
ATOM     11  H   UNL     1      43.636   4.715  10.057  0.00  0.00    +0.000 HD
BRANCH  10  12
ATOM     12  C   UNL     1      44.109   2.778  10.468  0.00  0.00    +0.000 C 
BRANCH  12  13
ATOM     13  C   UNL     1      45.018   2.932   9.268  0.00  0.00    +0.000 A 
ATOM     14  C   UNL     1      45.227   4.189   8.704  0.00  0.00    +0.000 A 
ATOM     15  N   UNL     1      46.037   4.397   7.638  0.00  0.00    +0.000 NA
ATOM     16  C   UNL     1      46.642   3.291   7.154  0.00  0.00    +0.000 A 
ATOM     17  C   UNL     1      46.443   2.036   7.705  0.00  0.00    +0.000 A 
ATOM     18  N   UNL     1      45.631   1.825   8.768  0.00  0.00    +0.000 NA
ENDBRANCH  12  13
ENDBRANCH  10  12
ENDBRANCH   9  10
ENDBRANCH   6   9
ENDBRANCH   2   3
BRANCH   2  19
ATOM     19  N   UNL     1      49.478   7.000  13.471  0.00  0.00    +0.000 N 
ATOM     20  C   UNL     1      49.102   7.520  14.682  0.00  0.00    +0.000 C 
ATOM     21  O   UNL     1      48.134   8.262  14.813  0.00  0.00    +0.000 OA
ATOM     22  H   UNL     1      50.353   6.496  13.397  0.00  0.00    +0.000 HD
BRANCH  20  23
ATOM     23  C   UNL     1      49.899   7.096  15.841  0.00  0.00    +0.000 A 
ATOM     24  C   UNL     1      49.281   6.467  16.915  0.00  0.00    +0.000 A 
ATOM     25  S   UNL     1      50.361   6.038  18.165  0.00  0.00    +0.000 S 
ATOM     26  C   UNL     1      51.680   6.716  17.333  0.00  0.00    +0.000 A 
ATOM     27  N   UNL     1      52.927   6.721  17.876  0.00  0.00    +0.000 NA
ATOM     28  C   UNL     1      53.824   7.305  17.152  0.00  0.00    +0.000 A 
ATOM     29  N   UNL     1      53.592   7.873  15.930  0.00  0.00    +0.000 N 
ATOM     30  C   UNL     1      52.368   7.826  15.310  0.00  0.00    +0.000 A 
ATOM     31  O   UNL     1      52.233   8.224  14.160  0.00  0.00    +0.000 OA
ATOM     32  C   UNL     1      51.311   7.230  16.103  0.00  0.00    +0.000 A 
ATOM     33  H   UNL     1      54.343   8.278  15.389  0.00  0.00    +0.000 HD
ENDBRANCH  20  23
ENDBRANCH   2  19
TORSDOF 7
ENDMDL
MODEL 7
REMARK VINA RESULT:    -5.243     10.605     13.910
REMARK INTER + INTRA:          -8.458
REMARK INTER:                  -7.354
REMARK INTRA:                  -1.103
REMARK UNBOUND:                -1.069
REMARK  Name = 
REMARK  8 active torsions:
REMARK  status: ('A' for Active; 'I' for Inactive)
REMARK    1  A    between atoms: C_1  and  C_2
REMARK    2  A    between atoms: C_2  and  N_3
REMARK    3  A    between atoms: C_2  and  C_16
REMARK    4  A    between atoms: C_4  and  C_6
REMARK    5  A    between atoms: C_19  and  C_20
REMARK    6  A    between atoms: C_20  and  N_21
REMARK    7  A    between atoms: N_21  and  C_22
REMARK    8  A    between atoms: C_22  and  C_23
REMARK                            x       y       z     vdW  Elec       q    Type
REMARK                         _______ _______ _______ _____ _____    ______ ____
ROOT
ATOM      1  C   UNL     1      41.834  -5.233  13.493  0.00  0.00    +0.000 C 
ATOM      2  C   UNL     1      41.346  -3.782  13.420  0.00  0.00    +0.000 C 
ENDROOT
BRANCH   2   3
ATOM      3  C   UNL     1      40.915  -3.306  14.802  0.00  0.00    +0.000 A 
ATOM      4  C   UNL     1      39.979  -2.261  14.880  0.00  0.00    +0.000 A 
ATOM      5  C   UNL     1      39.617  -1.701  16.108  0.00  0.00    +0.000 A 
ATOM      6  C   UNL     1      40.163  -2.185  17.303  0.00  0.00    +0.000 A 
ATOM      7  C   UNL     1      41.066  -3.252  17.238  0.00  0.00    +0.000 A 
ATOM      8  C   UNL     1      41.448  -3.795  16.004  0.00  0.00    +0.000 A 
BRANCH   6   9
ATOM      9  C   UNL     1      39.826  -1.532  18.625  0.00  0.00    +0.000 C 
BRANCH   9  10
ATOM     10  N   UNL     1      38.571  -0.787  18.547  0.00  0.00    +0.000 NA
ATOM     11  H   UNL     1      37.817  -1.390  18.877  0.00  0.00    +0.000 HD
BRANCH  10  12
ATOM     12  C   UNL     1      38.603   0.418  19.384  0.00  0.00    +0.000 C 
BRANCH  12  13
ATOM     13  C   UNL     1      38.373   1.670  18.565  0.00  0.00    +0.000 A 
ATOM     14  C   UNL     1      38.147   1.579  17.194  0.00  0.00    +0.000 A 
ATOM     15  N   UNL     1      37.923   2.659  16.407  0.00  0.00    +0.000 NA
ATOM     16  C   UNL     1      37.929   3.846  17.049  0.00  0.00    +0.000 A 
ATOM     17  C   UNL     1      38.152   3.951  18.412  0.00  0.00    +0.000 A 
ATOM     18  N   UNL     1      38.380   2.874  19.199  0.00  0.00    +0.000 NA
ENDBRANCH  12  13
ENDBRANCH  10  12
ENDBRANCH   9  10
ENDBRANCH   6   9
ENDBRANCH   2   3
BRANCH   2  19
ATOM     19  N   UNL     1      40.317  -3.634  12.410  0.00  0.00    +0.000 N 
ATOM     20  C   UNL     1      40.340  -2.636  11.472  0.00  0.00    +0.000 C 
ATOM     21  O   UNL     1      41.209  -1.770  11.447  0.00  0.00    +0.000 OA
ATOM     22  H   UNL     1      39.513  -4.247  12.464  0.00  0.00    +0.000 HD
BRANCH  20  23
ATOM     23  C   UNL     1      39.285  -2.685  10.453  0.00  0.00    +0.000 A 
ATOM     24  C   UNL     1      39.304  -3.679   9.481  0.00  0.00    +0.000 A 
ATOM     25  S   UNL     1      37.997  -3.586   8.387  0.00  0.00    +0.000 S 
ATOM     26  C   UNL     1      37.388  -2.192   9.147  0.00  0.00    +0.000 A 
ATOM     27  N   UNL     1      36.278  -1.562   8.676  0.00  0.00    +0.000 NA
ATOM     28  C   UNL     1      35.953  -0.493   9.326  0.00  0.00    +0.000 A 
ATOM     29  N   UNL     1      36.627  -0.004  10.411  0.00  0.00    +0.000 N 
ATOM     30  C   UNL     1      37.706  -0.646  10.965  0.00  0.00    +0.000 A 
ATOM     31  O   UNL     1      38.198  -0.252  12.016  0.00  0.00    +0.000 OA
ATOM     32  C   UNL     1      38.148  -1.822  10.242  0.00  0.00    +0.000 A 
ATOM     33  H   UNL     1      36.300   0.813  10.906  0.00  0.00    +0.000 HD
ENDBRANCH  20  23
ENDBRANCH   2  19
TORSDOF 7
ENDMDL
