MODEL 1
REMARK VINA RESULT:    -7.389      0.000      0.000
REMARK INTER + INTRA:         -10.291
REMARK INTER:                  -9.765
REMARK INTRA:                  -0.526
REMARK UNBOUND:                -0.526
REMARK  Name = 
REMARK  6 active torsions:
REMARK  status: ('A' for Active; 'I' for Inactive)
REMARK    1  A    between atoms: N_1  and  C_2
REMARK    2  A    between atoms: C_2  and  C_3
REMARK    3  A    between atoms: C_3  and  C_4
REMARK    4  A    between atoms: C_8  and  O_9
REMARK    5  A    between atoms: O_9  and  C_10
REMARK    6  A    between atoms: C_10  and  C_11
REMARK                            x       y       z     vdW  Elec       q    Type
REMARK                         _______ _______ _______ _____ _____    ______ ____
ROOT
ATOM      1  C   UNL     1      46.592   6.113  12.521  0.00  0.00    +0.000 A 
ATOM      2  C   UNL     1      46.744   5.159  13.523  0.00  0.00    +0.000 A 
ATOM      3  N   UNL     1      46.058   3.997  13.572  0.00  0.00    +0.000 NA
ATOM      4  C   UNL     1      45.195   3.765  12.557  0.00  0.00    +0.000 A 
ATOM      5  C   UNL     1      44.993   4.627  11.485  0.00  0.00    +0.000 A 
ATOM      6  C   UNL     1      45.683   5.836  11.493  0.00  0.00    +0.000 A 
ENDROOT
BRANCH   1   7
ATOM      7  C   UNL     1      47.370   7.399  12.570  0.00  0.00    +0.000 C 
BRANCH   7   8
ATOM      8  C   UNL     1      46.563   8.521  13.231  0.00  0.00    +0.000 C 
BRANCH   8   9
ATOM      9  N   UNL     1      47.152   8.902  14.512  0.00  0.00    +0.000 NA
ATOM     10  H   UNL     1      48.137   8.638  14.521  0.00  0.00    +0.000 HD
ATOM     11  H   UNL     1      46.713   8.373  15.265  0.00  0.00    +0.000 HD
ENDBRANCH   8   9
ENDBRANCH   7   8
ENDBRANCH   1   7
BRANCH   5  12
ATOM     12  O   UNL     1      44.179   4.390  10.412  0.00  0.00    +0.000 OA
BRANCH  12  13
ATOM     13  C   UNL     1      44.135   3.024   9.993  0.00  0.00    +0.000 C 
BRANCH  13  14
ATOM     14  C   UNL     1      45.119   2.810   8.872  0.00  0.00    +0.000 A 
ATOM     15  C   UNL     1      45.466   3.872   8.022  0.00  0.00    +0.000 A 
ATOM     16  C   UNL     1      46.390   3.687   6.991  0.00  0.00    +0.000 A 
ATOM     17  C   UNL     1      46.975   2.437   6.801  0.00  0.00    +0.000 A 
ATOM     18 CL   UNL     1      48.115   2.222   5.529  0.00  0.00    +0.000 Cl
ATOM     19  C   UNL     1      46.633   1.377   7.639  0.00  0.00    +0.000 A 
ATOM     20  F   UNL     1      47.185   0.168   7.476  0.00  0.00    +0.000 F 
ATOM     21  C   UNL     1      45.712   1.556   8.670  0.00  0.00    +0.000 A 
ENDBRANCH  13  14
ENDBRANCH  12  13
ENDBRANCH   5  12
TORSDOF 6
ENDMDL
MODEL 2
REMARK VINA RESULT:    -7.258      3.884      6.352
REMARK INTER + INTRA:         -10.117
REMARK INTER:                  -9.583
REMARK INTRA:                  -0.535
REMARK UNBOUND:                -0.526
REMARK  Name = 
REMARK  6 active torsions:
REMARK  status: ('A' for Active; 'I' for Inactive)
REMARK    1  A    between atoms: N_1  and  C_2
REMARK    2  A    between atoms: C_2  and  C_3
REMARK    3  A    between atoms: C_3  and  C_4
REMARK    4  A    between atoms: C_8  and  O_9
REMARK    5  A    between atoms: O_9  and  C_10
REMARK    6  A    between atoms: C_10  and  C_11
REMARK                            x       y       z     vdW  Elec       q    Type
REMARK                         _______ _______ _______ _____ _____    ______ ____
ROOT
ATOM      1  C   UNL     1      45.873   3.165   7.877  0.00  0.00    +0.000 A 
ATOM      2  C   UNL     1      45.672   1.895   8.411  0.00  0.00    +0.000 A 
ATOM      3  N   UNL     1      44.826   1.627   9.428  0.00  0.00    +0.000 NA
ATOM      4  C   UNL     1      44.130   2.675   9.923  0.00  0.00    +0.000 A 
ATOM      5  C   UNL     1      44.221   3.977   9.442  0.00  0.00    +0.000 A 
ATOM      6  C   UNL     1      45.137   4.223   8.423  0.00  0.00    +0.000 A 
ENDROOT
BRANCH   1   7
ATOM      7  C   UNL     1      46.867   3.375   6.769  0.00  0.00    +0.000 C 
BRANCH   7   8
ATOM      8  C   UNL     1      47.979   2.322   6.800  0.00  0.00    +0.000 C 
BRANCH   8   9
ATOM      9  N   UNL     1      48.425   1.993   5.449  0.00  0.00    +0.000 NA
ATOM     10  H   UNL     1      47.611   1.811   4.862  0.00  0.00    +0.000 HD
ATOM     11  H   UNL     1      48.960   1.126   5.464  0.00  0.00    +0.000 HD
ENDBRANCH   8   9
ENDBRANCH   7   8
ENDBRANCH   1   7
BRANCH   5  12
ATOM     12  O   UNL     1      43.482   5.042   9.875  0.00  0.00    +0.000 OA
BRANCH  12  13
ATOM     13  C   UNL     1      43.262   5.075  11.287  0.00  0.00    +0.000 C 
BRANCH  13  14
ATOM     14  C   UNL     1      44.540   5.463  11.986  0.00  0.00    +0.000 A 
ATOM     15  C   UNL     1      45.242   6.612  11.591  0.00  0.00    +0.000 A 
ATOM     16  C   UNL     1      46.418   6.989  12.244  0.00  0.00    +0.000 A 
ATOM     17  C   UNL     1      46.902   6.217  13.299  0.00  0.00    +0.000 A 
ATOM     18 CL   UNL     1      48.351   6.692  14.099  0.00  0.00    +0.000 Cl
ATOM     19  C   UNL     1      46.211   5.072  13.694  0.00  0.00    +0.000 A 
ATOM     20  F   UNL     1      46.658   4.318  14.706  0.00  0.00    +0.000 F 
ATOM     21  C   UNL     1      45.037   4.692  13.046  0.00  0.00    +0.000 A 
ENDBRANCH  13  14
ENDBRANCH  12  13
ENDBRANCH   5  12
TORSDOF 6
ENDMDL
MODEL 3
REMARK VINA RESULT:    -7.100      1.273      2.350
REMARK INTER + INTRA:          -9.909
REMARK INTER:                  -9.574
REMARK INTRA:                  -0.335
REMARK UNBOUND:                -0.526
REMARK  Name = 
REMARK  6 active torsions:
REMARK  status: ('A' for Active; 'I' for Inactive)
REMARK    1  A    between atoms: N_1  and  C_2
REMARK    2  A    between atoms: C_2  and  C_3
REMARK    3  A    between atoms: C_3  and  C_4
REMARK    4  A    between atoms: C_8  and  O_9
REMARK    5  A    between atoms: O_9  and  C_10
REMARK    6  A    between atoms: C_10  and  C_11
REMARK                            x       y       z     vdW  Elec       q    Type
REMARK                         _______ _______ _______ _____ _____    ______ ____
ROOT
ATOM      1  C   UNL     1      45.937   5.673  12.781  0.00  0.00    +0.000 A 
ATOM      2  C   UNL     1      45.569   7.014  12.857  0.00  0.00    +0.000 A 
ATOM      3  N   UNL     1      44.685   7.605  12.026  0.00  0.00    +0.000 NA
ATOM      4  C   UNL     1      44.121   6.813  11.086  0.00  0.00    +0.000 A 
ATOM      5  C   UNL     1      44.383   5.454  10.944  0.00  0.00    +0.000 A 
ATOM      6  C   UNL     1      45.335   4.891  11.788  0.00  0.00    +0.000 A 
ENDROOT
BRANCH   1   7
ATOM      7  C   UNL     1      46.963   5.111  13.725  0.00  0.00    +0.000 C 
BRANCH   7   8
ATOM      8  C   UNL     1      46.899   3.582  13.781  0.00  0.00    +0.000 C 
BRANCH   8   9
ATOM      9  N   UNL     1      47.698   3.067  14.891  0.00  0.00    +0.000 NA
ATOM     10  H   UNL     1      48.682   3.275  14.721  0.00  0.00    +0.000 HD
ATOM     11  H   UNL     1      47.627   2.051  14.925  0.00  0.00    +0.000 HD
ENDBRANCH   8   9
ENDBRANCH   7   8
ENDBRANCH   1   7
BRANCH   5  12
ATOM     12  O   UNL     1      43.780   4.614  10.049  0.00  0.00    +0.000 OA
BRANCH  12  13
ATOM     13  C   UNL     1      44.228   3.258  10.114  0.00  0.00    +0.000 C 
BRANCH  13  14
ATOM     14  C   UNL     1      45.165   2.982   8.966  0.00  0.00    +0.000 A 
ATOM     15  C   UNL     1      45.565   4.023   8.113  0.00  0.00    +0.000 A 
ATOM     16  C   UNL     1      46.446   3.779   7.057  0.00  0.00    +0.000 A 
ATOM     17  C   UNL     1      46.934   2.492   6.845  0.00  0.00    +0.000 A 
ATOM     18 CL   UNL     1      48.023   2.204   5.543  0.00  0.00    +0.000 Cl
ATOM     19  C   UNL     1      46.539   1.453   7.687  0.00  0.00    +0.000 A 
ATOM     20  F   UNL     1      46.999   0.209   7.503  0.00  0.00    +0.000 F 
ATOM     21  C   UNL     1      45.661   1.690   8.743  0.00  0.00    +0.000 A 
ENDBRANCH  13  14
ENDBRANCH  12  13
ENDBRANCH   5  12
TORSDOF 6
ENDMDL
MODEL 4
REMARK VINA RESULT:    -6.640      1.532      1.921
REMARK INTER + INTRA:          -9.302
REMARK INTER:                  -8.748
REMARK INTRA:                  -0.554
REMARK UNBOUND:                -0.526
REMARK  Name = 
REMARK  6 active torsions:
REMARK  status: ('A' for Active; 'I' for Inactive)
REMARK    1  A    between atoms: N_1  and  C_2
REMARK    2  A    between atoms: C_2  and  C_3
REMARK    3  A    between atoms: C_3  and  C_4
REMARK    4  A    between atoms: C_8  and  O_9
REMARK    5  A    between atoms: O_9  and  C_10
REMARK    6  A    between atoms: C_10  and  C_11
REMARK                            x       y       z     vdW  Elec       q    Type
REMARK                         _______ _______ _______ _____ _____    ______ ____
ROOT
ATOM      1  C   UNL     1      46.895   6.247  12.359  0.00  0.00    +0.000 A 
ATOM      2  C   UNL     1      46.809   5.469  13.511  0.00  0.00    +0.000 A 
ATOM      3  N   UNL     1      45.835   4.563  13.742  0.00  0.00    +0.000 NA
ATOM      4  C   UNL     1      44.914   4.409  12.765  0.00  0.00    +0.000 A 
ATOM      5  C   UNL     1      44.924   5.101  11.558  0.00  0.00    +0.000 A 
ATOM      6  C   UNL     1      45.916   6.060  11.376  0.00  0.00    +0.000 A 
ENDROOT
BRANCH   1   7
ATOM      7  C   UNL     1      47.994   7.261  12.206  0.00  0.00    +0.000 C 
BRANCH   7   8
ATOM      8  C   UNL     1      48.928   7.267  13.419  0.00  0.00    +0.000 C 
BRANCH   8   9
ATOM      9  N   UNL     1      50.325   7.371  13.002  0.00  0.00    +0.000 NA
ATOM     10  H   UNL     1      50.411   7.054  12.036  0.00  0.00    +0.000 HD
ATOM     11  H   UNL     1      50.899   6.738  13.557  0.00  0.00    +0.000 HD
ENDBRANCH   8   9
ENDBRANCH   7   8
ENDBRANCH   1   7
BRANCH   5  12
ATOM     12  O   UNL     1      44.047   4.919  10.526  0.00  0.00    +0.000 OA
BRANCH  12  13
ATOM     13  C   UNL     1      43.815   3.551  10.179  0.00  0.00    +0.000 C 
BRANCH  13  14
ATOM     14  C   UNL     1      44.825   3.116   9.149  0.00  0.00    +0.000 A 
ATOM     15  C   UNL     1      45.241   1.777   9.087  0.00  0.00    +0.000 A 
ATOM     16  C   UNL     1      46.164   1.361   8.124  0.00  0.00    +0.000 A 
ATOM     17  C   UNL     1      46.680   2.283   7.215  0.00  0.00    +0.000 A 
ATOM     18 CL   UNL     1      47.814   1.758   6.031  0.00  0.00    +0.000 Cl
ATOM     19  C   UNL     1      46.273   3.615   7.273  0.00  0.00    +0.000 A 
ATOM     20  F   UNL     1      46.755   4.517   6.408  0.00  0.00    +0.000 F 
ATOM     21  C   UNL     1      45.352   4.035   8.231  0.00  0.00    +0.000 A 
ENDBRANCH  13  14
ENDBRANCH  12  13
ENDBRANCH   5  12
TORSDOF 6
ENDMDL
MODEL 5
REMARK VINA RESULT:    -5.756      4.284      6.643
REMARK INTER + INTRA:          -8.132
REMARK INTER:                  -7.574
REMARK INTRA:                  -0.559
REMARK UNBOUND:                -0.526
REMARK  Name = 
REMARK  6 active torsions:
REMARK  status: ('A' for Active; 'I' for Inactive)
REMARK    1  A    between atoms: N_1  and  C_2
REMARK    2  A    between atoms: C_2  and  C_3
REMARK    3  A    between atoms: C_3  and  C_4
REMARK    4  A    between atoms: C_8  and  O_9
REMARK    5  A    between atoms: O_9  and  C_10
REMARK    6  A    between atoms: C_10  and  C_11
REMARK                            x       y       z     vdW  Elec       q    Type
REMARK                         _______ _______ _______ _____ _____    ______ ____
ROOT
ATOM      1  C   UNL     1      44.695   3.560   9.114  0.00  0.00    +0.000 A 
ATOM      2  C   UNL     1      44.159   2.465   9.786  0.00  0.00    +0.000 A 
ATOM      3  N   UNL     1      43.639   2.520  11.030  0.00  0.00    +0.000 NA
ATOM      4  C   UNL     1      43.631   3.735  11.625  0.00  0.00    +0.000 A 
ATOM      5  C   UNL     1      44.102   4.902  11.033  0.00  0.00    +0.000 A 
ATOM      6  C   UNL     1      44.673   4.797   9.769  0.00  0.00    +0.000 A 
ENDROOT
BRANCH   1   7
ATOM      7  C   UNL     1      45.290   3.395   7.743  0.00  0.00    +0.000 C 
BRANCH   7   8
ATOM      8  C   UNL     1      46.628   4.130   7.618  0.00  0.00    +0.000 C 
BRANCH   8   9
ATOM      9  N   UNL     1      47.597   3.326   6.876  0.00  0.00    +0.000 NA
ATOM     10  H   UNL     1      47.150   2.948   6.040  0.00  0.00    +0.000 HD
ATOM     11  H   UNL     1      47.877   2.521   7.434  0.00  0.00    +0.000 HD
ENDBRANCH   8   9
ENDBRANCH   7   8
ENDBRANCH   1   7
BRANCH   5  12
ATOM     12  O   UNL     1      44.047   6.154  11.582  0.00  0.00    +0.000 OA
BRANCH  12  13
ATOM     13  C   UNL     1      44.842   6.321  12.758  0.00  0.00    +0.000 C 
BRANCH  13  14
ATOM     14  C   UNL     1      45.998   7.240  12.456  0.00  0.00    +0.000 A 
ATOM     15  C   UNL     1      47.240   6.712  12.072  0.00  0.00    +0.000 A 
ATOM     16  C   UNL     1      48.312   7.557  11.774  0.00  0.00    +0.000 A 
ATOM     17  C   UNL     1      48.150   8.938  11.859  0.00  0.00    +0.000 A 
ATOM     18 CL   UNL     1      49.477   9.969  11.485  0.00  0.00    +0.000 Cl
ATOM     19  C   UNL     1      46.919   9.469  12.242  0.00  0.00    +0.000 A 
ATOM     20  F   UNL     1      46.741  10.793  12.328  0.00  0.00    +0.000 F 
ATOM     21  C   UNL     1      45.846   8.631  12.540  0.00  0.00    +0.000 A 
ENDBRANCH  13  14
ENDBRANCH  12  13
ENDBRANCH   5  12
TORSDOF 6
ENDMDL
MODEL 6
REMARK VINA RESULT:    -5.664      3.854      6.398
REMARK INTER + INTRA:          -8.011
REMARK INTER:                  -7.460
REMARK INTRA:                  -0.552
REMARK UNBOUND:                -0.526
REMARK  Name = 
REMARK  6 active torsions:
REMARK  status: ('A' for Active; 'I' for Inactive)
REMARK    1  A    between atoms: N_1  and  C_2
REMARK    2  A    between atoms: C_2  and  C_3
REMARK    3  A    between atoms: C_3  and  C_4
REMARK    4  A    between atoms: C_8  and  O_9
REMARK    5  A    between atoms: O_9  and  C_10
REMARK    6  A    between atoms: C_10  and  C_11
REMARK                            x       y       z     vdW  Elec       q    Type
REMARK                         _______ _______ _______ _____ _____    ______ ____
ROOT
ATOM      1  C   UNL     1      44.498   3.993  10.051  0.00  0.00    +0.000 A 
ATOM      2  C   UNL     1      43.735   3.062  10.750  0.00  0.00    +0.000 A 
ATOM      3  N   UNL     1      43.641   3.018  12.096  0.00  0.00    +0.000 NA
ATOM      4  C   UNL     1      44.325   3.965  12.778  0.00  0.00    +0.000 A 
ATOM      5  C   UNL     1      45.084   4.967  12.183  0.00  0.00    +0.000 A 
ATOM      6  C   UNL     1      45.195   4.952  10.796  0.00  0.00    +0.000 A 
ENDROOT
BRANCH   1   7
ATOM      7  C   UNL     1      44.575   3.941   8.550  0.00  0.00    +0.000 C 
BRANCH   7   8
ATOM      8  C   UNL     1      45.905   3.348   8.075  0.00  0.00    +0.000 C 
BRANCH   8   9
ATOM      9  N   UNL     1      46.661   4.324   7.293  0.00  0.00    +0.000 NA
ATOM     10  H   UNL     1      47.541   3.903   6.993  0.00  0.00    +0.000 HD
ATOM     11  H   UNL     1      46.915   5.115   7.883  0.00  0.00    +0.000 HD
ENDBRANCH   8   9
ENDBRANCH   7   8
ENDBRANCH   1   7
BRANCH   5  12
ATOM     12  O   UNL     1      45.730   5.977  12.841  0.00  0.00    +0.000 OA
BRANCH  12  13
ATOM     13  C   UNL     1      45.441   7.286  12.347  0.00  0.00    +0.000 C 
BRANCH  13  14
ATOM     14  C   UNL     1      46.730   8.026  12.099  0.00  0.00    +0.000 A 
ATOM     15  C   UNL     1      46.771   9.426  12.184  0.00  0.00    +0.000 A 
ATOM     16  C   UNL     1      47.965  10.119  11.972  0.00  0.00    +0.000 A 
ATOM     17  C   UNL     1      49.130   9.416  11.673  0.00  0.00    +0.000 A 
ATOM     18 CL   UNL     1      50.597  10.280  11.418  0.00  0.00    +0.000 Cl
ATOM     19  C   UNL     1      49.097   8.025  11.584  0.00  0.00    +0.000 A 
ATOM     20  F   UNL     1      50.205   7.329  11.300  0.00  0.00    +0.000 F 
ATOM     21  C   UNL     1      47.908   7.329  11.795  0.00  0.00    +0.000 A 
ENDBRANCH  13  14
ENDBRANCH  12  13
ENDBRANCH   5  12
TORSDOF 6
ENDMDL
MODEL 7
REMARK VINA RESULT:    -5.637      5.425      7.968
REMARK INTER + INTRA:          -7.975
REMARK INTER:                  -7.620
REMARK INTRA:                  -0.355
REMARK UNBOUND:                -0.526
REMARK  Name = 
REMARK  6 active torsions:
REMARK  status: ('A' for Active; 'I' for Inactive)
REMARK    1  A    between atoms: N_1  and  C_2
REMARK    2  A    between atoms: C_2  and  C_3
REMARK    3  A    between atoms: C_3  and  C_4
REMARK    4  A    between atoms: C_8  and  O_9
REMARK    5  A    between atoms: O_9  and  C_10
REMARK    6  A    between atoms: C_10  and  C_11
REMARK                            x       y       z     vdW  Elec       q    Type
REMARK                         _______ _______ _______ _____ _____    ______ ____
ROOT
ATOM      1  C   UNL     1      44.718   5.094  12.756  0.00  0.00    +0.000 A 
ATOM      2  C   UNL     1      45.318   6.310  12.438  0.00  0.00    +0.000 A 
ATOM      3  N   UNL     1      46.525   6.701  12.899  0.00  0.00    +0.000 NA
ATOM      4  C   UNL     1      47.176   5.827  13.699  0.00  0.00    +0.000 A 
ATOM      5  C   UNL     1      46.690   4.570  14.049  0.00  0.00    +0.000 A 
ATOM      6  C   UNL     1      45.423   4.221  13.592  0.00  0.00    +0.000 A 
ENDROOT
BRANCH   1   7
ATOM      7  C   UNL     1      43.351   4.760  12.227  0.00  0.00    +0.000 C 
BRANCH   7   8
ATOM      8  C   UNL     1      43.415   3.686  11.137  0.00  0.00    +0.000 C 
BRANCH   8   9
ATOM      9  N   UNL     1      43.027   2.380  11.666  0.00  0.00    +0.000 NA
ATOM     10  H   UNL     1      43.412   2.271  12.604  0.00  0.00    +0.000 HD
ATOM     11  H   UNL     1      43.445   1.642  11.103  0.00  0.00    +0.000 HD
ENDBRANCH   8   9
ENDBRANCH   7   8
ENDBRANCH   1   7
BRANCH   5  12
ATOM     12  O   UNL     1      47.353   3.639  14.799  0.00  0.00    +0.000 OA
BRANCH  12  13
ATOM     13  C   UNL     1      47.323   3.881  16.207  0.00  0.00    +0.000 C 
BRANCH  13  14
ATOM     14  C   UNL     1      48.699   3.667  16.784  0.00  0.00    +0.000 A 
ATOM     15  C   UNL     1      49.421   4.747  17.314  0.00  0.00    +0.000 A 
ATOM     16  C   UNL     1      50.689   4.555  17.866  0.00  0.00    +0.000 A 
ATOM     17  C   UNL     1      51.247   3.278  17.892  0.00  0.00    +0.000 A 
ATOM     18 CL   UNL     1      52.809   3.052  18.578  0.00  0.00    +0.000 Cl
ATOM     19  C   UNL     1      50.536   2.200  17.365  0.00  0.00    +0.000 A 
ATOM     20  F   UNL     1      51.052   0.965  17.382  0.00  0.00    +0.000 F 
ATOM     21  C   UNL     1      49.270   2.387  16.813  0.00  0.00    +0.000 A 
ENDBRANCH  13  14
ENDBRANCH  12  13
ENDBRANCH   5  12
TORSDOF 6
ENDMDL
MODEL 8
REMARK VINA RESULT:    -5.354      5.217      7.391
REMARK INTER + INTRA:          -7.602
REMARK INTER:                  -7.066
REMARK INTRA:                  -0.536
REMARK UNBOUND:                -0.526
REMARK  Name = 
REMARK  6 active torsions:
REMARK  status: ('A' for Active; 'I' for Inactive)
REMARK    1  A    between atoms: N_1  and  C_2
REMARK    2  A    between atoms: C_2  and  C_3
REMARK    3  A    between atoms: C_3  and  C_4
REMARK    4  A    between atoms: C_8  and  O_9
REMARK    5  A    between atoms: O_9  and  C_10
REMARK    6  A    between atoms: C_10  and  C_11
REMARK                            x       y       z     vdW  Elec       q    Type
REMARK                         _______ _______ _______ _____ _____    ______ ____
ROOT
ATOM      1  C   UNL     1      46.797   6.345  12.639  0.00  0.00    +0.000 A 
ATOM      2  C   UNL     1      45.758   5.917  11.816  0.00  0.00    +0.000 A 
ATOM      3  N   UNL     1      45.218   4.680  11.860  0.00  0.00    +0.000 NA
ATOM      4  C   UNL     1      45.724   3.835  12.787  0.00  0.00    +0.000 A 
ATOM      5  C   UNL     1      46.733   4.168  13.686  0.00  0.00    +0.000 A 
ATOM      6  C   UNL     1      47.296   5.436  13.579  0.00  0.00    +0.000 A 
ENDROOT
BRANCH   1   7
ATOM      7  C   UNL     1      47.363   7.729  12.491  0.00  0.00    +0.000 C 
BRANCH   7   8
ATOM      8  C   UNL     1      48.048   8.199  13.778  0.00  0.00    +0.000 C 
BRANCH   8   9
ATOM      9  N   UNL     1      47.107   8.911  14.640  0.00  0.00    +0.000 NA
ATOM     10  H   UNL     1      47.581   9.703  15.072  0.00  0.00    +0.000 HD
ATOM     11  H   UNL     1      46.816   8.305  15.406  0.00  0.00    +0.000 HD
ENDBRANCH   8   9
ENDBRANCH   7   8
ENDBRANCH   1   7
BRANCH   5  12
ATOM     12  O   UNL     1      47.218   3.360  14.676  0.00  0.00    +0.000 OA
BRANCH  12  13
ATOM     13  C   UNL     1      47.222   3.953  15.976  0.00  0.00    +0.000 C 
BRANCH  13  14
ATOM     14  C   UNL     1      48.580   3.776  16.605  0.00  0.00    +0.000 A 
ATOM     15  C   UNL     1      49.318   4.895  17.023  0.00  0.00    +0.000 A 
ATOM     16  C   UNL     1      50.570   4.740  17.622  0.00  0.00    +0.000 A 
ATOM     17  C   UNL     1      51.095   3.462  17.808  0.00  0.00    +0.000 A 
ATOM     18 CL   UNL     1      52.638   3.283  18.552  0.00  0.00    +0.000 Cl
ATOM     19  C   UNL     1      50.369   2.347  17.394  0.00  0.00    +0.000 A 
ATOM     20  F   UNL     1      50.854   1.111  17.565  0.00  0.00    +0.000 F 
ATOM     21  C   UNL     1      49.119   2.496  16.796  0.00  0.00    +0.000 A 
ENDBRANCH  13  14
ENDBRANCH  12  13
ENDBRANCH   5  12
TORSDOF 6
ENDMDL
MODEL 9
REMARK VINA RESULT:    -5.232      5.703      8.259
REMARK INTER + INTRA:          -7.441
REMARK INTER:                  -6.945
REMARK INTRA:                  -0.495
REMARK UNBOUND:                -0.526
REMARK  Name = 
REMARK  6 active torsions:
REMARK  status: ('A' for Active; 'I' for Inactive)
REMARK    1  A    between atoms: N_1  and  C_2
REMARK    2  A    between atoms: C_2  and  C_3
REMARK    3  A    between atoms: C_3  and  C_4
REMARK    4  A    between atoms: C_8  and  O_9
REMARK    5  A    between atoms: O_9  and  C_10
REMARK    6  A    between atoms: C_10  and  C_11
REMARK                            x       y       z     vdW  Elec       q    Type
REMARK                         _______ _______ _______ _____ _____    ______ ____
ROOT
ATOM      1  C   UNL     1      44.401   5.418  12.365  0.00  0.00    +0.000 A 
ATOM      2  C   UNL     1      44.609   6.657  11.764  0.00  0.00    +0.000 A 
ATOM      3  N   UNL     1      45.724   7.399  11.927  0.00  0.00    +0.000 NA
ATOM      4  C   UNL     1      46.690   6.870  12.711  0.00  0.00    +0.000 A 
ATOM      5  C   UNL     1      46.607   5.625  13.328  0.00  0.00    +0.000 A 
ATOM      6  C   UNL     1      45.423   4.910  13.174  0.00  0.00    +0.000 A 
ENDROOT
BRANCH   1   7
ATOM      7  C   UNL     1      43.108   4.680  12.157  0.00  0.00    +0.000 C 
BRANCH   7   8
ATOM      8  C   UNL     1      43.344   3.185  11.922  0.00  0.00    +0.000 C 
BRANCH   8   9
ATOM      9  N   UNL     1      43.719   2.927  10.534  0.00  0.00    +0.000 NA
ATOM     10  H   UNL     1      44.498   3.535  10.279  0.00  0.00    +0.000 HD
ATOM     11  H   UNL     1      42.950   3.183   9.916  0.00  0.00    +0.000 HD
ENDBRANCH   8   9
ENDBRANCH   7   8
ENDBRANCH   1   7
BRANCH   5  12
ATOM     12  O   UNL     1      47.592   5.035  14.070  0.00  0.00    +0.000 OA
BRANCH  12  13
ATOM     13  C   UNL     1      47.135   4.000  14.944  0.00  0.00    +0.000 C 
BRANCH  13  14
ATOM     14  C   UNL     1      47.724   4.205  16.316  0.00  0.00    +0.000 A 
ATOM     15  C   UNL     1      47.693   3.169  17.262  0.00  0.00    +0.000 A 
ATOM     16  C   UNL     1      48.252   3.344  18.530  0.00  0.00    +0.000 A 
ATOM     17  C   UNL     1      48.847   4.559  18.863  0.00  0.00    +0.000 A 
ATOM     18 CL   UNL     1      49.536   4.762  20.428  0.00  0.00    +0.000 Cl
ATOM     19  C   UNL     1      48.879   5.594  17.929  0.00  0.00    +0.000 A 
ATOM     20  F   UNL     1      49.448   6.769  18.228  0.00  0.00    +0.000 F 
ATOM     21  C   UNL     1      48.323   5.424  16.662  0.00  0.00    +0.000 A 
ENDBRANCH  13  14
ENDBRANCH  12  13
ENDBRANCH   5  12
TORSDOF 6
ENDMDL
