MODEL 1
REMARK VINA RESULT:    -7.380      0.000      0.000
REMARK INTER + INTRA:          -9.772
REMARK INTER:                  -9.105
REMARK INTRA:                  -0.667
REMARK UNBOUND:                -0.667
REMARK  Name = 
REMARK  4 active torsions:
REMARK  status: ('A' for Active; 'I' for Inactive)
REMARK    1  A    between atoms: C_2  and  C_3
REMARK    2  A    between atoms: N_7  and  C_8
REMARK    3  A    between atoms: C_8  and  C_9
REMARK    4  A    between atoms: C_9  and  C_11
REMARK                            x       y       z     vdW  Elec       q    Type
REMARK                         _______ _______ _______ _____ _____    ______ ____
ROOT
ATOM      1  C   UNL     1      46.481   2.658   7.726  0.00  0.00    +0.000 A 
ATOM      2  C   UNL     1      46.383   4.045   7.690  0.00  0.00    +0.000 A 
ATOM      3  C   UNL     1      45.425   4.674   8.487  0.00  0.00    +0.000 A 
ATOM      4  C   UNL     1      44.606   3.915   9.326  0.00  0.00    +0.000 A 
ATOM      5  N   UNL     1      43.695   4.596  10.132  0.00  0.00    +0.000 N 
ATOM      6  N   UNL     1      44.713   2.573   9.382  0.00  0.00    +0.000 NA
ATOM      7  C   UNL     1      45.631   1.976   8.582  0.00  0.00    +0.000 A 
ATOM      8  H   UNL     1      42.960   5.047   9.588  0.00  0.00    +0.000 HD
ENDROOT
BRANCH   1  10
ATOM      9  N   UNL     1      48.171   1.398   6.220  0.00  0.00    +0.000 NA
ATOM     10  C   UNL     1      47.406   1.959   6.897  0.00  0.00    +0.000 C 
ENDBRANCH   1  10
BRANCH   5  11
ATOM     11  C   UNL     1      43.219   3.900  11.339  0.00  0.00    +0.000 C 
BRANCH  11  12
ATOM     12  C   UNL     1      43.248   4.854  12.547  0.00  0.00    +0.000 C 
ATOM     13  F   UNL     1      42.896   4.134  13.665  0.00  0.00    +0.000 F 
BRANCH  12  14
ATOM     14  C   UNL     1      44.597   5.532  12.690  0.00  0.00    +0.000 A 
ATOM     15  C   UNL     1      45.617   4.912  13.407  0.00  0.00    +0.000 A 
ATOM     16  C   UNL     1      46.845   5.555  13.535  0.00  0.00    +0.000 A 
ATOM     17  C   UNL     1      47.027   6.802  12.946  0.00  0.00    +0.000 A 
ATOM     18  C   UNL     1      45.967   7.353  12.252  0.00  0.00    +0.000 A 
ATOM     19  N   UNL     1      44.762   6.756  12.118  0.00  0.00    +0.000 NA
ENDBRANCH  12  14
ENDBRANCH  11  12
ENDBRANCH   5  11
TORSDOF 4
ENDMDL
MODEL 2
REMARK VINA RESULT:    -6.552      1.967      6.229
REMARK INTER + INTRA:          -8.751
REMARK INTER:                  -8.383
REMARK INTRA:                  -0.368
REMARK UNBOUND:                -0.667
REMARK  Name = 
REMARK  4 active torsions:
REMARK  status: ('A' for Active; 'I' for Inactive)
REMARK    1  A    between atoms: C_2  and  C_3
REMARK    2  A    between atoms: N_7  and  C_8
REMARK    3  A    between atoms: C_8  and  C_9
REMARK    4  A    between atoms: C_9  and  C_11
REMARK                            x       y       z     vdW  Elec       q    Type
REMARK                         _______ _______ _______ _____ _____    ______ ____
ROOT
ATOM      1  C   UNL     1      46.528   6.376  12.759  0.00  0.00    +0.000 A 
ATOM      2  C   UNL     1      45.679   5.523  13.456  0.00  0.00    +0.000 A 
ATOM      3  C   UNL     1      44.780   4.732  12.740  0.00  0.00    +0.000 A 
ATOM      4  C   UNL     1      44.765   4.781  11.343  0.00  0.00    +0.000 A 
ATOM      5  N   UNL     1      43.878   3.939  10.675  0.00  0.00    +0.000 N 
ATOM      6  N   UNL     1      45.602   5.588  10.662  0.00  0.00    +0.000 NA
ATOM      7  C   UNL     1      46.451   6.369  11.375  0.00  0.00    +0.000 A 
ATOM      8  H   UNL     1      42.905   4.198  10.835  0.00  0.00    +0.000 HD
ENDROOT
BRANCH   1  10
ATOM      9  N   UNL     1      48.159   7.962  13.997  0.00  0.00    +0.000 NA
ATOM     10  C   UNL     1      47.430   7.244  13.441  0.00  0.00    +0.000 C 
ENDBRANCH   1  10
BRANCH   5  11
ATOM     11  C   UNL     1      44.197   3.606   9.277  0.00  0.00    +0.000 C 
BRANCH  11  12
ATOM     12  C   UNL     1      45.073   2.341   9.219  0.00  0.00    +0.000 C 
ATOM     13  F   UNL     1      44.241   1.246   9.239  0.00  0.00    +0.000 F 
BRANCH  12  14
ATOM     14  C   UNL     1      45.993   2.354   8.014  0.00  0.00    +0.000 A 
ATOM     15  C   UNL     1      45.986   3.440   7.142  0.00  0.00    +0.000 A 
ATOM     16  C   UNL     1      46.830   3.429   6.036  0.00  0.00    +0.000 A 
ATOM     17  C   UNL     1      47.662   2.335   5.824  0.00  0.00    +0.000 A 
ATOM     18  C   UNL     1      47.611   1.294   6.731  0.00  0.00    +0.000 A 
ATOM     19  N   UNL     1      46.795   1.274   7.810  0.00  0.00    +0.000 NA
ENDBRANCH  12  14
ENDBRANCH  11  12
ENDBRANCH   5  11
TORSDOF 4
ENDMDL
MODEL 3
REMARK VINA RESULT:    -6.220      1.548      2.089
REMARK INTER + INTRA:          -8.341
REMARK INTER:                  -7.957
REMARK INTRA:                  -0.385
REMARK UNBOUND:                -0.667
REMARK  Name = 
REMARK  4 active torsions:
REMARK  status: ('A' for Active; 'I' for Inactive)
REMARK    1  A    between atoms: C_2  and  C_3
REMARK    2  A    between atoms: N_7  and  C_8
REMARK    3  A    between atoms: C_8  and  C_9
REMARK    4  A    between atoms: C_9  and  C_11
REMARK                            x       y       z     vdW  Elec       q    Type
REMARK                         _______ _______ _______ _____ _____    ______ ____
ROOT
ATOM      1  C   UNL     1      46.720   2.608   7.234  0.00  0.00    +0.000 A 
ATOM      2  C   UNL     1      46.236   1.652   8.122  0.00  0.00    +0.000 A 
ATOM      3  C   UNL     1      45.466   2.070   9.208  0.00  0.00    +0.000 A 
ATOM      4  C   UNL     1      45.165   3.424   9.373  0.00  0.00    +0.000 A 
ATOM      5  N   UNL     1      44.357   3.782  10.450  0.00  0.00    +0.000 N 
ATOM      6  N   UNL     1      45.612   4.351   8.502  0.00  0.00    +0.000 NA
ATOM      7  C   UNL     1      46.380   3.931   7.467  0.00  0.00    +0.000 A 
ATOM      8  H   UNL     1      44.819   3.631  11.346  0.00  0.00    +0.000 HD
ENDROOT
BRANCH   1  10
ATOM      9  N   UNL     1      48.225   1.938   5.235  0.00  0.00    +0.000 NA
ATOM     10  C   UNL     1      47.553   2.244   6.136  0.00  0.00    +0.000 C 
ENDBRANCH   1  10
BRANCH   5  11
ATOM     11  C   UNL     1      43.633   5.060  10.347  0.00  0.00    +0.000 C 
BRANCH  11  12
ATOM     12  C   UNL     1      44.505   6.209  10.886  0.00  0.00    +0.000 C 
ATOM     13  F   UNL     1      43.673   7.246  11.237  0.00  0.00    +0.000 F 
BRANCH  12  14
ATOM     14  C   UNL     1      45.383   5.751  12.035  0.00  0.00    +0.000 A 
ATOM     15  C   UNL     1      46.737   6.080  12.053  0.00  0.00    +0.000 A 
ATOM     16  C   UNL     1      47.528   5.642  13.111  0.00  0.00    +0.000 A 
ATOM     17  C   UNL     1      46.953   4.886  14.126  0.00  0.00    +0.000 A 
ATOM     18  C   UNL     1      45.604   4.598  14.037  0.00  0.00    +0.000 A 
ATOM     19  N   UNL     1      44.813   5.002  13.018  0.00  0.00    +0.000 NA
ENDBRANCH  12  14
ENDBRANCH  11  12
ENDBRANCH   5  11
TORSDOF 4
ENDMDL
MODEL 4
REMARK VINA RESULT:    -6.153      2.501      6.222
REMARK INTER + INTRA:          -8.259
REMARK INTER:                  -7.733
REMARK INTRA:                  -0.526
REMARK UNBOUND:                -0.667
REMARK  Name = 
REMARK  4 active torsions:
REMARK  status: ('A' for Active; 'I' for Inactive)
REMARK    1  A    between atoms: C_2  and  C_3
REMARK    2  A    between atoms: N_7  and  C_8
REMARK    3  A    between atoms: C_8  and  C_9
REMARK    4  A    between atoms: C_9  and  C_11
REMARK                            x       y       z     vdW  Elec       q    Type
REMARK                         _______ _______ _______ _____ _____    ______ ____
ROOT
ATOM      1  C   UNL     1      47.887   5.430  15.262  0.00  0.00    +0.000 A 
ATOM      2  C   UNL     1      47.933   6.391  14.259  0.00  0.00    +0.000 A 
ATOM      3  C   UNL     1      47.201   6.181  13.089  0.00  0.00    +0.000 A 
ATOM      4  C   UNL     1      46.412   5.036  12.954  0.00  0.00    +0.000 A 
ATOM      5  N   UNL     1      45.668   4.896  11.785  0.00  0.00    +0.000 N 
ATOM      6  N   UNL     1      46.345   4.113  13.934  0.00  0.00    +0.000 NA
ATOM      7  C   UNL     1      47.083   4.321  15.053  0.00  0.00    +0.000 A 
ATOM      8  H   UNL     1      46.259   4.757  10.965  0.00  0.00    +0.000 HD
ENDROOT
BRANCH   1  10
ATOM      9  N   UNL     1      49.275   5.668  17.436  0.00  0.00    +0.000 NA
ATOM     10  C   UNL     1      48.653   5.567  16.456  0.00  0.00    +0.000 C 
ENDBRANCH   1  10
BRANCH   5  11
ATOM     11  C   UNL     1      44.491   4.013  11.842  0.00  0.00    +0.000 C 
BRANCH  11  12
ATOM     12  C   UNL     1      43.815   3.940  10.461  0.00  0.00    +0.000 C 
ATOM     13  F   UNL     1      43.264   5.171  10.191  0.00  0.00    +0.000 F 
BRANCH  12  14
ATOM     14  C   UNL     1      44.786   3.487   9.388  0.00  0.00    +0.000 A 
ATOM     15  C   UNL     1      45.110   2.139   9.263  0.00  0.00    +0.000 A 
ATOM     16  C   UNL     1      46.011   1.744   8.279  0.00  0.00    +0.000 A 
ATOM     17  C   UNL     1      46.569   2.703   7.441  0.00  0.00    +0.000 A 
ATOM     18  C   UNL     1      46.200   4.022   7.627  0.00  0.00    +0.000 A 
ATOM     19  N   UNL     1      45.334   4.435   8.579  0.00  0.00    +0.000 NA
ENDBRANCH  12  14
ENDBRANCH  11  12
ENDBRANCH   5  11
TORSDOF 4
ENDMDL
MODEL 5
REMARK VINA RESULT:    -5.996      2.122      6.119
REMARK INTER + INTRA:          -8.065
REMARK INTER:                  -7.477
REMARK INTRA:                  -0.588
REMARK UNBOUND:                -0.667
REMARK  Name = 
REMARK  4 active torsions:
REMARK  status: ('A' for Active; 'I' for Inactive)
REMARK    1  A    between atoms: C_2  and  C_3
REMARK    2  A    between atoms: N_7  and  C_8
REMARK    3  A    between atoms: C_8  and  C_9
REMARK    4  A    between atoms: C_9  and  C_11
REMARK                            x       y       z     vdW  Elec       q    Type
REMARK                         _______ _______ _______ _____ _____    ______ ____
ROOT
ATOM      1  C   UNL     1      44.994   7.706  11.788  0.00  0.00    +0.000 A 
ATOM      2  C   UNL     1      46.145   6.984  12.087  0.00  0.00    +0.000 A 
ATOM      3  C   UNL     1      46.150   5.606  11.872  0.00  0.00    +0.000 A 
ATOM      4  C   UNL     1      45.024   4.977  11.335  0.00  0.00    +0.000 A 
ATOM      5  N   UNL     1      45.097   3.605  11.101  0.00  0.00    +0.000 N 
ATOM      6  N   UNL     1      43.915   5.676  11.022  0.00  0.00    +0.000 NA
ATOM      7  C   UNL     1      43.918   7.011  11.261  0.00  0.00    +0.000 A 
ATOM      8  H   UNL     1      45.159   3.069  11.965  0.00  0.00    +0.000 HD
ENDROOT
BRANCH   1  10
ATOM      9  N   UNL     1      44.837  10.254  12.231  0.00  0.00    +0.000 NA
ATOM     10  C   UNL     1      44.914   9.108  12.035  0.00  0.00    +0.000 C 
ENDBRANCH   1  10
BRANCH   5  11
ATOM     11  C   UNL     1      44.170   3.047  10.103  0.00  0.00    +0.000 C 
BRANCH  11  12
ATOM     12  C   UNL     1      44.783   1.793   9.452  0.00  0.00    +0.000 C 
ATOM     13  F   UNL     1      43.755   1.027   8.953  0.00  0.00    +0.000 F 
BRANCH  12  14
ATOM     14  C   UNL     1      45.807   2.157   8.395  0.00  0.00    +0.000 A 
ATOM     15  C   UNL     1      46.638   1.175   7.861  0.00  0.00    +0.000 A 
ATOM     16  C   UNL     1      47.578   1.530   6.899  0.00  0.00    +0.000 A 
ATOM     17  C   UNL     1      47.670   2.857   6.492  0.00  0.00    +0.000 A 
ATOM     18  C   UNL     1      46.813   3.774   7.069  0.00  0.00    +0.000 A 
ATOM     19  N   UNL     1      45.896   3.459   8.011  0.00  0.00    +0.000 NA
ENDBRANCH  12  14
ENDBRANCH  11  12
ENDBRANCH   5  11
TORSDOF 4
ENDMDL
MODEL 6
REMARK VINA RESULT:    -5.643      1.877      5.411
REMARK INTER + INTRA:          -7.629
REMARK INTER:                  -7.324
REMARK INTRA:                  -0.305
REMARK UNBOUND:                -0.667
REMARK  Name = 
REMARK  4 active torsions:
REMARK  status: ('A' for Active; 'I' for Inactive)
REMARK    1  A    between atoms: C_2  and  C_3
REMARK    2  A    between atoms: N_7  and  C_8
REMARK    3  A    between atoms: C_8  and  C_9
REMARK    4  A    between atoms: C_9  and  C_11
REMARK                            x       y       z     vdW  Elec       q    Type
REMARK                         _______ _______ _______ _____ _____    ______ ____
ROOT
ATOM      1  C   UNL     1      47.943   7.182  12.493  0.00  0.00    +0.000 A 
ATOM      2  C   UNL     1      48.160   6.177  13.430  0.00  0.00    +0.000 A 
ATOM      3  C   UNL     1      47.115   5.305  13.737  0.00  0.00    +0.000 A 
ATOM      4  C   UNL     1      45.886   5.428  13.084  0.00  0.00    +0.000 A 
ATOM      5  N   UNL     1      44.891   4.504  13.397  0.00  0.00    +0.000 N 
ATOM      6  N   UNL     1      45.679   6.384  12.158  0.00  0.00    +0.000 NA
ATOM      7  C   UNL     1      46.697   7.240  11.890  0.00  0.00    +0.000 A 
ATOM      8  H   UNL     1      44.552   4.610  14.353  0.00  0.00    +0.000 HD
ENDROOT
BRANCH   1  10
ATOM      9  N   UNL     1      49.796   8.899  11.920  0.00  0.00    +0.000 NA
ATOM     10  C   UNL     1      48.958   8.132  12.178  0.00  0.00    +0.000 C 
ENDBRANCH   1  10
BRANCH   5  11
ATOM     11  C   UNL     1      43.831   4.299  12.396  0.00  0.00    +0.000 C 
BRANCH  11  12
ATOM     12  C   UNL     1      44.056   2.971  11.649  0.00  0.00    +0.000 C 
ATOM     13  F   UNL     1      42.849   2.317  11.571  0.00  0.00    +0.000 F 
BRANCH  12  14
ATOM     14  C   UNL     1      44.687   3.196  10.289  0.00  0.00    +0.000 A 
ATOM     15  C   UNL     1      44.961   2.112   9.458  0.00  0.00    +0.000 A 
ATOM     16  C   UNL     1      45.549   2.338   8.218  0.00  0.00    +0.000 A 
ATOM     17  C   UNL     1      45.851   3.640   7.833  0.00  0.00    +0.000 A 
ATOM     18  C   UNL     1      45.551   4.663   8.711  0.00  0.00    +0.000 A 
ATOM     19  N   UNL     1      44.988   4.473   9.926  0.00  0.00    +0.000 NA
ENDBRANCH  12  14
ENDBRANCH  11  12
ENDBRANCH   5  11
TORSDOF 4
ENDMDL
MODEL 7
REMARK VINA RESULT:    -5.586      4.355      5.844
REMARK INTER + INTRA:          -7.559
REMARK INTER:                  -7.084
REMARK INTRA:                  -0.475
REMARK UNBOUND:                -0.667
REMARK  Name = 
REMARK  4 active torsions:
REMARK  status: ('A' for Active; 'I' for Inactive)
REMARK    1  A    between atoms: C_2  and  C_3
REMARK    2  A    between atoms: N_7  and  C_8
REMARK    3  A    between atoms: C_8  and  C_9
REMARK    4  A    between atoms: C_9  and  C_11
REMARK                            x       y       z     vdW  Elec       q    Type
REMARK                         _______ _______ _______ _____ _____    ______ ____
ROOT
ATOM      1  C   UNL     1      45.271   4.592  11.244  0.00  0.00    +0.000 A 
ATOM      2  C   UNL     1      45.855   5.789  11.642  0.00  0.00    +0.000 A 
ATOM      3  C   UNL     1      46.395   5.882  12.925  0.00  0.00    +0.000 A 
ATOM      4  C   UNL     1      46.372   4.774  13.776  0.00  0.00    +0.000 A 
ATOM      5  N   UNL     1      46.963   4.908  15.031  0.00  0.00    +0.000 N 
ATOM      6  N   UNL     1      45.829   3.604  13.386  0.00  0.00    +0.000 NA
ATOM      7  C   UNL     1      45.286   3.539  12.145  0.00  0.00    +0.000 A 
ATOM      8  H   UNL     1      46.453   5.556  15.630  0.00  0.00    +0.000 HD
ENDROOT
BRANCH   1  10
ATOM      9  N   UNL     1      44.152   4.354   8.920  0.00  0.00    +0.000 NA
ATOM     10  C   UNL     1      44.660   4.455   9.963  0.00  0.00    +0.000 C 
ENDBRANCH   1  10
BRANCH   5  11
ATOM     11  C   UNL     1      47.396   3.671  15.701  0.00  0.00    +0.000 C 
BRANCH  11  12
ATOM     12  C   UNL     1      47.297   3.834  17.229  0.00  0.00    +0.000 C 
ATOM     13  F   UNL     1      46.871   2.637  17.758  0.00  0.00    +0.000 F 
BRANCH  12  14
ATOM     14  C   UNL     1      48.610   4.301  17.827  0.00  0.00    +0.000 A 
ATOM     15  C   UNL     1      48.754   4.396  19.209  0.00  0.00    +0.000 A 
ATOM     16  C   UNL     1      49.963   4.837  19.737  0.00  0.00    +0.000 A 
ATOM     17  C   UNL     1      51.003   5.172  18.877  0.00  0.00    +0.000 A 
ATOM     18  C   UNL     1      50.784   5.053  17.517  0.00  0.00    +0.000 A 
ATOM     19  N   UNL     1      49.618   4.636  16.975  0.00  0.00    +0.000 NA
ENDBRANCH  12  14
ENDBRANCH  11  12
ENDBRANCH   5  11
TORSDOF 4
ENDMDL
MODEL 8
REMARK VINA RESULT:    -5.487      4.174      7.606
REMARK INTER + INTRA:          -7.436
REMARK INTER:                  -7.163
REMARK INTRA:                  -0.274
REMARK UNBOUND:                -0.667
REMARK  Name = 
REMARK  4 active torsions:
REMARK  status: ('A' for Active; 'I' for Inactive)
REMARK    1  A    between atoms: C_2  and  C_3
REMARK    2  A    between atoms: N_7  and  C_8
REMARK    3  A    between atoms: C_8  and  C_9
REMARK    4  A    between atoms: C_9  and  C_11
REMARK                            x       y       z     vdW  Elec       q    Type
REMARK                         _______ _______ _______ _____ _____    ______ ____
ROOT
ATOM      1  C   UNL     1      49.334   4.489  17.922  0.00  0.00    +0.000 A 
ATOM      2  C   UNL     1      48.496   3.379  17.914  0.00  0.00    +0.000 A 
ATOM      3  C   UNL     1      47.538   3.265  16.906  0.00  0.00    +0.000 A 
ATOM      4  C   UNL     1      47.452   4.240  15.908  0.00  0.00    +0.000 A 
ATOM      5  N   UNL     1      46.507   4.055  14.901  0.00  0.00    +0.000 N 
ATOM      6  N   UNL     1      48.278   5.304  15.898  0.00  0.00    +0.000 NA
ATOM      7  C   UNL     1      49.186   5.413  16.899  0.00  0.00    +0.000 A 
ATOM      8  H   UNL     1      45.551   4.128  15.251  0.00  0.00    +0.000 HD
ENDROOT
BRANCH   1  10
ATOM      9  N   UNL     1      51.093   4.842  19.790  0.00  0.00    +0.000 NA
ATOM     10  C   UNL     1      50.296   4.683  18.955  0.00  0.00    +0.000 C 
ENDBRANCH   1  10
BRANCH   5  11
ATOM     11  C   UNL     1      46.743   4.753  13.626  0.00  0.00    +0.000 C 
BRANCH  11  12
ATOM     12  C   UNL     1      45.409   5.248  13.038  0.00  0.00    +0.000 C 
ATOM     13  F   UNL     1      45.421   6.623  13.056  0.00  0.00    +0.000 F 
BRANCH  12  14
ATOM     14  C   UNL     1      45.167   4.684  11.652  0.00  0.00    +0.000 A 
ATOM     15  C   UNL     1      45.565   5.403  10.527  0.00  0.00    +0.000 A 
ATOM     16  C   UNL     1      45.325   4.873   9.262  0.00  0.00    +0.000 A 
ATOM     17  C   UNL     1      44.693   3.640   9.148  0.00  0.00    +0.000 A 
ATOM     18  C   UNL     1      44.326   2.988  10.309  0.00  0.00    +0.000 A 
ATOM     19  N   UNL     1      44.538   3.482  11.550  0.00  0.00    +0.000 NA
ENDBRANCH  12  14
ENDBRANCH  11  12
ENDBRANCH   5  11
TORSDOF 4
ENDMDL
MODEL 9
REMARK VINA RESULT:    -5.478      4.440      7.754
REMARK INTER + INTRA:          -7.425
REMARK INTER:                  -6.900
REMARK INTRA:                  -0.525
REMARK UNBOUND:                -0.667
REMARK  Name = 
REMARK  4 active torsions:
REMARK  status: ('A' for Active; 'I' for Inactive)
REMARK    1  A    between atoms: C_2  and  C_3
REMARK    2  A    between atoms: N_7  and  C_8
REMARK    3  A    between atoms: C_8  and  C_9
REMARK    4  A    between atoms: C_9  and  C_11
REMARK                            x       y       z     vdW  Elec       q    Type
REMARK                         _______ _______ _______ _____ _____    ______ ____
ROOT
ATOM      1  C   UNL     1      49.884   4.480  18.073  0.00  0.00    +0.000 A 
ATOM      2  C   UNL     1      48.917   3.481  18.121  0.00  0.00    +0.000 A 
ATOM      3  C   UNL     1      47.855   3.527  17.219  0.00  0.00    +0.000 A 
ATOM      4  C   UNL     1      47.791   4.546  16.265  0.00  0.00    +0.000 A 
ATOM      5  N   UNL     1      46.731   4.521  15.360  0.00  0.00    +0.000 N 
ATOM      6  N   UNL     1      48.738   5.502  16.198  0.00  0.00    +0.000 NA
ATOM      7  C   UNL     1      49.750   5.457  17.099  0.00  0.00    +0.000 A 
ATOM      8  H   UNL     1      45.834   4.695  15.811  0.00  0.00    +0.000 HD
ENDROOT
BRANCH   1  10
ATOM      9  N   UNL     1      51.852   4.548  19.756  0.00  0.00    +0.000 NA
ATOM     10  C   UNL     1      50.964   4.511  19.003  0.00  0.00    +0.000 C 
ENDBRANCH   1  10
BRANCH   5  11
ATOM     11  C   UNL     1      46.921   5.238  14.088  0.00  0.00    +0.000 C 
BRANCH  11  12
ATOM     12  C   UNL     1      46.497   4.345  12.907  0.00  0.00    +0.000 C 
ATOM     13  F   UNL     1      46.653   3.033  13.289  0.00  0.00    +0.000 F 
BRANCH  12  14
ATOM     14  C   UNL     1      45.084   4.656  12.452  0.00  0.00    +0.000 A 
ATOM     15  C   UNL     1      44.772   4.653  11.095  0.00  0.00    +0.000 A 
ATOM     16  C   UNL     1      43.472   4.951  10.696  0.00  0.00    +0.000 A 
ATOM     17  C   UNL     1      42.514   5.246  11.659  0.00  0.00    +0.000 A 
ATOM     18  C   UNL     1      42.900   5.231  12.986  0.00  0.00    +0.000 A 
ATOM     19  N   UNL     1      44.156   4.954  13.402  0.00  0.00    +0.000 NA
ENDBRANCH  12  14
ENDBRANCH  11  12
ENDBRANCH   5  11
TORSDOF 4
ENDMDL
