MODEL 1
REMARK VINA RESULT:    -7.902      0.000      0.000
REMARK INTER + INTRA:         -12.095
REMARK INTER:                 -11.136
REMARK INTRA:                  -0.959
REMARK UNBOUND:                -0.959
REMARK  Name = 
REMARK  9 active torsions:
REMARK  status: ('A' for Active; 'I' for Inactive)
REMARK    1  A    between atoms: C_1  and  C_2
REMARK    2  A    between atoms: C_2  and  C_3
REMARK    3  A    between atoms: C_2  and  C_4
REMARK    4  A    between atoms: C_2  and  C_17
REMARK    5  A    between atoms: C_4  and  O_5
REMARK    6  A    between atoms: O_5  and  C_6
REMARK    7  A    between atoms: C_10  and  O_11
REMARK    8  A    between atoms: O_11  and  C_12
REMARK    9  A    between atoms: C_20  and  C_21
REMARK                            x       y       z     vdW  Elec       q    Type
REMARK                         _______ _______ _______ _____ _____    ______ ____
ROOT
ATOM      1  C   UNL     1      48.187   8.123  12.239  0.00  0.00    +0.000 C 
ATOM      2  C   UNL     1      47.009   7.132  12.369  0.00  0.00    +0.000 C 
ATOM      3  C   UNL     1      45.698   7.929  12.566  0.00  0.00    +0.000 C 
ENDROOT
BRANCH   2   4
ATOM      4  C   UNL     1      47.236   6.216  13.582  0.00  0.00    +0.000 A 
ATOM      5  C   UNL     1      48.083   6.545  14.652  0.00  0.00    +0.000 A 
ATOM      6  C   UNL     1      48.189   5.707  15.759  0.00  0.00    +0.000 A 
ATOM      7  C   UNL     1      47.451   4.536  15.767  0.00  0.00    +0.000 A 
ATOM      8  N   UNL     1      46.648   4.144  14.742  0.00  0.00    +0.000 NA
ATOM      9  C   UNL     1      46.568   4.991  13.688  0.00  0.00    +0.000 A 
BRANCH   7  10
ATOM     10  C   UNL     1      47.490   3.642  16.966  0.00  0.00    +0.000 C 
ATOM     11  N   UNL     1      48.726   3.479  17.531  0.00  0.00    +0.000 N 
ATOM     12  O   UNL     1      46.497   3.079  17.409  0.00  0.00    +0.000 OA
ATOM     13  H   UNL     1      49.526   3.938  17.110  0.00  0.00    +0.000 HD
ATOM     14  H   UNL     1      48.839   2.857  18.317  0.00  0.00    +0.000 HD
ENDBRANCH   7  10
ENDBRANCH   2   4
BRANCH   2  15
ATOM     15  C   UNL     1      46.859   6.377  11.021  0.00  0.00    +0.000 C 
BRANCH  15  16
ATOM     16  O   UNL     1      45.488   6.314  10.599  0.00  0.00    +0.000 OA
BRANCH  16  17
ATOM     17  C   UNL     1      45.174   5.087  10.045  0.00  0.00    +0.000 A 
ATOM     18  C   UNL     1      44.441   4.207  10.824  0.00  0.00    +0.000 A 
ATOM     19  C   UNL     1      44.135   2.958  10.287  0.00  0.00    +0.000 A 
ATOM     20  C   UNL     1      44.574   2.642   9.003  0.00  0.00    +0.000 A 
ATOM     21  C   UNL     1      45.278   3.605   8.302  0.00  0.00    +0.000 A 
ATOM     22  N   UNL     1      45.587   4.815   8.794  0.00  0.00    +0.000 NA
BRANCH  21  23
ATOM     23  O   UNL     1      45.697   3.308   7.023  0.00  0.00    +0.000 OA
BRANCH  23  24
ATOM     24  C   UNL     1      47.100   2.959   6.911  0.00  0.00    +0.000 C 
ATOM     25  C   UNL     1      47.612   2.704   5.490  0.00  0.00    +0.000 C 
ATOM     26  O   UNL     1      48.255   1.469   5.893  0.00  0.00    +0.000 OA
ATOM     27  C   UNL     1      47.537   1.505   7.153  0.00  0.00    +0.000 C 
ENDBRANCH  23  24
ENDBRANCH  21  23
ENDBRANCH  16  17
ENDBRANCH  15  16
ENDBRANCH   2  15
TORSDOF 7
ENDMDL
MODEL 2
REMARK VINA RESULT:    -7.526      1.858      7.982
REMARK INTER + INTRA:         -11.564
REMARK INTER:                 -11.169
REMARK INTRA:                  -0.395
REMARK UNBOUND:                -0.959
REMARK  Name = 
REMARK  9 active torsions:
REMARK  status: ('A' for Active; 'I' for Inactive)
REMARK    1  A    between atoms: C_1  and  C_2
REMARK    2  A    between atoms: C_2  and  C_3
REMARK    3  A    between atoms: C_2  and  C_4
REMARK    4  A    between atoms: C_2  and  C_17
REMARK    5  A    between atoms: C_4  and  O_5
REMARK    6  A    between atoms: O_5  and  C_6
REMARK    7  A    between atoms: C_10  and  O_11
REMARK    8  A    between atoms: O_11  and  C_12
REMARK    9  A    between atoms: C_20  and  C_21
REMARK                            x       y       z     vdW  Elec       q    Type
REMARK                         _______ _______ _______ _____ _____    ______ ____
ROOT
ATOM      1  C   UNL     1      43.481   2.901  12.071  0.00  0.00    +0.000 C 
ATOM      2  C   UNL     1      44.096   4.136  11.375  0.00  0.00    +0.000 C 
ATOM      3  C   UNL     1      42.968   5.143  11.048  0.00  0.00    +0.000 C 
ENDROOT
BRANCH   2   4
ATOM      4  C   UNL     1      44.787   3.704  10.072  0.00  0.00    +0.000 A 
ATOM      5  C   UNL     1      45.321   4.611   9.143  0.00  0.00    +0.000 A 
ATOM      6  C   UNL     1      46.003   4.156   8.017  0.00  0.00    +0.000 A 
ATOM      7  C   UNL     1      46.125   2.790   7.832  0.00  0.00    +0.000 A 
ATOM      8  N   UNL     1      45.593   1.865   8.675  0.00  0.00    +0.000 NA
ATOM      9  C   UNL     1      44.944   2.349   9.760  0.00  0.00    +0.000 A 
BRANCH   7  10
ATOM     10  C   UNL     1      46.906   2.265   6.669  0.00  0.00    +0.000 C 
ATOM     11  N   UNL     1      47.140   3.170   5.669  0.00  0.00    +0.000 N 
ATOM     12  O   UNL     1      47.297   1.107   6.598  0.00  0.00    +0.000 OA
ATOM     13  H   UNL     1      46.767   4.109   5.754  0.00  0.00    +0.000 HD
ATOM     14  H   UNL     1      47.622   2.878   4.832  0.00  0.00    +0.000 HD
ENDBRANCH   7  10
ENDBRANCH   2   4
BRANCH   2  15
ATOM     15  C   UNL     1      45.033   4.847  12.388  0.00  0.00    +0.000 C 
BRANCH  15  16
ATOM     16  O   UNL     1      45.774   3.903  13.177  0.00  0.00    +0.000 OA
BRANCH  16  17
ATOM     17  C   UNL     1      46.637   4.530  14.056  0.00  0.00    +0.000 A 
ATOM     18  C   UNL     1      47.335   5.629  13.585  0.00  0.00    +0.000 A 
ATOM     19  C   UNL     1      48.225   6.258  14.454  0.00  0.00    +0.000 A 
ATOM     20  C   UNL     1      48.380   5.765  15.748  0.00  0.00    +0.000 A 
ATOM     21  C   UNL     1      47.613   4.675  16.123  0.00  0.00    +0.000 A 
ATOM     22  N   UNL     1      46.750   4.049  15.308  0.00  0.00    +0.000 NA
BRANCH  21  23
ATOM     23  O   UNL     1      47.745   4.194  17.407  0.00  0.00    +0.000 OA
BRANCH  23  24
ATOM     24  C   UNL     1      48.446   2.929  17.511  0.00  0.00    +0.000 C 
ATOM     25  C   UNL     1      49.973   3.019  17.601  0.00  0.00    +0.000 C 
ATOM     26  O   UNL     1      50.139   2.008  16.575  0.00  0.00    +0.000 OA
ATOM     27  C   UNL     1      48.733   2.119  16.237  0.00  0.00    +0.000 C 
ENDBRANCH  23  24
ENDBRANCH  21  23
ENDBRANCH  16  17
ENDBRANCH  15  16
ENDBRANCH   2  15
TORSDOF 7
ENDMDL
MODEL 3
REMARK VINA RESULT:    -7.115      2.242      8.005
REMARK INTER + INTRA:         -10.986
REMARK INTER:                  -9.944
REMARK INTRA:                  -1.042
REMARK UNBOUND:                -0.959
REMARK  Name = 
REMARK  9 active torsions:
REMARK  status: ('A' for Active; 'I' for Inactive)
REMARK    1  A    between atoms: C_1  and  C_2
REMARK    2  A    between atoms: C_2  and  C_3
REMARK    3  A    between atoms: C_2  and  C_4
REMARK    4  A    between atoms: C_2  and  C_17
REMARK    5  A    between atoms: C_4  and  O_5
REMARK    6  A    between atoms: O_5  and  C_6
REMARK    7  A    between atoms: C_10  and  O_11
REMARK    8  A    between atoms: O_11  and  C_12
REMARK    9  A    between atoms: C_20  and  C_21
REMARK                            x       y       z     vdW  Elec       q    Type
REMARK                         _______ _______ _______ _____ _____    ______ ____
ROOT
ATOM      1  C   UNL     1      43.638   3.018  12.252  0.00  0.00    +0.000 C 
ATOM      2  C   UNL     1      44.019   4.259  11.414  0.00  0.00    +0.000 C 
ATOM      3  C   UNL     1      42.731   5.026  11.032  0.00  0.00    +0.000 C 
ENDROOT
BRANCH   2   4
ATOM      4  C   UNL     1      44.747   3.816  10.135  0.00  0.00    +0.000 A 
ATOM      5  C   UNL     1      45.321   4.713   9.222  0.00  0.00    +0.000 A 
ATOM      6  C   UNL     1      46.034   4.248   8.119  0.00  0.00    +0.000 A 
ATOM      7  C   UNL     1      46.144   2.880   7.941  0.00  0.00    +0.000 A 
ATOM      8  N   UNL     1      45.573   1.964   8.768  0.00  0.00    +0.000 NA
ATOM      9  C   UNL     1      44.896   2.458   9.831  0.00  0.00    +0.000 A 
BRANCH   7  10
ATOM     10  C   UNL     1      46.955   2.342   6.804  0.00  0.00    +0.000 C 
ATOM     11  N   UNL     1      47.036   3.160   5.709  0.00  0.00    +0.000 N 
ATOM     12  O   UNL     1      47.497   1.245   6.833  0.00  0.00    +0.000 OA
ATOM     13  H   UNL     1      46.543   4.046   5.716  0.00  0.00    +0.000 HD
ATOM     14  H   UNL     1      47.529   2.848   4.887  0.00  0.00    +0.000 HD
ENDBRANCH   7  10
ENDBRANCH   2   4
BRANCH   2  15
ATOM     15  C   UNL     1      44.843   5.217  12.316  0.00  0.00    +0.000 C 
BRANCH  15  16
ATOM     16  O   UNL     1      46.166   4.711  12.556  0.00  0.00    +0.000 OA
BRANCH  16  17
ATOM     17  C   UNL     1      47.090   5.729  12.701  0.00  0.00    +0.000 A 
ATOM     18  C   UNL     1      47.085   6.732  11.746  0.00  0.00    +0.000 A 
ATOM     19  C   UNL     1      48.025   7.754  11.868  0.00  0.00    +0.000 A 
ATOM     20  C   UNL     1      48.925   7.730  12.931  0.00  0.00    +0.000 A 
ATOM     21  C   UNL     1      48.826   6.693  13.842  0.00  0.00    +0.000 A 
ATOM     22  N   UNL     1      47.932   5.696  13.750  0.00  0.00    +0.000 NA
BRANCH  21  23
ATOM     23  O   UNL     1      49.699   6.673  14.908  0.00  0.00    +0.000 OA
BRANCH  23  24
ATOM     24  C   UNL     1      49.071   6.805  16.209  0.00  0.00    +0.000 C 
ATOM     25  C   UNL     1      49.772   7.747  17.194  0.00  0.00    +0.000 C 
ATOM     26  O   UNL     1      49.707   6.760  18.254  0.00  0.00    +0.000 OA
ATOM     27  C   UNL     1      49.339   5.744  17.287  0.00  0.00    +0.000 C 
ENDBRANCH  23  24
ENDBRANCH  21  23
ENDBRANCH  16  17
ENDBRANCH  15  16
ENDBRANCH   2  15
TORSDOF 7
ENDMDL
MODEL 4
REMARK VINA RESULT:    -6.998      2.885      7.318
REMARK INTER + INTRA:         -10.821
REMARK INTER:                  -9.921
REMARK INTRA:                  -0.901
REMARK UNBOUND:                -0.959
REMARK  Name = 
REMARK  9 active torsions:
REMARK  status: ('A' for Active; 'I' for Inactive)
REMARK    1  A    between atoms: C_1  and  C_2
REMARK    2  A    between atoms: C_2  and  C_3
REMARK    3  A    between atoms: C_2  and  C_4
REMARK    4  A    between atoms: C_2  and  C_17
REMARK    5  A    between atoms: C_4  and  O_5
REMARK    6  A    between atoms: O_5  and  C_6
REMARK    7  A    between atoms: C_10  and  O_11
REMARK    8  A    between atoms: O_11  and  C_12
REMARK    9  A    between atoms: C_20  and  C_21
REMARK                            x       y       z     vdW  Elec       q    Type
REMARK                         _______ _______ _______ _____ _____    ______ ____
ROOT
ATOM      1  C   UNL     1      43.609   2.889  11.814  0.00  0.00    +0.000 C 
ATOM      2  C   UNL     1      44.254   4.127  11.152  0.00  0.00    +0.000 C 
ATOM      3  C   UNL     1      43.145   5.146  10.798  0.00  0.00    +0.000 C 
ENDROOT
BRANCH   2   4
ATOM      4  C   UNL     1      44.985   3.704   9.868  0.00  0.00    +0.000 A 
ATOM      5  C   UNL     1      45.546   4.617   8.961  0.00  0.00    +0.000 A 
ATOM      6  C   UNL     1      46.262   4.169   7.853  0.00  0.00    +0.000 A 
ATOM      7  C   UNL     1      46.390   2.804   7.664  0.00  0.00    +0.000 A 
ATOM      8  N   UNL     1      45.834   1.874   8.484  0.00  0.00    +0.000 NA
ATOM      9  C   UNL     1      45.152   2.351   9.552  0.00  0.00    +0.000 A 
BRANCH   7  10
ATOM     10  C   UNL     1      47.207   2.287   6.521  0.00  0.00    +0.000 C 
ATOM     11  N   UNL     1      47.061   2.971   5.345  0.00  0.00    +0.000 N 
ATOM     12  O   UNL     1      47.942   1.312   6.616  0.00  0.00    +0.000 OA
ATOM     13  H   UNL     1      46.415   3.752   5.303  0.00  0.00    +0.000 HD
ATOM     14  H   UNL     1      47.546   2.656   4.519  0.00  0.00    +0.000 HD
ENDBRANCH   7  10
ENDBRANCH   2   4
BRANCH   2  15
ATOM     15  C   UNL     1      45.162   4.821  12.202  0.00  0.00    +0.000 C 
BRANCH  15  16
ATOM     16  O   UNL     1      44.694   6.142  12.516  0.00  0.00    +0.000 OA
BRANCH  16  17
ATOM     17  C   UNL     1      45.702   7.083  12.420  0.00  0.00    +0.000 A 
ATOM     18  C   UNL     1      45.339   8.416  12.518  0.00  0.00    +0.000 A 
ATOM     19  C   UNL     1      46.342   9.376  12.402  0.00  0.00    +0.000 A 
ATOM     20  C   UNL     1      47.657   8.967  12.191  0.00  0.00    +0.000 A 
ATOM     21  C   UNL     1      47.913   7.609  12.134  0.00  0.00    +0.000 A 
ATOM     22  N   UNL     1      46.968   6.662  12.241  0.00  0.00    +0.000 NA
BRANCH  21  23
ATOM     23  O   UNL     1      49.214   7.195  11.947  0.00  0.00    +0.000 OA
BRANCH  23  24
ATOM     24  C   UNL     1      50.190   8.267  11.900  0.00  0.00    +0.000 C 
ATOM     25  C   UNL     1      51.409   8.019  11.006  0.00  0.00    +0.000 C 
ATOM     26  O   UNL     1      52.320   8.439  12.053  0.00  0.00    +0.000 OA
ATOM     27  C   UNL     1      51.238   8.383  13.018  0.00  0.00    +0.000 C 
ENDBRANCH  23  24
ENDBRANCH  21  23
ENDBRANCH  16  17
ENDBRANCH  15  16
ENDBRANCH   2  15
TORSDOF 7
ENDMDL
MODEL 5
REMARK VINA RESULT:    -6.982      1.552      1.980
REMARK INTER + INTRA:         -10.799
REMARK INTER:                  -9.771
REMARK INTRA:                  -1.027
REMARK UNBOUND:                -0.959
REMARK  Name = 
REMARK  9 active torsions:
REMARK  status: ('A' for Active; 'I' for Inactive)
REMARK    1  A    between atoms: C_1  and  C_2
REMARK    2  A    between atoms: C_2  and  C_3
REMARK    3  A    between atoms: C_2  and  C_4
REMARK    4  A    between atoms: C_2  and  C_17
REMARK    5  A    between atoms: C_4  and  O_5
REMARK    6  A    between atoms: O_5  and  C_6
REMARK    7  A    between atoms: C_10  and  O_11
REMARK    8  A    between atoms: O_11  and  C_12
REMARK    9  A    between atoms: C_20  and  C_21
REMARK                            x       y       z     vdW  Elec       q    Type
REMARK                         _______ _______ _______ _____ _____    ______ ____
ROOT
ATOM      1  C   UNL     1      49.189   7.479  12.447  0.00  0.00    +0.000 C 
ATOM      2  C   UNL     1      47.775   7.128  12.962  0.00  0.00    +0.000 C 
ATOM      3  C   UNL     1      47.037   8.434  13.343  0.00  0.00    +0.000 C 
ENDROOT
BRANCH   2   4
ATOM      4  C   UNL     1      47.885   6.226  14.201  0.00  0.00    +0.000 A 
ATOM      5  C   UNL     1      48.604   6.580  15.354  0.00  0.00    +0.000 A 
ATOM      6  C   UNL     1      48.604   5.751  16.474  0.00  0.00    +0.000 A 
ATOM      7  C   UNL     1      47.892   4.566  16.411  0.00  0.00    +0.000 A 
ATOM      8  N   UNL     1      47.214   4.151  15.309  0.00  0.00    +0.000 NA
ATOM      9  C   UNL     1      47.234   4.988  14.245  0.00  0.00    +0.000 A 
BRANCH   7  10
ATOM     10  C   UNL     1      47.817   3.681  17.616  0.00  0.00    +0.000 C 
ATOM     11  N   UNL     1      46.812   2.751  17.593  0.00  0.00    +0.000 N 
ATOM     12  O   UNL     1      48.582   3.783  18.566  0.00  0.00    +0.000 OA
ATOM     13  H   UNL     1      46.181   2.725  16.800  0.00  0.00    +0.000 HD
ATOM     14  H   UNL     1      46.671   2.148  18.389  0.00  0.00    +0.000 HD
ENDBRANCH   7  10
ENDBRANCH   2   4
BRANCH   2  15
ATOM     15  C   UNL     1      46.973   6.503  11.789  0.00  0.00    +0.000 C 
BRANCH  15  16
ATOM     16  O   UNL     1      45.581   6.852  11.854  0.00  0.00    +0.000 OA
BRANCH  16  17
ATOM     17  C   UNL     1      44.766   5.739  11.778  0.00  0.00    +0.000 A 
ATOM     18  C   UNL     1      43.884   5.524  12.824  0.00  0.00    +0.000 A 
ATOM     19  C   UNL     1      43.071   4.394  12.771  0.00  0.00    +0.000 A 
ATOM     20  C   UNL     1      43.173   3.530  11.682  0.00  0.00    +0.000 A 
ATOM     21  C   UNL     1      44.070   3.853  10.680  0.00  0.00    +0.000 A 
ATOM     22  N   UNL     1      44.866   4.933  10.704  0.00  0.00    +0.000 NA
BRANCH  21  23
ATOM     23  O   UNL     1      44.162   3.015   9.589  0.00  0.00    +0.000 OA
BRANCH  23  24
ATOM     24  C   UNL     1      45.502   2.861   9.056  0.00  0.00    +0.000 C 
ATOM     25  C   UNL     1      45.731   3.439   7.655  0.00  0.00    +0.000 C 
ATOM     26  O   UNL     1      46.375   2.219   7.207  0.00  0.00    +0.000 OA
ATOM     27  C   UNL     1      45.903   1.533   8.395  0.00  0.00    +0.000 C 
ENDBRANCH  23  24
ENDBRANCH  21  23
ENDBRANCH  16  17
ENDBRANCH  15  16
ENDBRANCH   2  15
TORSDOF 7
ENDMDL
MODEL 6
REMARK VINA RESULT:    -6.832      3.177      5.308
REMARK INTER + INTRA:         -10.587
REMARK INTER:                  -9.908
REMARK INTRA:                  -0.679
REMARK UNBOUND:                -0.959
REMARK  Name = 
REMARK  9 active torsions:
REMARK  status: ('A' for Active; 'I' for Inactive)
REMARK    1  A    between atoms: C_1  and  C_2
REMARK    2  A    between atoms: C_2  and  C_3
REMARK    3  A    between atoms: C_2  and  C_4
REMARK    4  A    between atoms: C_2  and  C_17
REMARK    5  A    between atoms: C_4  and  O_5
REMARK    6  A    between atoms: O_5  and  C_6
REMARK    7  A    between atoms: C_10  and  O_11
REMARK    8  A    between atoms: O_11  and  C_12
REMARK    9  A    between atoms: C_20  and  C_21
REMARK                            x       y       z     vdW  Elec       q    Type
REMARK                         _______ _______ _______ _____ _____    ______ ____
ROOT
ATOM      1  C   UNL     1      48.124   5.084  18.496  0.00  0.00    +0.000 C 
ATOM      2  C   UNL     1      48.189   3.994  17.403  0.00  0.00    +0.000 C 
ATOM      3  C   UNL     1      47.087   2.943  17.672  0.00  0.00    +0.000 C 
ENDROOT
BRANCH   2   4
ATOM      4  C   UNL     1      49.565   3.311  17.436  0.00  0.00    +0.000 A 
ATOM      5  C   UNL     1      50.724   3.928  17.932  0.00  0.00    +0.000 A 
ATOM      6  C   UNL     1      51.927   3.229  18.005  0.00  0.00    +0.000 A 
ATOM      7  C   UNL     1      51.951   1.919  17.560  0.00  0.00    +0.000 A 
ATOM      8  N   UNL     1      50.872   1.283  17.031  0.00  0.00    +0.000 NA
ATOM      9  C   UNL     1      49.721   1.996  16.984  0.00  0.00    +0.000 A 
BRANCH   7  10
ATOM     10  C   UNL     1      53.208   1.116  17.681  0.00  0.00    +0.000 C 
ATOM     11  N   UNL     1      53.044  -0.149  18.176  0.00  0.00    +0.000 N 
ATOM     12  O   UNL     1      54.310   1.555  17.378  0.00  0.00    +0.000 OA
ATOM     13  H   UNL     1      52.117  -0.459  18.446  0.00  0.00    +0.000 HD
ATOM     14  H   UNL     1      53.851  -0.736  18.328  0.00  0.00    +0.000 HD
ENDBRANCH   7  10
ENDBRANCH   2   4
BRANCH   2  15
ATOM     15  C   UNL     1      47.838   4.652  16.041  0.00  0.00    +0.000 C 
BRANCH  15  16
ATOM     16  O   UNL     1      47.353   3.685  15.096  0.00  0.00    +0.000 OA
BRANCH  16  17
ATOM     17  C   UNL     1      46.786   4.286  13.987  0.00  0.00    +0.000 A 
ATOM     18  C   UNL     1      47.079   5.622  13.770  0.00  0.00    +0.000 A 
ATOM     19  C   UNL     1      46.498   6.247  12.668  0.00  0.00    +0.000 A 
ATOM     20  C   UNL     1      45.653   5.515  11.835  0.00  0.00    +0.000 A 
ATOM     21  C   UNL     1      45.450   4.179  12.131  0.00  0.00    +0.000 A 
ATOM     22  N   UNL     1      45.994   3.552  13.185  0.00  0.00    +0.000 NA
BRANCH  21  23
ATOM     23  O   UNL     1      44.632   3.442  11.300  0.00  0.00    +0.000 OA
BRANCH  23  24
ATOM     24  C   UNL     1      45.158   3.230   9.966  0.00  0.00    +0.000 C 
ATOM     25  C   UNL     1      44.520   4.073   8.857  0.00  0.00    +0.000 C 
ATOM     26  O   UNL     1      44.348   2.910   8.008  0.00  0.00    +0.000 OA
ATOM     27  C   UNL     1      44.645   2.044   9.133  0.00  0.00    +0.000 C 
ENDBRANCH  23  24
ENDBRANCH  21  23
ENDBRANCH  16  17
ENDBRANCH  15  16
ENDBRANCH   2  15
TORSDOF 7
ENDMDL
MODEL 7
REMARK VINA RESULT:    -6.240      3.549      7.486
REMARK INTER + INTRA:          -9.752
REMARK INTER:                  -8.549
REMARK INTRA:                  -1.203
REMARK UNBOUND:                -0.959
REMARK  Name = 
REMARK  9 active torsions:
REMARK  status: ('A' for Active; 'I' for Inactive)
REMARK    1  A    between atoms: C_1  and  C_2
REMARK    2  A    between atoms: C_2  and  C_3
REMARK    3  A    between atoms: C_2  and  C_4
REMARK    4  A    between atoms: C_2  and  C_17
REMARK    5  A    between atoms: C_4  and  O_5
REMARK    6  A    between atoms: O_5  and  C_6
REMARK    7  A    between atoms: C_10  and  O_11
REMARK    8  A    between atoms: O_11  and  C_12
REMARK    9  A    between atoms: C_20  and  C_21
REMARK                            x       y       z     vdW  Elec       q    Type
REMARK                         _______ _______ _______ _____ _____    ______ ____
ROOT
ATOM      1  C   UNL     1      47.764   8.889  13.161  0.00  0.00    +0.000 C 
ATOM      2  C   UNL     1      48.402   7.484  13.090  0.00  0.00    +0.000 C 
ATOM      3  C   UNL     1      49.460   7.466  11.962  0.00  0.00    +0.000 C 
ENDROOT
BRANCH   2   4
ATOM      4  C   UNL     1      47.317   6.438  12.787  0.00  0.00    +0.000 A 
ATOM      5  C   UNL     1      46.508   6.473  11.640  0.00  0.00    +0.000 A 
ATOM      6  C   UNL     1      45.594   5.454  11.384  0.00  0.00    +0.000 A 
ATOM      7  C   UNL     1      45.493   4.419  12.298  0.00  0.00    +0.000 A 
ATOM      8  N   UNL     1      46.218   4.354  13.446  0.00  0.00    +0.000 NA
ATOM      9  C   UNL     1      47.100   5.361  13.653  0.00  0.00    +0.000 A 
BRANCH   7  10
ATOM     10  C   UNL     1      44.567   3.275  12.025  0.00  0.00    +0.000 C 
ATOM     11  N   UNL     1      44.715   2.688  10.797  0.00  0.00    +0.000 N 
ATOM     12  O   UNL     1      43.725   2.894  12.827  0.00  0.00    +0.000 OA
ATOM     13  H   UNL     1      45.403   3.058  10.151  0.00  0.00    +0.000 HD
ATOM     14  H   UNL     1      44.098   1.939  10.523  0.00  0.00    +0.000 HD
ENDBRANCH   7  10
ENDBRANCH   2   4
BRANCH   2  15
ATOM     15  C   UNL     1      49.174   7.235  14.414  0.00  0.00    +0.000 C 
BRANCH  15  16
ATOM     16  O   UNL     1      48.846   8.216  15.411  0.00  0.00    +0.000 OA
BRANCH  16  17
ATOM     17  C   UNL     1      48.625   7.640  16.648  0.00  0.00    +0.000 A 
ATOM     18  C   UNL     1      48.333   8.490  17.701  0.00  0.00    +0.000 A 
ATOM     19  C   UNL     1      48.129   7.926  18.959  0.00  0.00    +0.000 A 
ATOM     20  C   UNL     1      48.227   6.544  19.111  0.00  0.00    +0.000 A 
ATOM     21  C   UNL     1      48.500   5.786  17.986  0.00  0.00    +0.000 A 
ATOM     22  N   UNL     1      48.702   6.302  16.764  0.00  0.00    +0.000 NA
BRANCH  21  23
ATOM     23  O   UNL     1      48.579   4.416  18.124  0.00  0.00    +0.000 OA
BRANCH  23  24
ATOM     24  C   UNL     1      49.172   3.727  16.994  0.00  0.00    +0.000 C 
ATOM     25  C   UNL     1      48.246   2.768  16.238  0.00  0.00    +0.000 C 
ATOM     26  O   UNL     1      49.242   1.715  16.262  0.00  0.00    +0.000 OA
ATOM     27  C   UNL     1      50.011   2.464  17.238  0.00  0.00    +0.000 C 
ENDBRANCH  23  24
ENDBRANCH  21  23
ENDBRANCH  16  17
ENDBRANCH  15  16
ENDBRANCH   2  15
TORSDOF 7
ENDMDL
MODEL 8
REMARK VINA RESULT:    -6.135      3.178      4.712
REMARK INTER + INTRA:          -9.604
REMARK INTER:                  -8.885
REMARK INTRA:                  -0.719
REMARK UNBOUND:                -0.959
REMARK  Name = 
REMARK  9 active torsions:
REMARK  status: ('A' for Active; 'I' for Inactive)
REMARK    1  A    between atoms: C_1  and  C_2
REMARK    2  A    between atoms: C_2  and  C_3
REMARK    3  A    between atoms: C_2  and  C_4
REMARK    4  A    between atoms: C_2  and  C_17
REMARK    5  A    between atoms: C_4  and  O_5
REMARK    6  A    between atoms: O_5  and  C_6
REMARK    7  A    between atoms: C_10  and  O_11
REMARK    8  A    between atoms: O_11  and  C_12
REMARK    9  A    between atoms: C_20  and  C_21
REMARK                            x       y       z     vdW  Elec       q    Type
REMARK                         _______ _______ _______ _____ _____    ______ ____
ROOT
ATOM      1  C   UNL     1      45.929   8.794  11.645  0.00  0.00    +0.000 C 
ATOM      2  C   UNL     1      46.979   7.799  12.188  0.00  0.00    +0.000 C 
ATOM      3  C   UNL     1      46.838   7.706  13.726  0.00  0.00    +0.000 C 
ENDROOT
BRANCH   2   4
ATOM      4  C   UNL     1      48.391   8.292  11.834  0.00  0.00    +0.000 A 
ATOM      5  C   UNL     1      49.483   7.432  11.636  0.00  0.00    +0.000 A 
ATOM      6  C   UNL     1      50.721   7.935  11.242  0.00  0.00    +0.000 A 
ATOM      7  C   UNL     1      50.848   9.302  11.070  0.00  0.00    +0.000 A 
ATOM      8  N   UNL     1      49.838  10.186  11.289  0.00  0.00    +0.000 NA
ATOM      9  C   UNL     1      48.650   9.656  11.663  0.00  0.00    +0.000 A 
BRANCH   7  10
ATOM     10  C   UNL     1      52.144   9.872  10.587  0.00  0.00    +0.000 C 
ATOM     11  N   UNL     1      53.132   9.955  11.531  0.00  0.00    +0.000 N 
ATOM     12  O   UNL     1      52.316  10.255   9.437  0.00  0.00    +0.000 OA
ATOM     13  H   UNL     1      52.935   9.658  12.480  0.00  0.00    +0.000 HD
ATOM     14  H   UNL     1      54.020  10.369  11.292  0.00  0.00    +0.000 HD
ENDBRANCH   7  10
ENDBRANCH   2   4
BRANCH   2  15
ATOM     15  C   UNL     1      46.640   6.388  11.636  0.00  0.00    +0.000 C 
BRANCH  15  16
ATOM     16  O   UNL     1      45.678   6.453  10.571  0.00  0.00    +0.000 OA
BRANCH  16  17
ATOM     17  C   UNL     1      45.383   5.201  10.064  0.00  0.00    +0.000 A 
ATOM     18  C   UNL     1      44.770   4.299  10.916  0.00  0.00    +0.000 A 
ATOM     19  C   UNL     1      44.486   3.026  10.425  0.00  0.00    +0.000 A 
ATOM     20  C   UNL     1      44.827   2.710   9.112  0.00  0.00    +0.000 A 
ATOM     21  C   UNL     1      45.415   3.695   8.339  0.00  0.00    +0.000 A 
ATOM     22  N   UNL     1      45.701   4.928   8.785  0.00  0.00    +0.000 NA
BRANCH  21  23
ATOM     23  O   UNL     1      45.737   3.397   7.032  0.00  0.00    +0.000 OA
BRANCH  23  24
ATOM     24  C   UNL     1      47.132   3.068   6.812  0.00  0.00    +0.000 C 
ATOM     25  C   UNL     1      47.513   2.709   5.372  0.00  0.00    +0.000 C 
ATOM     26  O   UNL     1      48.226   1.523   5.807  0.00  0.00    +0.000 OA
ATOM     27  C   UNL     1      47.630   1.647   7.124  0.00  0.00    +0.000 C 
ENDBRANCH  23  24
ENDBRANCH  21  23
ENDBRANCH  16  17
ENDBRANCH  15  16
ENDBRANCH   2  15
TORSDOF 7
ENDMDL
MODEL 9
REMARK VINA RESULT:    -5.824      3.731      6.329
REMARK INTER + INTRA:          -9.166
REMARK INTER:                  -8.488
REMARK INTRA:                  -0.679
REMARK UNBOUND:                -0.959
REMARK  Name = 
REMARK  9 active torsions:
REMARK  status: ('A' for Active; 'I' for Inactive)
REMARK    1  A    between atoms: C_1  and  C_2
REMARK    2  A    between atoms: C_2  and  C_3
REMARK    3  A    between atoms: C_2  and  C_4
REMARK    4  A    between atoms: C_2  and  C_17
REMARK    5  A    between atoms: C_4  and  O_5
REMARK    6  A    between atoms: O_5  and  C_6
REMARK    7  A    between atoms: C_10  and  O_11
REMARK    8  A    between atoms: O_11  and  C_12
REMARK    9  A    between atoms: C_20  and  C_21
REMARK                            x       y       z     vdW  Elec       q    Type
REMARK                         _______ _______ _______ _____ _____    ______ ____
ROOT
ATOM      1  C   UNL     1      48.046   5.169  18.437  0.00  0.00    +0.000 C 
ATOM      2  C   UNL     1      48.150   4.115  17.312  0.00  0.00    +0.000 C 
ATOM      3  C   UNL     1      47.029   3.066  17.497  0.00  0.00    +0.000 C 
ENDROOT
BRANCH   2   4
ATOM      4  C   UNL     1      49.518   3.417  17.383  0.00  0.00    +0.000 A 
ATOM      5  C   UNL     1      50.678   4.037  17.872  0.00  0.00    +0.000 A 
ATOM      6  C   UNL     1      51.872   3.327  17.982  0.00  0.00    +0.000 A 
ATOM      7  C   UNL     1      51.885   2.003  17.581  0.00  0.00    +0.000 A 
ATOM      8  N   UNL     1      50.805   1.362  17.061  0.00  0.00    +0.000 NA
ATOM      9  C   UNL     1      49.663   2.086  16.977  0.00  0.00    +0.000 A 
BRANCH   7  10
ATOM     10  C   UNL     1      53.131   1.191  17.743  0.00  0.00    +0.000 C 
ATOM     11  N   UNL     1      52.939  -0.085  18.200  0.00  0.00    +0.000 N 
ATOM     12  O   UNL     1      54.249   1.630  17.504  0.00  0.00    +0.000 OA
ATOM     13  H   UNL     1      51.998  -0.396  18.417  0.00  0.00    +0.000 HD
ATOM     14  H   UNL     1      53.734  -0.680  18.376  0.00  0.00    +0.000 HD
ENDBRANCH   7  10
ENDBRANCH   2   4
BRANCH   2  15
ATOM     15  C   UNL     1      47.866   4.820  15.959  0.00  0.00    +0.000 C 
BRANCH  15  16
ATOM     16  O   UNL     1      47.031   4.018  15.109  0.00  0.00    +0.000 OA
BRANCH  16  17
ATOM     17  C   UNL     1      46.728   4.663  13.925  0.00  0.00    +0.000 A 
ATOM     18  C   UNL     1      45.594   4.249  13.247  0.00  0.00    +0.000 A 
ATOM     19  C   UNL     1      45.288   4.877  12.041  0.00  0.00    +0.000 A 
ATOM     20  C   UNL     1      46.125   5.884  11.564  0.00  0.00    +0.000 A 
ATOM     21  C   UNL     1      47.219   6.237  12.334  0.00  0.00    +0.000 A 
ATOM     22  N   UNL     1      47.539   5.650  13.498  0.00  0.00    +0.000 NA
BRANCH  21  23
ATOM     23  O   UNL     1      48.041   7.246  11.880  0.00  0.00    +0.000 OA
BRANCH  23  24
ATOM     24  C   UNL     1      47.884   8.511  12.572  0.00  0.00    +0.000 C 
ATOM     25  C   UNL     1      46.472   9.107  12.559  0.00  0.00    +0.000 C 
ATOM     26  O   UNL     1      46.974  10.407  12.158  0.00  0.00    +0.000 OA
ATOM     27  C   UNL     1      48.263   9.816  11.853  0.00  0.00    +0.000 C 
ENDBRANCH  23  24
ENDBRANCH  21  23
ENDBRANCH  16  17
ENDBRANCH  15  16
ENDBRANCH   2  15
TORSDOF 7
ENDMDL
