MODEL 1
REMARK VINA RESULT:    -6.057      0.000      0.000
REMARK INTER + INTRA:          -8.419
REMARK INTER:                  -7.827
REMARK INTRA:                  -0.592
REMARK UNBOUND:                -0.592
REMARK  Name = 
REMARK  8 active torsions:
REMARK  status: ('A' for Active; 'I' for Inactive)
REMARK    1  A    between atoms: C_1  and  N_2
REMARK    2  A    between atoms: N_2  and  C_3
REMARK    3  A    between atoms: N_2  and  C_4
REMARK    4  A    between atoms: C_4  and  C_5
REMARK    5  A    between atoms: C_5  and  N_6
REMARK    6  A    between atoms: N_9  and  C_10
REMARK    7  A    between atoms: C_10  and  C_11
REMARK    8  A    between atoms: N_13  and  C_14
REMARK                            x       y       z     vdW  Elec       q    Type
REMARK                         _______ _______ _______ _____ _____    ______ ____
ROOT
ATOM      1  N   UNL     1      44.689   3.045  10.845  0.00  0.00    +0.000 NA
ATOM      2  C   UNL     1      43.469   3.553  11.525  0.00  0.00    +0.000 C 
ATOM      3  C   UNL     1      43.035   4.966  11.066  0.00  0.00    +0.000 C 
ATOM      4  N   UNL     1      44.088   5.994  11.212  0.00  0.00    +0.000 NA
ATOM      5  C   UNL     1      45.304   5.508  10.521  0.00  0.00    +0.000 C 
ATOM      6  C   UNL     1      45.744   4.076  10.927  0.00  0.00    +0.000 C 
ENDROOT
BRANCH   1   7
ATOM      7  C   UNL     1      44.337   2.672   9.459  0.00  0.00    +0.000 C 
BRANCH   7   8
ATOM      8  C   UNL     1      45.241   1.623   8.776  0.00  0.00    +0.000 C 
BRANCH   8  10
ATOM      9  C   UNL     1      47.066   1.218   7.253  0.00  0.00    +0.000 C 
ATOM     10  N   UNL     1      46.372   2.235   8.042  0.00  0.00    +0.000 NA
ATOM     11  C   UNL     1      45.945   3.337   7.178  0.00  0.00    +0.000 C 
ENDBRANCH   8  10
ENDBRANCH   7   8
ENDBRANCH   1   7
BRANCH   4  12
ATOM     12  C   UNL     1      44.395   6.308  12.621  0.00  0.00    +0.000 C 
BRANCH  12  13
ATOM     13  C   UNL     1      45.454   7.365  12.711  0.00  0.00    +0.000 A 
ATOM     14  C   UNL     1      45.322   8.684  12.316  0.00  0.00    +0.000 A 
ATOM     15  N   UNL     1      46.536   9.298  12.470  0.00  0.00    +0.000 N 
ATOM     16  C   UNL     1      46.827  10.649  12.043  0.00  0.00    +0.000 C 
ATOM     17  C   UNL     1      47.440   8.430  13.036  0.00  0.00    +0.000 A 
ATOM     18  C   UNL     1      48.773   8.600  13.417  0.00  0.00    +0.000 A 
ATOM     19  C   UNL     1      49.389   7.470  13.938  0.00  0.00    +0.000 A 
ATOM     20  N   UNL     1      48.805   6.262  14.082  0.00  0.00    +0.000 NA
ATOM     21  C   UNL     1      47.514   6.116  13.697  0.00  0.00    +0.000 A 
ATOM     22  C   UNL     1      46.789   7.202  13.184  0.00  0.00    +0.000 A 
ENDBRANCH  12  13
ENDBRANCH   4  12
TORSDOF 5
ENDMDL
MODEL 2
REMARK VINA RESULT:    -5.963      1.418      2.987
REMARK INTER + INTRA:          -8.298
REMARK INTER:                  -7.734
REMARK INTRA:                  -0.564
REMARK UNBOUND:                -0.592
REMARK  Name = 
REMARK  8 active torsions:
REMARK  status: ('A' for Active; 'I' for Inactive)
REMARK    1  A    between atoms: C_1  and  N_2
REMARK    2  A    between atoms: N_2  and  C_3
REMARK    3  A    between atoms: N_2  and  C_4
REMARK    4  A    between atoms: C_4  and  C_5
REMARK    5  A    between atoms: C_5  and  N_6
REMARK    6  A    between atoms: N_9  and  C_10
REMARK    7  A    between atoms: C_10  and  C_11
REMARK    8  A    between atoms: N_13  and  C_14
REMARK                            x       y       z     vdW  Elec       q    Type
REMARK                         _______ _______ _______ _____ _____    ______ ____
ROOT
ATOM      1  N   UNL     1      43.555   3.634  10.807  0.00  0.00    +0.000 NA
ATOM      2  C   UNL     1      44.063   4.913  10.248  0.00  0.00    +0.000 C 
ATOM      3  C   UNL     1      45.486   5.290  10.727  0.00  0.00    +0.000 C 
ATOM      4  N   UNL     1      45.624   5.360  12.198  0.00  0.00    +0.000 NA
ATOM      5  C   UNL     1      45.140   4.081  12.767  0.00  0.00    +0.000 C 
ATOM      6  C   UNL     1      43.733   3.652  12.274  0.00  0.00    +0.000 C 
ENDROOT
BRANCH   1   7
ATOM      7  C   UNL     1      44.259   2.516  10.144  0.00  0.00    +0.000 C 
BRANCH   7   8
ATOM      8  C   UNL     1      44.526   2.670   8.630  0.00  0.00    +0.000 C 
BRANCH   8  10
ATOM      9  C   UNL     1      46.364   1.258   7.962  0.00  0.00    +0.000 C 
ATOM     10  N   UNL     1      45.969   2.626   8.298  0.00  0.00    +0.000 NA
ATOM     11  C   UNL     1      46.316   3.533   7.203  0.00  0.00    +0.000 C 
ENDBRANCH   8  10
ENDBRANCH   7   8
ENDBRANCH   1   7
BRANCH   4  12
ATOM     12  C   UNL     1      44.888   6.492  12.793  0.00  0.00    +0.000 C 
BRANCH  12  13
ATOM     13  C   UNL     1      45.654   7.770  12.626  0.00  0.00    +0.000 A 
ATOM     14  C   UNL     1      46.879   8.064  13.199  0.00  0.00    +0.000 A 
ATOM     15  N   UNL     1      47.195   9.359  12.885  0.00  0.00    +0.000 N 
ATOM     16  C   UNL     1      48.341  10.069  13.409  0.00  0.00    +0.000 C 
ATOM     17  C   UNL     1      46.242   9.892  12.048  0.00  0.00    +0.000 A 
ATOM     18  C   UNL     1      46.145  11.143  11.435  0.00  0.00    +0.000 A 
ATOM     19  C   UNL     1      45.005  11.340  10.667  0.00  0.00    +0.000 A 
ATOM     20  N   UNL     1      44.019  10.435  10.493  0.00  0.00    +0.000 NA
ATOM     21  C   UNL     1      44.128   9.231  11.105  0.00  0.00    +0.000 A 
ATOM     22  C   UNL     1      45.254   8.918  11.882  0.00  0.00    +0.000 A 
ENDBRANCH  12  13
ENDBRANCH   4  12
TORSDOF 5
ENDMDL
MODEL 3
REMARK VINA RESULT:    -5.689      1.677      7.080
REMARK INTER + INTRA:          -7.944
REMARK INTER:                  -7.450
REMARK INTRA:                  -0.494
REMARK UNBOUND:                -0.592
REMARK  Name = 
REMARK  8 active torsions:
REMARK  status: ('A' for Active; 'I' for Inactive)
REMARK    1  A    between atoms: C_1  and  N_2
REMARK    2  A    between atoms: N_2  and  C_3
REMARK    3  A    between atoms: N_2  and  C_4
REMARK    4  A    between atoms: C_4  and  C_5
REMARK    5  A    between atoms: C_5  and  N_6
REMARK    6  A    between atoms: N_9  and  C_10
REMARK    7  A    between atoms: C_10  and  C_11
REMARK    8  A    between atoms: N_13  and  C_14
REMARK                            x       y       z     vdW  Elec       q    Type
REMARK                         _______ _______ _______ _____ _____    ______ ____
ROOT
ATOM      1  N   UNL     1      48.831   8.066  13.012  0.00  0.00    +0.000 NA
ATOM      2  C   UNL     1      47.660   8.945  12.761  0.00  0.00    +0.000 C 
ATOM      3  C   UNL     1      46.330   8.404  13.338  0.00  0.00    +0.000 C 
ATOM      4  N   UNL     1      45.979   7.047  12.864  0.00  0.00    +0.000 NA
ATOM      5  C   UNL     1      47.132   6.156  13.128  0.00  0.00    +0.000 C 
ATOM      6  C   UNL     1      48.490   6.689  12.599  0.00  0.00    +0.000 C 
ENDROOT
BRANCH   1   7
ATOM      7  C   UNL     1      49.208   8.176  14.437  0.00  0.00    +0.000 C 
BRANCH   7   8
ATOM      8  C   UNL     1      50.557   7.545  14.846  0.00  0.00    +0.000 C 
BRANCH   8  10
ATOM      9  C   UNL     1      51.163   6.924  17.096  0.00  0.00    +0.000 C 
ATOM     10  N   UNL     1      50.410   6.523  15.907  0.00  0.00    +0.000 NA
ATOM     11  C   UNL     1      49.010   6.279  16.258  0.00  0.00    +0.000 C 
ENDBRANCH   8  10
ENDBRANCH   7   8
ENDBRANCH   1   7
BRANCH   4  12
ATOM     12  C   UNL     1      45.625   7.011  11.433  0.00  0.00    +0.000 C 
BRANCH  12  13
ATOM     13  C   UNL     1      45.055   5.676  11.060  0.00  0.00    +0.000 A 
ATOM     14  C   UNL     1      44.213   4.905  11.842  0.00  0.00    +0.000 A 
ATOM     15  N   UNL     1      43.996   3.720  11.191  0.00  0.00    +0.000 N 
ATOM     16  C   UNL     1      43.268   2.602  11.752  0.00  0.00    +0.000 C 
ATOM     17  C   UNL     1      44.611   3.732   9.961  0.00  0.00    +0.000 A 
ATOM     18  C   UNL     1      44.645   2.787   8.934  0.00  0.00    +0.000 A 
ATOM     19  C   UNL     1      45.407   3.140   7.828  0.00  0.00    +0.000 A 
ATOM     20  N   UNL     1      46.098   4.291   7.695  0.00  0.00    +0.000 NA
ATOM     21  C   UNL     1      46.060   5.191   8.708  0.00  0.00    +0.000 A 
ATOM     22  C   UNL     1      45.297   4.946   9.860  0.00  0.00    +0.000 A 
ENDBRANCH  12  13
ENDBRANCH   4  12
TORSDOF 5
ENDMDL
MODEL 4
REMARK VINA RESULT:    -5.442      2.892      5.086
REMARK INTER + INTRA:          -7.625
REMARK INTER:                  -7.193
REMARK INTRA:                  -0.432
REMARK UNBOUND:                -0.592
REMARK  Name = 
REMARK  8 active torsions:
REMARK  status: ('A' for Active; 'I' for Inactive)
REMARK    1  A    between atoms: C_1  and  N_2
REMARK    2  A    between atoms: N_2  and  C_3
REMARK    3  A    between atoms: N_2  and  C_4
REMARK    4  A    between atoms: C_4  and  C_5
REMARK    5  A    between atoms: C_5  and  N_6
REMARK    6  A    between atoms: N_9  and  C_10
REMARK    7  A    between atoms: C_10  and  C_11
REMARK    8  A    between atoms: N_13  and  C_14
REMARK                            x       y       z     vdW  Elec       q    Type
REMARK                         _______ _______ _______ _____ _____    ______ ____
ROOT
ATOM      1  N   UNL     1      45.385   6.490  11.987  0.00  0.00    +0.000 NA
ATOM      2  C   UNL     1      46.490   7.482  11.964  0.00  0.00    +0.000 C 
ATOM      3  C   UNL     1      47.897   6.864  12.146  0.00  0.00    +0.000 C 
ATOM      4  N   UNL     1      48.044   6.062  13.380  0.00  0.00    +0.000 NA
ATOM      5  C   UNL     1      46.959   5.054  13.406  0.00  0.00    +0.000 C 
ATOM      6  C   UNL     1      45.538   5.635  13.183  0.00  0.00    +0.000 C 
ENDROOT
BRANCH   1   7
ATOM      7  C   UNL     1      45.403   5.733  10.718  0.00  0.00    +0.000 C 
BRANCH   7   8
ATOM      8  C   UNL     1      44.177   4.838  10.430  0.00  0.00    +0.000 C 
BRANCH   8  10
ATOM      9  C   UNL     1      43.422   2.882  11.622  0.00  0.00    +0.000 C 
ATOM     10  N   UNL     1      44.437   3.407  10.708  0.00  0.00    +0.000 NA
ATOM     11  C   UNL     1      44.479   2.600   9.487  0.00  0.00    +0.000 C 
ENDBRANCH   8  10
ENDBRANCH   7   8
ENDBRANCH   1   7
BRANCH   4  12
ATOM     12  C   UNL     1      48.007   6.880  14.607  0.00  0.00    +0.000 C 
BRANCH  12  13
ATOM     13  C   UNL     1      48.897   6.297  15.662  0.00  0.00    +0.000 A 
ATOM     14  C   UNL     1      50.204   6.671  15.921  0.00  0.00    +0.000 A 
ATOM     15  N   UNL     1      50.700   5.840  16.890  0.00  0.00    +0.000 N 
ATOM     16  C   UNL     1      52.076   5.839  17.337  0.00  0.00    +0.000 C 
ATOM     17  C   UNL     1      49.719   4.982  17.329  0.00  0.00    +0.000 A 
ATOM     18  C   UNL     1      49.728   3.993  18.315  0.00  0.00    +0.000 A 
ATOM     19  C   UNL     1      48.538   3.294  18.465  0.00  0.00    +0.000 A 
ATOM     20  N   UNL     1      47.421   3.495  17.736  0.00  0.00    +0.000 NA
ATOM     21  C   UNL     1      47.436   4.453  16.777  0.00  0.00    +0.000 A 
ATOM     22  C   UNL     1      48.579   5.238  16.562  0.00  0.00    +0.000 A 
ENDBRANCH  12  13
ENDBRANCH   4  12
TORSDOF 5
ENDMDL
MODEL 5
REMARK VINA RESULT:    -5.221      1.998      7.096
REMARK INTER + INTRA:          -7.340
REMARK INTER:                  -6.825
REMARK INTRA:                  -0.515
REMARK UNBOUND:                -0.592
REMARK  Name = 
REMARK  8 active torsions:
REMARK  status: ('A' for Active; 'I' for Inactive)
REMARK    1  A    between atoms: C_1  and  N_2
REMARK    2  A    between atoms: N_2  and  C_3
REMARK    3  A    between atoms: N_2  and  C_4
REMARK    4  A    between atoms: C_4  and  C_5
REMARK    5  A    between atoms: C_5  and  N_6
REMARK    6  A    between atoms: N_9  and  C_10
REMARK    7  A    between atoms: C_10  and  C_11
REMARK    8  A    between atoms: N_13  and  C_14
REMARK                            x       y       z     vdW  Elec       q    Type
REMARK                         _______ _______ _______ _____ _____    ______ ____
ROOT
ATOM      1  N   UNL     1      48.406   7.708  14.660  0.00  0.00    +0.000 NA
ATOM      2  C   UNL     1      47.972   6.411  14.080  0.00  0.00    +0.000 C 
ATOM      3  C   UNL     1      48.201   6.296  12.553  0.00  0.00    +0.000 C 
ATOM      4  N   UNL     1      47.559   7.372  11.768  0.00  0.00    +0.000 NA
ATOM      5  C   UNL     1      48.000   8.672  12.324  0.00  0.00    +0.000 C 
ATOM      6  C   UNL     1      47.824   8.806  13.860  0.00  0.00    +0.000 C 
ENDROOT
BRANCH   1   7
ATOM      7  C   UNL     1      49.883   7.735  14.708  0.00  0.00    +0.000 C 
BRANCH   7   8
ATOM      8  C   UNL     1      50.541   7.210  16.003  0.00  0.00    +0.000 C 
BRANCH   8  10
ATOM      9  C   UNL     1      52.744   6.308  16.389  0.00  0.00    +0.000 C 
ATOM     10  N   UNL     1      51.988   7.520  16.073  0.00  0.00    +0.000 NA
ATOM     11  C   UNL     1      52.491   8.118  14.835  0.00  0.00    +0.000 C 
ENDBRANCH   8  10
ENDBRANCH   7   8
ENDBRANCH   1   7
BRANCH   4  12
ATOM     12  C   UNL     1      46.086   7.289  11.773  0.00  0.00    +0.000 C 
BRANCH  12  13
ATOM     13  C   UNL     1      45.623   6.033  11.101  0.00  0.00    +0.000 A 
ATOM     14  C   UNL     1      45.848   5.688   9.780  0.00  0.00    +0.000 A 
ATOM     15  N   UNL     1      45.184   4.517   9.528  0.00  0.00    +0.000 N 
ATOM     16  C   UNL     1      45.078   3.904   8.221  0.00  0.00    +0.000 C 
ATOM     17  C   UNL     1      44.597   4.044  10.678  0.00  0.00    +0.000 A 
ATOM     18  C   UNL     1      43.858   2.887  10.932  0.00  0.00    +0.000 A 
ATOM     19  C   UNL     1      43.391   2.756  12.234  0.00  0.00    +0.000 A 
ATOM     20  N   UNL     1      43.592   3.648  13.226  0.00  0.00    +0.000 NA
ATOM     21  C   UNL     1      44.304   4.769  12.956  0.00  0.00    +0.000 A 
ATOM     22  C   UNL     1      44.845   4.987  11.680  0.00  0.00    +0.000 A 
ENDBRANCH  12  13
ENDBRANCH   4  12
TORSDOF 5
ENDMDL
MODEL 6
REMARK VINA RESULT:    -5.077      1.844      7.068
REMARK INTER + INTRA:          -7.154
REMARK INTER:                  -6.645
REMARK INTRA:                  -0.509
REMARK UNBOUND:                -0.592
REMARK  Name = 
REMARK  8 active torsions:
REMARK  status: ('A' for Active; 'I' for Inactive)
REMARK    1  A    between atoms: C_1  and  N_2
REMARK    2  A    between atoms: N_2  and  C_3
REMARK    3  A    between atoms: N_2  and  C_4
REMARK    4  A    between atoms: C_4  and  C_5
REMARK    5  A    between atoms: C_5  and  N_6
REMARK    6  A    between atoms: N_9  and  C_10
REMARK    7  A    between atoms: C_10  and  C_11
REMARK    8  A    between atoms: N_13  and  C_14
REMARK                            x       y       z     vdW  Elec       q    Type
REMARK                         _______ _______ _______ _____ _____    ______ ____
ROOT
ATOM      1  N   UNL     1      48.479   7.624  14.721  0.00  0.00    +0.000 NA
ATOM      2  C   UNL     1      47.914   6.291  14.385  0.00  0.00    +0.000 C 
ATOM      3  C   UNL     1      47.928   5.964  12.872  0.00  0.00    +0.000 C 
ATOM      4  N   UNL     1      47.235   6.967  12.035  0.00  0.00    +0.000 NA
ATOM      5  C   UNL     1      47.803   8.299  12.346  0.00  0.00    +0.000 C 
ATOM      6  C   UNL     1      47.843   8.642  13.859  0.00  0.00    +0.000 C 
ENDROOT
BRANCH   1   7
ATOM      7  C   UNL     1      49.948   7.564  14.575  0.00  0.00    +0.000 C 
BRANCH   7   8
ATOM      8  C   UNL     1      50.685   8.916  14.451  0.00  0.00    +0.000 C 
BRANCH   8  10
ATOM      9  C   UNL     1      51.347  10.489  12.748  0.00  0.00    +0.000 C 
ATOM     10  N   UNL     1      51.361   9.081  13.144  0.00  0.00    +0.000 NA
ATOM     11  C   UNL     1      52.735   8.576  13.159  0.00  0.00    +0.000 C 
ENDBRANCH   8  10
ENDBRANCH   7   8
ENDBRANCH   1   7
BRANCH   4  12
ATOM     12  C   UNL     1      45.774   6.977  12.240  0.00  0.00    +0.000 C 
BRANCH  12  13
ATOM     13  C   UNL     1      45.158   5.706  11.739  0.00  0.00    +0.000 A 
ATOM     14  C   UNL     1      44.372   4.838  12.476  0.00  0.00    +0.000 A 
ATOM     15  N   UNL     1      44.087   3.752  11.692  0.00  0.00    +0.000 N 
ATOM     16  C   UNL     1      43.391   2.572  12.155  0.00  0.00    +0.000 C 
ATOM     17  C   UNL     1      44.601   3.929  10.429  0.00  0.00    +0.000 A 
ATOM     18  C   UNL     1      44.539   3.131   9.284  0.00  0.00    +0.000 A 
ATOM     19  C   UNL     1      45.215   3.629   8.178  0.00  0.00    +0.000 A 
ATOM     20  N   UNL     1      45.909   4.786   8.145  0.00  0.00    +0.000 NA
ATOM     21  C   UNL     1      45.964   5.541   9.270  0.00  0.00    +0.000 A 
ATOM     22  C   UNL     1      45.293   5.144  10.436  0.00  0.00    +0.000 A 
ENDBRANCH  12  13
ENDBRANCH   4  12
TORSDOF 5
ENDMDL
MODEL 7
REMARK VINA RESULT:    -4.627      2.398      7.689
REMARK INTER + INTRA:          -6.571
REMARK INTER:                  -6.037
REMARK INTRA:                  -0.534
REMARK UNBOUND:                -0.592
REMARK  Name = 
REMARK  8 active torsions:
REMARK  status: ('A' for Active; 'I' for Inactive)
REMARK    1  A    between atoms: C_1  and  N_2
REMARK    2  A    between atoms: N_2  and  C_3
REMARK    3  A    between atoms: N_2  and  C_4
REMARK    4  A    between atoms: C_4  and  C_5
REMARK    5  A    between atoms: C_5  and  N_6
REMARK    6  A    between atoms: N_9  and  C_10
REMARK    7  A    between atoms: C_10  and  C_11
REMARK    8  A    between atoms: N_13  and  C_14
REMARK                            x       y       z     vdW  Elec       q    Type
REMARK                         _______ _______ _______ _____ _____    ______ ____
ROOT
ATOM      1  N   UNL     1      50.034   9.003  13.616  0.00  0.00    +0.000 NA
ATOM      2  C   UNL     1      48.830   8.478  14.309  0.00  0.00    +0.000 C 
ATOM      3  C   UNL     1      48.438   7.040  13.890  0.00  0.00    +0.000 C 
ATOM      4  N   UNL     1      48.223   6.877  12.436  0.00  0.00    +0.000 NA
ATOM      5  C   UNL     1      49.427   7.378  11.734  0.00  0.00    +0.000 C 
ATOM      6  C   UNL     1      49.873   8.802  12.161  0.00  0.00    +0.000 C 
ENDROOT
BRANCH   1   7
ATOM      7  C   UNL     1      51.229   8.334  14.172  0.00  0.00    +0.000 C 
BRANCH   7   8
ATOM      8  C   UNL     1      52.136   9.187  15.086  0.00  0.00    +0.000 C 
BRANCH   8  10
ATOM      9  C   UNL     1      51.419   7.853  16.962  0.00  0.00    +0.000 C 
ATOM     10  N   UNL     1      51.667   9.215  16.491  0.00  0.00    +0.000 NA
ATOM     11  C   UNL     1      52.613   9.890  17.381  0.00  0.00    +0.000 C 
ENDBRANCH   8  10
ENDBRANCH   7   8
ENDBRANCH   1   7
BRANCH   4  12
ATOM     12  C   UNL     1      47.021   7.579  11.949  0.00  0.00    +0.000 C 
BRANCH  12  13
ATOM     13  C   UNL     1      45.870   6.629  11.809  0.00  0.00    +0.000 A 
ATOM     14  C   UNL     1      44.914   6.363  12.774  0.00  0.00    +0.000 A 
ATOM     15  N   UNL     1      44.096   5.372  12.299  0.00  0.00    +0.000 N 
ATOM     16  C   UNL     1      43.053   4.736  13.073  0.00  0.00    +0.000 C 
ATOM     17  C   UNL     1      44.445   5.043  11.010  0.00  0.00    +0.000 A 
ATOM     18  C   UNL     1      43.893   4.134  10.106  0.00  0.00    +0.000 A 
ATOM     19  C   UNL     1      44.542   4.048   8.881  0.00  0.00    +0.000 A 
ATOM     20  N   UNL     1      45.638   4.753   8.530  0.00  0.00    +0.000 NA
ATOM     21  C   UNL     1      46.164   5.623   9.426  0.00  0.00    +0.000 A 
ATOM     22  C   UNL     1      45.568   5.808  10.683  0.00  0.00    +0.000 A 
ENDBRANCH  12  13
ENDBRANCH   4  12
TORSDOF 5
ENDMDL
MODEL 8
REMARK VINA RESULT:    -4.558      2.294      4.435
REMARK INTER + INTRA:          -6.483
REMARK INTER:                  -5.961
REMARK INTRA:                  -0.521
REMARK UNBOUND:                -0.592
REMARK  Name = 
REMARK  8 active torsions:
REMARK  status: ('A' for Active; 'I' for Inactive)
REMARK    1  A    between atoms: C_1  and  N_2
REMARK    2  A    between atoms: N_2  and  C_3
REMARK    3  A    between atoms: N_2  and  C_4
REMARK    4  A    between atoms: C_4  and  C_5
REMARK    5  A    between atoms: C_5  and  N_6
REMARK    6  A    between atoms: N_9  and  C_10
REMARK    7  A    between atoms: C_10  and  C_11
REMARK    8  A    between atoms: N_13  and  C_14
REMARK                            x       y       z     vdW  Elec       q    Type
REMARK                         _______ _______ _______ _____ _____    ______ ____
ROOT
ATOM      1  N   UNL     1      44.975   6.453  11.278  0.00  0.00    +0.000 NA
ATOM      2  C   UNL     1      46.329   5.934  11.598  0.00  0.00    +0.000 C 
ATOM      3  C   UNL     1      46.858   6.365  12.987  0.00  0.00    +0.000 C 
ATOM      4  N   UNL     1      46.881   7.830  13.192  0.00  0.00    +0.000 NA
ATOM      5  C   UNL     1      45.529   8.357  12.896  0.00  0.00    +0.000 C 
ATOM      6  C   UNL     1      44.951   7.910  11.527  0.00  0.00    +0.000 C 
ENDROOT
BRANCH   1   7
ATOM      7  C   UNL     1      43.981   5.705  12.076  0.00  0.00    +0.000 C 
BRANCH   7   8
ATOM      8  C   UNL     1      42.900   4.934  11.287  0.00  0.00    +0.000 C 
BRANCH   8  10
ATOM      9  C   UNL     1      44.146   3.241  10.106  0.00  0.00    +0.000 C 
ATOM     10  N   UNL     1      43.190   3.485  11.186  0.00  0.00    +0.000 NA
ATOM     11  C   UNL     1      43.697   2.930  12.442  0.00  0.00    +0.000 C 
ENDBRANCH   8  10
ENDBRANCH   7   8
ENDBRANCH   1   7
BRANCH   4  12
ATOM     12  C   UNL     1      47.888   8.512  12.357  0.00  0.00    +0.000 C 
BRANCH  12  13
ATOM     13  C   UNL     1      49.206   8.585  13.066  0.00  0.00    +0.000 A 
ATOM     14  C   UNL     1      49.391   8.854  14.411  0.00  0.00    +0.000 A 
ATOM     15  N   UNL     1      50.738   8.928  14.647  0.00  0.00    +0.000 N 
ATOM     16  C   UNL     1      51.324   9.318  15.912  0.00  0.00    +0.000 C 
ATOM     17  C   UNL     1      51.440   8.629  13.503  0.00  0.00    +0.000 A 
ATOM     18  C   UNL     1      52.811   8.536  13.257  0.00  0.00    +0.000 A 
ATOM     19  C   UNL     1      53.159   8.236  11.946  0.00  0.00    +0.000 A 
ATOM     20  N   UNL     1      52.286   8.048  10.933  0.00  0.00    +0.000 NA
ATOM     21  C   UNL     1      50.960   8.153  11.192  0.00  0.00    +0.000 A 
ATOM     22  C   UNL     1      50.500   8.424  12.489  0.00  0.00    +0.000 A 
ENDBRANCH  12  13
ENDBRANCH   4  12
TORSDOF 5
ENDMDL
MODEL 9
REMARK VINA RESULT:    -4.352      2.111      4.342
REMARK INTER + INTRA:          -6.216
REMARK INTER:                  -5.765
REMARK INTRA:                  -0.451
REMARK UNBOUND:                -0.592
REMARK  Name = 
REMARK  8 active torsions:
REMARK  status: ('A' for Active; 'I' for Inactive)
REMARK    1  A    between atoms: C_1  and  N_2
REMARK    2  A    between atoms: N_2  and  C_3
REMARK    3  A    between atoms: N_2  and  C_4
REMARK    4  A    between atoms: C_4  and  C_5
REMARK    5  A    between atoms: C_5  and  N_6
REMARK    6  A    between atoms: N_9  and  C_10
REMARK    7  A    between atoms: C_10  and  C_11
REMARK    8  A    between atoms: N_13  and  C_14
REMARK                            x       y       z     vdW  Elec       q    Type
REMARK                         _______ _______ _______ _____ _____    ______ ____
ROOT
ATOM      1  N   UNL     1      45.053   6.649  11.195  0.00  0.00    +0.000 NA
ATOM      2  C   UNL     1      46.504   6.362  11.326  0.00  0.00    +0.000 C 
ATOM      3  C   UNL     1      47.106   6.768  12.693  0.00  0.00    +0.000 C 
ATOM      4  N   UNL     1      46.900   8.191  13.040  0.00  0.00    +0.000 NA
ATOM      5  C   UNL     1      45.452   8.484  12.933  0.00  0.00    +0.000 C 
ATOM      6  C   UNL     1      44.807   8.051  11.590  0.00  0.00    +0.000 C 
ENDROOT
BRANCH   1   7
ATOM      7  C   UNL     1      44.302   5.669  12.008  0.00  0.00    +0.000 C 
BRANCH   7   8
ATOM      8  C   UNL     1      43.045   5.050  11.357  0.00  0.00    +0.000 C 
BRANCH   8  10
ATOM      9  C   UNL     1      44.214   3.406  10.036  0.00  0.00    +0.000 C 
ATOM     10  N   UNL     1      43.202   3.605  11.073  0.00  0.00    +0.000 NA
ATOM     11  C   UNL     1      43.550   2.836  12.269  0.00  0.00    +0.000 C 
ENDBRANCH   8  10
ENDBRANCH   7   8
ENDBRANCH   1   7
BRANCH   4  12
ATOM     12  C   UNL     1      47.670   9.111  12.183  0.00  0.00    +0.000 C 
BRANCH  12  13
ATOM     13  C   UNL     1      49.142   8.932  12.400  0.00  0.00    +0.000 A 
ATOM     14  C   UNL     1      50.076   8.626  11.426  0.00  0.00    +0.000 A 
ATOM     15  N   UNL     1      51.289   8.453  12.039  0.00  0.00    +0.000 N 
ATOM     16  C   UNL     1      52.486   8.000  11.365  0.00  0.00    +0.000 C 
ATOM     17  C   UNL     1      51.185   8.722  13.384  0.00  0.00    +0.000 A 
ATOM     18  C   UNL     1      52.139   8.723  14.404  0.00  0.00    +0.000 A 
ATOM     19  C   UNL     1      51.653   9.021  15.670  0.00  0.00    +0.000 A 
ATOM     20  N   UNL     1      50.363   9.288  15.965  0.00  0.00    +0.000 NA
ATOM     21  C   UNL     1      49.452   9.273  14.962  0.00  0.00    +0.000 A 
ATOM     22  C   UNL     1      49.842   9.011  13.640  0.00  0.00    +0.000 A 
ENDBRANCH  12  13
ENDBRANCH   4  12
TORSDOF 5
ENDMDL
