MODEL 1
REMARK VINA RESULT:    -8.476      0.000      0.000
REMARK INTER + INTRA:         -13.335
REMARK INTER:                 -12.193
REMARK INTRA:                  -1.143
REMARK UNBOUND:                -1.143
REMARK  Name = 
REMARK  8 active torsions:
REMARK  status: ('A' for Active; 'I' for Inactive)
REMARK    1  A    between atoms: N_1  and  C_2
REMARK    2  A    between atoms: C_2  and  C_3
REMARK    3  A    between atoms: C_3  and  N_4
REMARK    4  A    between atoms: C_3  and  C_13
REMARK    5  A    between atoms: C_5  and  C_7
REMARK    6  A    between atoms: C_16  and  C_17
REMARK    7  A    between atoms: C_17  and  N_18
REMARK    8  A    between atoms: C_19  and  C_21
REMARK                            x       y       z     vdW  Elec       q    Type
REMARK                         _______ _______ _______ _____ _____    ______ ____
ROOT
ATOM      1  C   UNL     1      45.597   5.167  11.952  0.00  0.00    +0.000 A 
ATOM      2  C   UNL     1      46.312   6.259  11.431  0.00  0.00    +0.000 A 
ATOM      3  C   UNL     1      47.315   6.881  12.180  0.00  0.00    +0.000 A 
ATOM      4  C   UNL     1      47.630   6.423  13.465  0.00  0.00    +0.000 A 
ATOM      5  C   UNL     1      46.918   5.335  13.987  0.00  0.00    +0.000 A 
ATOM      6  C   UNL     1      45.918   4.711  13.238  0.00  0.00    +0.000 A 
ENDROOT
BRANCH   1   7
ATOM      7  C   UNL     1      44.510   4.506  11.115  0.00  0.00    +0.000 C 
BRANCH   7   8
ATOM      8  N   UNL     1      45.085   3.998   9.865  0.00  0.00    +0.000 N 
ATOM      9  C   UNL     1      44.744   2.756   9.380  0.00  0.00    +0.000 C 
ATOM     10  O   UNL     1      43.976   2.016   9.983  0.00  0.00    +0.000 OA
ATOM     11  H   UNL     1      45.612   4.635   9.286  0.00  0.00    +0.000 HD
BRANCH   9  12
ATOM     12  C   UNL     1      45.338   2.386   8.012  0.00  0.00    +0.000 C 
ATOM     13  C   UNL     1      46.332   1.223   8.198  0.00  0.00    +0.000 C 
ATOM     14  C   UNL     1      47.075   0.853   6.920  0.00  0.00    +0.000 C 
ATOM     15  C   UNL     1      47.769   2.064   6.316  0.00  0.00    +0.000 C 
ATOM     16  C   UNL     1      46.768   3.184   6.052  0.00  0.00    +0.000 C 
ATOM     17  C   UNL     1      46.009   3.583   7.320  0.00  0.00    +0.000 C 
ENDBRANCH   9  12
ENDBRANCH   7   8
BRANCH   7  18
ATOM     18  C   UNL     1      43.309   5.460  10.834  0.00  0.00    +0.000 C 
BRANCH  18  19
ATOM     19  N   UNL     1      42.500   5.795  12.015  0.00  0.00    +0.000 NA
ATOM     20  H   UNL     1      41.945   4.984  12.286  0.00  0.00    +0.000 HD
ATOM     21  H   UNL     1      41.834   6.532  11.779  0.00  0.00    +0.000 HD
ENDBRANCH  18  19
ENDBRANCH   7  18
ENDBRANCH   1   7
BRANCH   4  22
ATOM     22  C   UNL     1      48.660   7.128  14.308  0.00  0.00    +0.000 C 
BRANCH  22  23
ATOM     23  N   UNL     1      48.311   7.046  15.705  0.00  0.00    +0.000 N 
ATOM     24  C   UNL     1      49.142   6.448  16.614  0.00  0.00    +0.000 C 
ATOM     25  O   UNL     1      50.231   5.981  16.289  0.00  0.00    +0.000 OA
ATOM     26  H   UNL     1      47.345   7.238  15.953  0.00  0.00    +0.000 HD
BRANCH  24  27
ATOM     27  C   UNL     1      48.695   6.447  18.013  0.00  0.00    +0.000 A 
ATOM     28  C   UNL     1      48.771   5.275  18.754  0.00  0.00    +0.000 A 
ATOM     29  S   UNL     1      48.270   5.453  20.373  0.00  0.00    +0.000 S 
ATOM     30  C   UNL     1      47.882   7.092  20.129  0.00  0.00    +0.000 A 
ATOM     31  N   UNL     1      47.367   7.844  21.139  0.00  0.00    +0.000 NA
ATOM     32  C   UNL     1      47.085   9.059  20.808  0.00  0.00    +0.000 A 
ATOM     33  N   UNL     1      47.277   9.592  19.561  0.00  0.00    +0.000 N 
ATOM     34  C   UNL     1      47.821   8.880  18.518  0.00  0.00    +0.000 A 
ATOM     35  O   UNL     1      48.013   9.400  17.423  0.00  0.00    +0.000 OA
ATOM     36  C   UNL     1      48.145   7.501  18.834  0.00  0.00    +0.000 A 
ATOM     37  H   UNL     1      47.039  10.554  19.368  0.00  0.00    +0.000 HD
ENDBRANCH  24  27
ENDBRANCH  22  23
ENDBRANCH   4  22
TORSDOF 8
ENDMDL
MODEL 2
REMARK VINA RESULT:    -8.406      1.518      2.192
REMARK INTER + INTRA:         -13.234
REMARK INTER:                 -12.374
REMARK INTRA:                  -0.860
REMARK UNBOUND:                -1.143
REMARK  Name = 
REMARK  8 active torsions:
REMARK  status: ('A' for Active; 'I' for Inactive)
REMARK    1  A    between atoms: N_1  and  C_2
REMARK    2  A    between atoms: C_2  and  C_3
REMARK    3  A    between atoms: C_3  and  N_4
REMARK    4  A    between atoms: C_3  and  C_13
REMARK    5  A    between atoms: C_5  and  C_7
REMARK    6  A    between atoms: C_16  and  C_17
REMARK    7  A    between atoms: C_17  and  N_18
REMARK    8  A    between atoms: C_19  and  C_21
REMARK                            x       y       z     vdW  Elec       q    Type
REMARK                         _______ _______ _______ _____ _____    ______ ____
ROOT
ATOM      1  C   UNL     1      45.514   5.616  11.948  0.00  0.00    +0.000 A 
ATOM      2  C   UNL     1      45.730   6.946  11.552  0.00  0.00    +0.000 A 
ATOM      3  C   UNL     1      46.686   7.738  12.195  0.00  0.00    +0.000 A 
ATOM      4  C   UNL     1      47.453   7.215  13.243  0.00  0.00    +0.000 A 
ATOM      5  C   UNL     1      47.239   5.889  13.640  0.00  0.00    +0.000 A 
ATOM      6  C   UNL     1      46.286   5.097  12.997  0.00  0.00    +0.000 A 
ENDROOT
BRANCH   1   7
ATOM      7  C   UNL     1      44.467   4.774  11.230  0.00  0.00    +0.000 C 
BRANCH   7   8
ATOM      8  N   UNL     1      45.028   4.236   9.987  0.00  0.00    +0.000 N 
ATOM      9  C   UNL     1      44.672   2.987   9.529  0.00  0.00    +0.000 C 
ATOM     10  O   UNL     1      43.901   2.267  10.152  0.00  0.00    +0.000 OA
ATOM     11  H   UNL     1      45.557   4.856   9.392  0.00  0.00    +0.000 HD
BRANCH   9  12
ATOM     12  C   UNL     1      45.253   2.584   8.165  0.00  0.00    +0.000 C 
ATOM     13  C   UNL     1      46.196   1.382   8.361  0.00  0.00    +0.000 C 
ATOM     14  C   UNL     1      46.926   0.972   7.087  0.00  0.00    +0.000 C 
ATOM     15  C   UNL     1      47.672   2.149   6.478  0.00  0.00    +0.000 C 
ATOM     16  C   UNL     1      46.721   3.308   6.204  0.00  0.00    +0.000 C 
ATOM     17  C   UNL     1      45.976   3.747   7.468  0.00  0.00    +0.000 C 
ENDBRANCH   9  12
ENDBRANCH   7   8
BRANCH   7  18
ATOM     18  C   UNL     1      43.150   5.564  10.956  0.00  0.00    +0.000 C 
BRANCH  18  19
ATOM     19  N   UNL     1      42.373   5.899  12.157  0.00  0.00    +0.000 NA
ATOM     20  H   UNL     1      43.002   5.993  12.953  0.00  0.00    +0.000 HD
ATOM     21  H   UNL     1      41.738   5.132  12.383  0.00  0.00    +0.000 HD
ENDBRANCH  18  19
ENDBRANCH   7  18
ENDBRANCH   1   7
BRANCH   4  22
ATOM     22  C   UNL     1      48.437   8.079  13.988  0.00  0.00    +0.000 C 
BRANCH  22  23
ATOM     23  N   UNL     1      48.305   7.883  15.411  0.00  0.00    +0.000 N 
ATOM     24  C   UNL     1      49.210   7.135  16.116  0.00  0.00    +0.000 C 
ATOM     25  O   UNL     1      50.188   6.623  15.577  0.00  0.00    +0.000 OA
ATOM     26  H   UNL     1      47.410   8.119  15.830  0.00  0.00    +0.000 HD
BRANCH  24  27
ATOM     27  C   UNL     1      48.989   7.027  17.564  0.00  0.00    +0.000 A 
ATOM     28  C   UNL     1      48.824   8.180  18.318  0.00  0.00    +0.000 A 
ATOM     29  S   UNL     1      48.520   7.883  19.969  0.00  0.00    +0.000 S 
ATOM     30  C   UNL     1      48.650   6.202  19.745  0.00  0.00    +0.000 A 
ATOM     31  N   UNL     1      48.514   5.347  20.794  0.00  0.00    +0.000 NA
ATOM     32  C   UNL     1      48.671   4.102  20.491  0.00  0.00    +0.000 A 
ATOM     33  N   UNL     1      48.946   3.634  19.233  0.00  0.00    +0.000 N 
ATOM     34  C   UNL     1      49.064   4.457  18.138  0.00  0.00    +0.000 A 
ATOM     35  O   UNL     1      49.274   4.001  17.018  0.00  0.00    +0.000 OA
ATOM     36  C   UNL     1      48.907   5.871  18.426  0.00  0.00    +0.000 A 
ATOM     37  H   UNL     1      49.053   2.645  19.062  0.00  0.00    +0.000 HD
ENDBRANCH  24  27
ENDBRANCH  22  23
ENDBRANCH   4  22
TORSDOF 8
ENDMDL
MODEL 3
REMARK VINA RESULT:    -8.182      2.466      3.369
REMARK INTER + INTRA:         -12.913
REMARK INTER:                 -11.680
REMARK INTRA:                  -1.233
REMARK UNBOUND:                -1.143
REMARK  Name = 
REMARK  8 active torsions:
REMARK  status: ('A' for Active; 'I' for Inactive)
REMARK    1  A    between atoms: N_1  and  C_2
REMARK    2  A    between atoms: C_2  and  C_3
REMARK    3  A    between atoms: C_3  and  N_4
REMARK    4  A    between atoms: C_3  and  C_13
REMARK    5  A    between atoms: C_5  and  C_7
REMARK    6  A    between atoms: C_16  and  C_17
REMARK    7  A    between atoms: C_17  and  N_18
REMARK    8  A    between atoms: C_19  and  C_21
REMARK                            x       y       z     vdW  Elec       q    Type
REMARK                         _______ _______ _______ _____ _____    ______ ____
ROOT
ATOM      1  C   UNL     1      45.380   5.822  12.164  0.00  0.00    +0.000 A 
ATOM      2  C   UNL     1      45.340   7.222  12.265  0.00  0.00    +0.000 A 
ATOM      3  C   UNL     1      46.309   7.915  12.999  0.00  0.00    +0.000 A 
ATOM      4  C   UNL     1      47.343   7.223  13.641  0.00  0.00    +0.000 A 
ATOM      5  C   UNL     1      47.384   5.826  13.542  0.00  0.00    +0.000 A 
ATOM      6  C   UNL     1      46.418   5.134  12.808  0.00  0.00    +0.000 A 
ENDROOT
BRANCH   1   7
ATOM      7  C   UNL     1      44.313   5.092  11.358  0.00  0.00    +0.000 C 
BRANCH   7   8
ATOM      8  N   UNL     1      44.906   4.537  10.137  0.00  0.00    +0.000 N 
ATOM      9  C   UNL     1      44.554   3.287   9.682  0.00  0.00    +0.000 C 
ATOM     10  O   UNL     1      43.760   2.578  10.290  0.00  0.00    +0.000 OA
ATOM     11  H   UNL     1      45.456   5.148   9.551  0.00  0.00    +0.000 HD
BRANCH   9  12
ATOM     12  C   UNL     1      45.170   2.866   8.339  0.00  0.00    +0.000 C 
ATOM     13  C   UNL     1      45.999   1.585   8.550  0.00  0.00    +0.000 C 
ATOM     14  C   UNL     1      46.758   1.143   7.304  0.00  0.00    +0.000 C 
ATOM     15  C   UNL     1      47.630   2.267   6.764  0.00  0.00    +0.000 C 
ATOM     16  C   UNL     1      46.793   3.507   6.473  0.00  0.00    +0.000 C 
ATOM     17  C   UNL     1      46.022   3.979   7.709  0.00  0.00    +0.000 C 
ENDBRANCH   9  12
ENDBRANCH   7   8
BRANCH   7  18
ATOM     18  C   UNL     1      43.089   6.000  11.027  0.00  0.00    +0.000 C 
BRANCH  18  19
ATOM     19  N   UNL     1      41.896   5.747  11.846  0.00  0.00    +0.000 NA
ATOM     20  H   UNL     1      41.066   6.051  11.338  0.00  0.00    +0.000 HD
ATOM     21  H   UNL     1      41.934   6.312  12.696  0.00  0.00    +0.000 HD
ENDBRANCH  18  19
ENDBRANCH   7  18
ENDBRANCH   1   7
BRANCH   4  22
ATOM     22  C   UNL     1      48.352   7.951  14.490  0.00  0.00    +0.000 C 
BRANCH  22  23
ATOM     23  N   UNL     1      49.281   7.020  15.080  0.00  0.00    +0.000 N 
ATOM     24  C   UNL     1      49.566   7.047  16.419  0.00  0.00    +0.000 C 
ATOM     25  O   UNL     1      49.024   7.844  17.182  0.00  0.00    +0.000 OA
ATOM     26  H   UNL     1      49.882   6.501  14.447  0.00  0.00    +0.000 HD
BRANCH  24  27
ATOM     27  C   UNL     1      50.508   6.034  16.914  0.00  0.00    +0.000 A 
ATOM     28  C   UNL     1      51.781   6.421  17.312  0.00  0.00    +0.000 A 
ATOM     29  S   UNL     1      52.731   5.140  17.913  0.00  0.00    +0.000 S 
ATOM     30  C   UNL     1      51.493   4.012  17.614  0.00  0.00    +0.000 A 
ATOM     31  N   UNL     1      51.672   2.692  17.890  0.00  0.00    +0.000 NA
ATOM     32  C   UNL     1      50.668   1.942  17.582  0.00  0.00    +0.000 A 
ATOM     33  N   UNL     1      49.498   2.392  17.029  0.00  0.00    +0.000 N 
ATOM     34  C   UNL     1      49.261   3.720  16.759  0.00  0.00    +0.000 A 
ATOM     35  O   UNL     1      48.187   4.093  16.298  0.00  0.00    +0.000 OA
ATOM     36  C   UNL     1      50.365   4.606  17.077  0.00  0.00    +0.000 A 
ATOM     37  H   UNL     1      48.747   1.752  16.816  0.00  0.00    +0.000 HD
ENDBRANCH  24  27
ENDBRANCH  22  23
ENDBRANCH   4  22
TORSDOF 8
ENDMDL
MODEL 4
REMARK VINA RESULT:    -7.614      2.512      3.014
REMARK INTER + INTRA:         -12.095
REMARK INTER:                 -10.707
REMARK INTRA:                  -1.388
REMARK UNBOUND:                -1.143
REMARK  Name = 
REMARK  8 active torsions:
REMARK  status: ('A' for Active; 'I' for Inactive)
REMARK    1  A    between atoms: N_1  and  C_2
REMARK    2  A    between atoms: C_2  and  C_3
REMARK    3  A    between atoms: C_3  and  N_4
REMARK    4  A    between atoms: C_3  and  C_13
REMARK    5  A    between atoms: C_5  and  C_7
REMARK    6  A    between atoms: C_16  and  C_17
REMARK    7  A    between atoms: C_17  and  N_18
REMARK    8  A    between atoms: C_19  and  C_21
REMARK                            x       y       z     vdW  Elec       q    Type
REMARK                         _______ _______ _______ _____ _____    ______ ____
ROOT
ATOM      1  C   UNL     1      46.207   7.365  12.293  0.00  0.00    +0.000 A 
ATOM      2  C   UNL     1      46.324   8.515  13.091  0.00  0.00    +0.000 A 
ATOM      3  C   UNL     1      47.544   8.854  13.685  0.00  0.00    +0.000 A 
ATOM      4  C   UNL     1      48.676   8.054  13.489  0.00  0.00    +0.000 A 
ATOM      5  C   UNL     1      48.562   6.905  12.695  0.00  0.00    +0.000 A 
ATOM      6  C   UNL     1      47.345   6.568  12.099  0.00  0.00    +0.000 A 
ENDROOT
BRANCH   1   7
ATOM      7  C   UNL     1      44.868   7.019  11.656  0.00  0.00    +0.000 C 
BRANCH   7   8
ATOM      8  N   UNL     1      45.057   5.991  10.627  0.00  0.00    +0.000 N 
ATOM      9  C   UNL     1      44.132   4.987  10.448  0.00  0.00    +0.000 C 
ATOM     10  O   UNL     1      43.135   4.894  11.155  0.00  0.00    +0.000 OA
ATOM     11  H   UNL     1      45.795   6.120   9.950  0.00  0.00    +0.000 HD
BRANCH   9  12
ATOM     12  C   UNL     1      44.398   4.035   9.273  0.00  0.00    +0.000 C 
ATOM     13  C   UNL     1      44.550   2.602   9.817  0.00  0.00    +0.000 C 
ATOM     14  C   UNL     1      44.939   1.587   8.748  0.00  0.00    +0.000 C 
ATOM     15  C   UNL     1      46.197   2.020   8.009  0.00  0.00    +0.000 C 
ATOM     16  C   UNL     1      46.013   3.404   7.397  0.00  0.00    +0.000 C 
ATOM     17  C   UNL     1      45.628   4.448   8.449  0.00  0.00    +0.000 C 
ENDBRANCH   9  12
ENDBRANCH   7   8
BRANCH   7  18
ATOM     18  C   UNL     1      44.143   8.271  11.073  0.00  0.00    +0.000 C 
BRANCH  18  19
ATOM     19  N   UNL     1      42.682   8.149  10.982  0.00  0.00    +0.000 NA
ATOM     20  H   UNL     1      42.320   8.870  10.359  0.00  0.00    +0.000 HD
ATOM     21  H   UNL     1      42.263   8.325  11.896  0.00  0.00    +0.000 HD
ENDBRANCH  18  19
ENDBRANCH   7  18
ENDBRANCH   1   7
BRANCH   4  22
ATOM     22  C   UNL     1      49.976   8.370  14.179  0.00  0.00    +0.000 C 
BRANCH  22  23
ATOM     23  N   UNL     1      49.991   7.815  15.510  0.00  0.00    +0.000 N 
ATOM     24  C   UNL     1      51.124   7.258  16.039  0.00  0.00    +0.000 C 
ATOM     25  O   UNL     1      52.185   7.233  15.419  0.00  0.00    +0.000 OA
ATOM     26  H   UNL     1      49.092   7.643  15.950  0.00  0.00    +0.000 HD
BRANCH  24  27
ATOM     27  C   UNL     1      51.028   6.748  17.413  0.00  0.00    +0.000 A 
ATOM     28  C   UNL     1      51.937   7.182  18.369  0.00  0.00    +0.000 A 
ATOM     29  S   UNL     1      51.656   6.542  19.923  0.00  0.00    +0.000 S 
ATOM     30  C   UNL     1      50.340   5.620  19.365  0.00  0.00    +0.000 A 
ATOM     31  N   UNL     1      49.651   4.807  20.210  0.00  0.00    +0.000 NA
ATOM     32  C   UNL     1      48.700   4.138  19.648  0.00  0.00    +0.000 A 
ATOM     33  N   UNL     1      48.373   4.213  18.320  0.00  0.00    +0.000 N 
ATOM     34  C   UNL     1      49.022   5.042  17.435  0.00  0.00    +0.000 A 
ATOM     35  O   UNL     1      48.677   5.111  16.259  0.00  0.00    +0.000 OA
ATOM     36  C   UNL     1      50.109   5.809  18.014  0.00  0.00    +0.000 A 
ATOM     37  H   UNL     1      47.612   3.666  17.944  0.00  0.00    +0.000 HD
ENDBRANCH  24  27
ENDBRANCH  22  23
ENDBRANCH   4  22
TORSDOF 8
ENDMDL
MODEL 5
REMARK VINA RESULT:    -7.608      3.826      5.474
REMARK INTER + INTRA:         -12.086
REMARK INTER:                 -10.833
REMARK INTRA:                  -1.253
REMARK UNBOUND:                -1.143
REMARK  Name = 
REMARK  8 active torsions:
REMARK  status: ('A' for Active; 'I' for Inactive)
REMARK    1  A    between atoms: N_1  and  C_2
REMARK    2  A    between atoms: C_2  and  C_3
REMARK    3  A    between atoms: C_3  and  N_4
REMARK    4  A    between atoms: C_3  and  C_13
REMARK    5  A    between atoms: C_5  and  C_7
REMARK    6  A    between atoms: C_16  and  C_17
REMARK    7  A    between atoms: C_17  and  N_18
REMARK    8  A    between atoms: C_19  and  C_21
REMARK                            x       y       z     vdW  Elec       q    Type
REMARK                         _______ _______ _______ _____ _____    ______ ____
ROOT
ATOM      1  C   UNL     1      45.825   5.330  12.327  0.00  0.00    +0.000 A 
ATOM      2  C   UNL     1      46.565   6.414  11.829  0.00  0.00    +0.000 A 
ATOM      3  C   UNL     1      47.619   6.961  12.568  0.00  0.00    +0.000 A 
ATOM      4  C   UNL     1      47.960   6.432  13.818  0.00  0.00    +0.000 A 
ATOM      5  C   UNL     1      47.222   5.351  14.318  0.00  0.00    +0.000 A 
ATOM      6  C   UNL     1      46.171   4.802  13.579  0.00  0.00    +0.000 A 
ENDROOT
BRANCH   1   7
ATOM      7  C   UNL     1      44.683   4.751  11.502  0.00  0.00    +0.000 C 
BRANCH   7   8
ATOM      8  N   UNL     1      45.203   4.217  10.238  0.00  0.00    +0.000 N 
ATOM      9  C   UNL     1      44.674   3.076   9.679  0.00  0.00    +0.000 C 
ATOM     10  O   UNL     1      43.775   2.446  10.224  0.00  0.00    +0.000 OA
ATOM     11  H   UNL     1      45.846   4.785   9.707  0.00  0.00    +0.000 HD
BRANCH   9  12
ATOM     12  C   UNL     1      45.240   2.681   8.306  0.00  0.00    +0.000 C 
ATOM     13  C   UNL     1      46.100   1.413   8.467  0.00  0.00    +0.000 C 
ATOM     14  C   UNL     1      46.812   0.998   7.186  0.00  0.00    +0.000 C 
ATOM     15  C   UNL     1      47.640   2.144   6.621  0.00  0.00    +0.000 C 
ATOM     16  C   UNL     1      46.769   3.371   6.380  0.00  0.00    +0.000 C 
ATOM     17  C   UNL     1      46.043   3.816   7.653  0.00  0.00    +0.000 C 
ENDBRANCH   9  12
ENDBRANCH   7   8
BRANCH   7  18
ATOM     18  C   UNL     1      43.545   5.787  11.248  0.00  0.00    +0.000 C 
BRANCH  18  19
ATOM     19  N   UNL     1      42.183   5.245  11.360  0.00  0.00    +0.000 NA
ATOM     20  H   UNL     1      41.753   5.584  12.219  0.00  0.00    +0.000 HD
ATOM     21  H   UNL     1      42.222   4.228  11.442  0.00  0.00    +0.000 HD
ENDBRANCH  18  19
ENDBRANCH   7  18
ENDBRANCH   1   7
BRANCH   4  22
ATOM     22  C   UNL     1      49.046   7.056  14.653  0.00  0.00    +0.000 C 
BRANCH  22  23
ATOM     23  N   UNL     1      50.183   7.394  13.833  0.00  0.00    +0.000 N 
ATOM     24  C   UNL     1      51.161   8.241  14.281  0.00  0.00    +0.000 C 
ATOM     25  O   UNL     1      51.131   8.728  15.409  0.00  0.00    +0.000 OA
ATOM     26  H   UNL     1      50.123   7.171  12.844  0.00  0.00    +0.000 HD
BRANCH  24  27
ATOM     27  C   UNL     1      52.285   8.492  13.369  0.00  0.00    +0.000 A 
ATOM     28  C   UNL     1      53.572   8.152  13.762  0.00  0.00    +0.000 A 
ATOM     29  S   UNL     1      54.755   8.453  12.572  0.00  0.00    +0.000 S 
ATOM     30  C   UNL     1      53.595   9.096  11.506  0.00  0.00    +0.000 A 
ATOM     31  N   UNL     1      53.960   9.572  10.285  0.00  0.00    +0.000 NA
ATOM     32  C   UNL     1      52.987  10.063   9.593  0.00  0.00    +0.000 A 
ATOM     33  N   UNL     1      51.683  10.118  10.009  0.00  0.00    +0.000 N 
ATOM     34  C   UNL     1      51.263   9.624  11.222  0.00  0.00    +0.000 A 
ATOM     35  O   UNL     1      50.080   9.655  11.547  0.00  0.00    +0.000 OA
ATOM     36  C   UNL     1      52.321   9.069  12.046  0.00  0.00    +0.000 A 
ATOM     37  H   UNL     1      50.968  10.512   9.416  0.00  0.00    +0.000 HD
ENDBRANCH  24  27
ENDBRANCH  22  23
ENDBRANCH   4  22
TORSDOF 8
ENDMDL
MODEL 6
REMARK VINA RESULT:    -7.513      3.724      5.253
REMARK INTER + INTRA:         -11.949
REMARK INTER:                 -10.767
REMARK INTRA:                  -1.182
REMARK UNBOUND:                -1.143
REMARK  Name = 
REMARK  8 active torsions:
REMARK  status: ('A' for Active; 'I' for Inactive)
REMARK    1  A    between atoms: N_1  and  C_2
REMARK    2  A    between atoms: C_2  and  C_3
REMARK    3  A    between atoms: C_3  and  N_4
REMARK    4  A    between atoms: C_3  and  C_13
REMARK    5  A    between atoms: C_5  and  C_7
REMARK    6  A    between atoms: C_16  and  C_17
REMARK    7  A    between atoms: C_17  and  N_18
REMARK    8  A    between atoms: C_19  and  C_21
REMARK                            x       y       z     vdW  Elec       q    Type
REMARK                         _______ _______ _______ _____ _____    ______ ____
ROOT
ATOM      1  C   UNL     1      45.581   5.418  12.132  0.00  0.00    +0.000 A 
ATOM      2  C   UNL     1      45.924   6.766  11.938  0.00  0.00    +0.000 A 
ATOM      3  C   UNL     1      46.929   7.366  12.702  0.00  0.00    +0.000 A 
ATOM      4  C   UNL     1      47.619   6.630  13.672  0.00  0.00    +0.000 A 
ATOM      5  C   UNL     1      47.279   5.285  13.868  0.00  0.00    +0.000 A 
ATOM      6  C   UNL     1      46.277   4.684  13.103  0.00  0.00    +0.000 A 
ENDROOT
BRANCH   1   7
ATOM      7  C   UNL     1      44.484   4.787  11.285  0.00  0.00    +0.000 C 
BRANCH   7   8
ATOM      8  N   UNL     1      45.056   4.257  10.043  0.00  0.00    +0.000 N 
ATOM      9  C   UNL     1      44.669   3.031   9.550  0.00  0.00    +0.000 C 
ATOM     10  O   UNL     1      43.860   2.324  10.139  0.00  0.00    +0.000 OA
ATOM     11  H   UNL     1      45.619   4.871   9.474  0.00  0.00    +0.000 HD
BRANCH   9  12
ATOM     12  C   UNL     1      45.268   2.639   8.191  0.00  0.00    +0.000 C 
ATOM     13  C   UNL     1      46.152   1.391   8.377  0.00  0.00    +0.000 C 
ATOM     14  C   UNL     1      46.897   0.982   7.112  0.00  0.00    +0.000 C 
ATOM     15  C   UNL     1      47.710   2.141   6.554  0.00  0.00    +0.000 C 
ATOM     16  C   UNL     1      46.817   3.347   6.288  0.00  0.00    +0.000 C 
ATOM     17  C   UNL     1      46.059   3.786   7.544  0.00  0.00    +0.000 C 
ENDBRANCH   9  12
ENDBRANCH   7   8
BRANCH   7  18
ATOM     18  C   UNL     1      43.316   5.777  10.988  0.00  0.00    +0.000 C 
BRANCH  18  19
ATOM     19  N   UNL     1      42.358   5.947  12.089  0.00  0.00    +0.000 NA
ATOM     20  H   UNL     1      41.535   5.374  11.914  0.00  0.00    +0.000 HD
ATOM     21  H   UNL     1      42.032   6.915  12.117  0.00  0.00    +0.000 HD
ENDBRANCH  18  19
ENDBRANCH   7  18
ENDBRANCH   1   7
BRANCH   4  22
ATOM     22  C   UNL     1      48.655   7.283  14.549  0.00  0.00    +0.000 C 
BRANCH  22  23
ATOM     23  N   UNL     1      49.915   7.385  13.853  0.00  0.00    +0.000 N 
ATOM     24  C   UNL     1      50.314   8.556  13.266  0.00  0.00    +0.000 C 
ATOM     25  O   UNL     1      49.635   9.578  13.330  0.00  0.00    +0.000 OA
ATOM     26  H   UNL     1      50.384   6.516  13.616  0.00  0.00    +0.000 HD
BRANCH  24  27
ATOM     27  C   UNL     1      51.627   8.549  12.608  0.00  0.00    +0.000 A 
ATOM     28  C   UNL     1      51.708   8.785  11.242  0.00  0.00    +0.000 A 
ATOM     29  S   UNL     1      53.303   8.800  10.642  0.00  0.00    +0.000 S 
ATOM     30  C   UNL     1      53.941   8.440  12.177  0.00  0.00    +0.000 A 
ATOM     31  N   UNL     1      55.281   8.288  12.357  0.00  0.00    +0.000 NA
ATOM     32  C   UNL     1      55.626   7.982  13.562  0.00  0.00    +0.000 A 
ATOM     33  N   UNL     1      54.753   7.817  14.605  0.00  0.00    +0.000 N 
ATOM     34  C   UNL     1      53.394   7.988  14.478  0.00  0.00    +0.000 A 
ATOM     35  O   UNL     1      52.645   7.869  15.443  0.00  0.00    +0.000 OA
ATOM     36  C   UNL     1      52.952   8.323  13.137  0.00  0.00    +0.000 A 
ATOM     37  H   UNL     1      55.089   7.581  15.528  0.00  0.00    +0.000 HD
ENDBRANCH  24  27
ENDBRANCH  22  23
ENDBRANCH   4  22
TORSDOF 8
ENDMDL
MODEL 7
REMARK VINA RESULT:    -7.206      4.832      5.945
REMARK INTER + INTRA:         -11.508
REMARK INTER:                 -10.995
REMARK INTRA:                  -0.514
REMARK UNBOUND:                -1.143
REMARK  Name = 
REMARK  8 active torsions:
REMARK  status: ('A' for Active; 'I' for Inactive)
REMARK    1  A    between atoms: N_1  and  C_2
REMARK    2  A    between atoms: C_2  and  C_3
REMARK    3  A    between atoms: C_3  and  N_4
REMARK    4  A    between atoms: C_3  and  C_13
REMARK    5  A    between atoms: C_5  and  C_7
REMARK    6  A    between atoms: C_16  and  C_17
REMARK    7  A    between atoms: C_17  and  N_18
REMARK    8  A    between atoms: C_19  and  C_21
REMARK                            x       y       z     vdW  Elec       q    Type
REMARK                         _______ _______ _______ _____ _____    ______ ____
ROOT
ATOM      1  C   UNL     1      45.297   4.862  11.927  0.00  0.00    +0.000 A 
ATOM      2  C   UNL     1      44.352   5.900  11.971  0.00  0.00    +0.000 A 
ATOM      3  C   UNL     1      44.757   7.232  12.104  0.00  0.00    +0.000 A 
ATOM      4  C   UNL     1      46.116   7.556  12.189  0.00  0.00    +0.000 A 
ATOM      5  C   UNL     1      47.061   6.522  12.146  0.00  0.00    +0.000 A 
ATOM      6  C   UNL     1      46.657   5.192  12.010  0.00  0.00    +0.000 A 
ENDROOT
BRANCH   1   7
ATOM      7  C   UNL     1      44.830   3.420  11.779  0.00  0.00    +0.000 C 
BRANCH   7   8
ATOM      8  N   UNL     1      45.270   2.884  10.487  0.00  0.00    +0.000 N 
ATOM      9  C   UNL     1      44.800   3.407   9.304  0.00  0.00    +0.000 C 
ATOM     10  O   UNL     1      43.977   4.315   9.281  0.00  0.00    +0.000 OA
ATOM     11  H   UNL     1      46.041   2.232  10.476  0.00  0.00    +0.000 HD
BRANCH   9  12
ATOM     12  C   UNL     1      45.416   2.824   8.023  0.00  0.00    +0.000 C 
ATOM     13  C   UNL     1      46.221   1.562   8.388  0.00  0.00    +0.000 C 
ATOM     14  C   UNL     1      46.979   0.966   7.207  0.00  0.00    +0.000 C 
ATOM     15  C   UNL     1      47.874   2.005   6.547  0.00  0.00    +0.000 C 
ATOM     16  C   UNL     1      47.060   3.217   6.109  0.00  0.00    +0.000 C 
ATOM     17  C   UNL     1      46.291   3.842   7.276  0.00  0.00    +0.000 C 
ENDBRANCH   9  12
ENDBRANCH   7   8
BRANCH   7  18
ATOM     18  C   UNL     1      43.287   3.271  11.952  0.00  0.00    +0.000 C 
BRANCH  18  19
ATOM     19  N   UNL     1      42.774   1.907  11.766  0.00  0.00    +0.000 NA
ATOM     20  H   UNL     1      42.413   1.557  12.653  0.00  0.00    +0.000 HD
ATOM     21  H   UNL     1      43.539   1.284  11.503  0.00  0.00    +0.000 HD
ENDBRANCH  18  19
ENDBRANCH   7  18
ENDBRANCH   1   7
BRANCH   4  22
ATOM     22  C   UNL     1      46.562   8.978  12.403  0.00  0.00    +0.000 C 
BRANCH  22  23
ATOM     23  N   UNL     1      47.855   9.199  11.803  0.00  0.00    +0.000 N 
ATOM     24  C   UNL     1      48.517  10.388  11.950  0.00  0.00    +0.000 C 
ATOM     25  O   UNL     1      48.056  11.309  12.621  0.00  0.00    +0.000 OA
ATOM     26  H   UNL     1      48.153   8.540  11.090  0.00  0.00    +0.000 HD
BRANCH  24  27
ATOM     27  C   UNL     1      49.838  10.489  11.318  0.00  0.00    +0.000 A 
ATOM     28  C   UNL     1      50.079  11.500  10.396  0.00  0.00    +0.000 A 
ATOM     29  S   UNL     1      51.675  11.516   9.798  0.00  0.00    +0.000 S 
ATOM     30  C   UNL     1      52.088  10.140  10.709  0.00  0.00    +0.000 A 
ATOM     31  N   UNL     1      53.336   9.603  10.635  0.00  0.00    +0.000 NA
ATOM     32  C   UNL     1      53.503   8.542  11.350  0.00  0.00    +0.000 A 
ATOM     33  N   UNL     1      52.537   7.970  12.135  0.00  0.00    +0.000 N 
ATOM     34  C   UNL     1      51.272   8.492  12.264  0.00  0.00    +0.000 A 
ATOM     35  O   UNL     1      50.442   7.975  13.006  0.00  0.00    +0.000 OA
ATOM     36  C   UNL     1      51.027   9.683  11.471  0.00  0.00    +0.000 A 
ATOM     37  H   UNL     1      52.735   7.140  12.675  0.00  0.00    +0.000 HD
ENDBRANCH  24  27
ENDBRANCH  22  23
ENDBRANCH   4  22
TORSDOF 8
ENDMDL
MODEL 8
REMARK VINA RESULT:    -7.009      4.235      9.461
REMARK INTER + INTRA:         -11.225
REMARK INTER:                  -9.961
REMARK INTRA:                  -1.264
REMARK UNBOUND:                -1.143
REMARK  Name = 
REMARK  8 active torsions:
REMARK  status: ('A' for Active; 'I' for Inactive)
REMARK    1  A    between atoms: N_1  and  C_2
REMARK    2  A    between atoms: C_2  and  C_3
REMARK    3  A    between atoms: C_3  and  N_4
REMARK    4  A    between atoms: C_3  and  C_13
REMARK    5  A    between atoms: C_5  and  C_7
REMARK    6  A    between atoms: C_16  and  C_17
REMARK    7  A    between atoms: C_17  and  N_18
REMARK    8  A    between atoms: C_19  and  C_21
REMARK                            x       y       z     vdW  Elec       q    Type
REMARK                         _______ _______ _______ _____ _____    ______ ____
ROOT
ATOM      1  C   UNL     1      49.446   5.515  17.253  0.00  0.00    +0.000 A 
ATOM      2  C   UNL     1      50.283   6.481  16.671  0.00  0.00    +0.000 A 
ATOM      3  C   UNL     1      49.968   7.049  15.432  0.00  0.00    +0.000 A 
ATOM      4  C   UNL     1      48.805   6.668  14.751  0.00  0.00    +0.000 A 
ATOM      5  C   UNL     1      47.969   5.704  15.330  0.00  0.00    +0.000 A 
ATOM      6  C   UNL     1      48.282   5.139  16.568  0.00  0.00    +0.000 A 
ENDROOT
BRANCH   1   7
ATOM      7  C   UNL     1      49.811   4.914  18.604  0.00  0.00    +0.000 C 
BRANCH   7   8
ATOM      8  N   UNL     1      50.778   3.827  18.420  0.00  0.00    +0.000 N 
ATOM      9  C   UNL     1      52.110   4.005  18.720  0.00  0.00    +0.000 C 
ATOM     10  O   UNL     1      52.544   5.078  19.120  0.00  0.00    +0.000 OA
ATOM     11  H   UNL     1      50.428   2.902  18.220  0.00  0.00    +0.000 HD
BRANCH   9  12
ATOM     12  C   UNL     1      52.998   2.759  18.578  0.00  0.00    +0.000 C 
ATOM     13  C   UNL     1      54.357   3.180  17.986  0.00  0.00    +0.000 C 
ATOM     14  C   UNL     1      55.278   2.003  17.688  0.00  0.00    +0.000 C 
ATOM     15  C   UNL     1      54.593   0.982  16.793  0.00  0.00    +0.000 C 
ATOM     16  C   UNL     1      53.290   0.501  17.421  0.00  0.00    +0.000 C 
ATOM     17  C   UNL     1      52.340   1.662  17.728  0.00  0.00    +0.000 C 
ENDBRANCH   9  12
ENDBRANCH   7   8
BRANCH   7  18
ATOM     18  C   UNL     1      48.560   4.425  19.397  0.00  0.00    +0.000 C 
BRANCH  18  19
ATOM     19  N   UNL     1      48.388   2.966  19.437  0.00  0.00    +0.000 NA
ATOM     20  H   UNL     1      49.259   2.515  19.161  0.00  0.00    +0.000 HD
ATOM     21  H   UNL     1      47.688   2.681  18.750  0.00  0.00    +0.000 HD
ENDBRANCH  18  19
ENDBRANCH   7  18
ENDBRANCH   1   7
BRANCH   4  22
ATOM     22  C   UNL     1      48.491   7.221  13.386  0.00  0.00    +0.000 C 
BRANCH  22  23
ATOM     23  N   UNL     1      47.672   6.295  12.642  0.00  0.00    +0.000 N 
ATOM     24  C   UNL     1      46.604   6.724  11.900  0.00  0.00    +0.000 C 
ATOM     25  O   UNL     1      46.313   7.914  11.809  0.00  0.00    +0.000 OA
ATOM     26  H   UNL     1      47.768   5.309  12.865  0.00  0.00    +0.000 HD
BRANCH  24  27
ATOM     27  C   UNL     1      45.858   5.695  11.163  0.00  0.00    +0.000 A 
ATOM     28  C   UNL     1      45.906   5.679   9.776  0.00  0.00    +0.000 A 
ATOM     29  S   UNL     1      45.036   4.391   9.074  0.00  0.00    +0.000 S 
ATOM     30  C   UNL     1      44.521   3.839  10.599  0.00  0.00    +0.000 A 
ATOM     31  N   UNL     1      43.706   2.755  10.708  0.00  0.00    +0.000 NA
ATOM     32  C   UNL     1      43.363   2.466  11.918  0.00  0.00    +0.000 A 
ATOM     33  N   UNL     1      43.764   3.160  13.030  0.00  0.00    +0.000 N 
ATOM     34  C   UNL     1      44.610   4.243  12.971  0.00  0.00    +0.000 A 
ATOM     35  O   UNL     1      44.979   4.818  13.990  0.00  0.00    +0.000 OA
ATOM     36  C   UNL     1      45.017   4.618  11.629  0.00  0.00    +0.000 A 
ATOM     37  H   UNL     1      43.463   2.878  13.951  0.00  0.00    +0.000 HD
ENDBRANCH  24  27
ENDBRANCH  22  23
ENDBRANCH   4  22
TORSDOF 8
ENDMDL
MODEL 9
REMARK VINA RESULT:    -6.605      2.443      2.964
REMARK INTER + INTRA:         -10.644
REMARK INTER:                  -9.488
REMARK INTRA:                  -1.156
REMARK UNBOUND:                -1.143
REMARK  Name = 
REMARK  8 active torsions:
REMARK  status: ('A' for Active; 'I' for Inactive)
REMARK    1  A    between atoms: N_1  and  C_2
REMARK    2  A    between atoms: C_2  and  C_3
REMARK    3  A    between atoms: C_3  and  N_4
REMARK    4  A    between atoms: C_3  and  C_13
REMARK    5  A    between atoms: C_5  and  C_7
REMARK    6  A    between atoms: C_16  and  C_17
REMARK    7  A    between atoms: C_17  and  N_18
REMARK    8  A    between atoms: C_19  and  C_21
REMARK                            x       y       z     vdW  Elec       q    Type
REMARK                         _______ _______ _______ _____ _____    ______ ____
ROOT
ATOM      1  C   UNL     1      46.377   7.295  12.235  0.00  0.00    +0.000 A 
ATOM      2  C   UNL     1      46.645   8.637  12.552  0.00  0.00    +0.000 A 
ATOM      3  C   UNL     1      47.883   9.015  13.080  0.00  0.00    +0.000 A 
ATOM      4  C   UNL     1      48.884   8.061  13.296  0.00  0.00    +0.000 A 
ATOM      5  C   UNL     1      48.620   6.722  12.982  0.00  0.00    +0.000 A 
ATOM      6  C   UNL     1      47.384   6.344  12.451  0.00  0.00    +0.000 A 
ENDROOT
BRANCH   1   7
ATOM      7  C   UNL     1      45.021   6.910  11.659  0.00  0.00    +0.000 C 
BRANCH   7   8
ATOM      8  N   UNL     1      45.197   5.917  10.594  0.00  0.00    +0.000 N 
ATOM      9  C   UNL     1      44.325   4.860  10.459  0.00  0.00    +0.000 C 
ATOM     10  O   UNL     1      43.392   4.689  11.234  0.00  0.00    +0.000 OA
ATOM     11  H   UNL     1      45.872   6.106   9.868  0.00  0.00    +0.000 HD
BRANCH   9  12
ATOM     12  C   UNL     1      44.561   3.950   9.244  0.00  0.00    +0.000 C 
ATOM     13  C   UNL     1      44.812   2.513   9.738  0.00  0.00    +0.000 C 
ATOM     14  C   UNL     1      45.180   1.544   8.621  0.00  0.00    +0.000 C 
ATOM     15  C   UNL     1      46.368   2.054   7.820  0.00  0.00    +0.000 C 
ATOM     16  C   UNL     1      46.085   3.442   7.258  0.00  0.00    +0.000 C 
ATOM     17  C   UNL     1      45.718   4.441   8.358  0.00  0.00    +0.000 C 
ENDBRANCH   9  12
ENDBRANCH   7   8
BRANCH   7  18
ATOM     18  C   UNL     1      44.216   8.145  11.149  0.00  0.00    +0.000 C 
BRANCH  18  19
ATOM     19  N   UNL     1      42.772   7.919  10.998  0.00  0.00    +0.000 NA
ATOM     20  H   UNL     1      42.360   8.698  10.486  0.00  0.00    +0.000 HD
ATOM     21  H   UNL     1      42.326   7.912  11.916  0.00  0.00    +0.000 HD
ENDBRANCH  18  19
ENDBRANCH   7  18
ENDBRANCH   1   7
BRANCH   4  22
ATOM     22  C   UNL     1      50.196   8.445  13.928  0.00  0.00    +0.000 C 
BRANCH  22  23
ATOM     23  N   UNL     1      50.039   8.624  15.351  0.00  0.00    +0.000 N 
ATOM     24  C   UNL     1      50.196   7.580  16.223  0.00  0.00    +0.000 C 
ATOM     25  O   UNL     1      50.506   6.454  15.839  0.00  0.00    +0.000 OA
ATOM     26  H   UNL     1      49.590   9.479  15.663  0.00  0.00    +0.000 HD
BRANCH  24  27
ATOM     27  C   UNL     1      50.037   7.885  17.651  0.00  0.00    +0.000 A 
ATOM     28  C   UNL     1      48.775   8.175  18.152  0.00  0.00    +0.000 A 
ATOM     29  S   UNL     1      48.751   8.450  19.834  0.00  0.00    +0.000 S 
ATOM     30  C   UNL     1      50.435   8.244  19.946  0.00  0.00    +0.000 A 
ATOM     31  N   UNL     1      51.075   8.375  21.139  0.00  0.00    +0.000 NA
ATOM     32  C   UNL     1      52.356   8.228  21.076  0.00  0.00    +0.000 A 
ATOM     33  N   UNL     1      53.055   7.958  19.928  0.00  0.00    +0.000 N 
ATOM     34  C   UNL     1      52.449   7.789  18.706  0.00  0.00    +0.000 A 
ATOM     35  O   UNL     1      53.102   7.510  17.705  0.00  0.00    +0.000 OA
ATOM     36  C   UNL     1      51.007   7.955  18.719  0.00  0.00    +0.000 A 
ATOM     37  H   UNL     1      54.058   7.849  19.948  0.00  0.00    +0.000 HD
ENDBRANCH  24  27
ENDBRANCH  22  23
ENDBRANCH   4  22
TORSDOF 8
ENDMDL
