MODEL 1
REMARK VINA RESULT:    -7.994      0.000      0.000
REMARK INTER + INTRA:         -11.694
REMARK INTER:                 -10.798
REMARK INTRA:                  -0.896
REMARK UNBOUND:                -0.896
REMARK  Name = 
REMARK  6 active torsions:
REMARK  status: ('A' for Active; 'I' for Inactive)
REMARK    1  A    between atoms: C_2  and  C_25
REMARK    2  A    between atoms: N_3  and  C_4
REMARK    3  A    between atoms: C_4  and  C_5
REMARK    4  A    between atoms: C_8  and  C_9
REMARK    5  A    between atoms: C_9  and  N_10
REMARK    6  A    between atoms: C_11  and  C_13
REMARK                            x       y       z     vdW  Elec       q    Type
REMARK                         _______ _______ _______ _____ _____    ______ ____
ROOT
ATOM      1  C   UNL     1      44.985   6.155  11.319  0.00  0.00    +0.000 A 
ATOM      2  C   UNL     1      46.068   5.584  12.002  0.00  0.00    +0.000 A 
ATOM      3  C   UNL     1      46.866   6.357  12.858  0.00  0.00    +0.000 A 
ATOM      4  C   UNL     1      46.585   7.714  13.066  0.00  0.00    +0.000 A 
ATOM      5  C   UNL     1      45.499   8.282  12.385  0.00  0.00    +0.000 A 
ATOM      6  C   UNL     1      44.701   7.511  11.532  0.00  0.00    +0.000 A 
ENDROOT
BRANCH   1   7
ATOM      7  C   UNL     1      44.184   5.342  10.338  0.00  0.00    +0.000 C 
BRANCH   7  10
ATOM      8  O   UNL     1      44.437   2.620   9.971  0.00  0.00    +0.000 OA
ATOM      9  C   UNL     1      45.026   3.357   9.182  0.00  0.00    +0.000 C 
ATOM     10  N   UNL     1      44.973   4.743   9.292  0.00  0.00    +0.000 N 
ATOM     11  H   UNL     1      45.439   5.305   8.587  0.00  0.00    +0.000 HD
BRANCH   9  12
ATOM     12  C   UNL     1      45.845   2.813   8.035  0.00  0.00    +0.000 A 
ATOM     13  N   UNL     1      46.346   1.567   8.168  0.00  0.00    +0.000 NA
ATOM     14  C   UNL     1      47.065   1.106   7.132  0.00  0.00    +0.000 A 
ATOM     15  C   UNL     1      47.301   1.839   5.992  0.00  0.00    +0.000 A 
ATOM     16  C   UNL     1      46.748   3.101   5.961  0.00  0.00    +0.000 A 
ATOM     17  N   UNL     1      46.009   3.620   6.960  0.00  0.00    +0.000 NA
ENDBRANCH   9  12
ENDBRANCH   7  10
ENDBRANCH   1   7
BRANCH   4  18
ATOM     18  C   UNL     1      47.432   8.565  13.983  0.00  0.00    +0.000 C 
BRANCH  18  19
ATOM     19  N   UNL     1      47.904   7.824  15.123  0.00  0.00    +0.000 N 
ATOM     20  C   UNL     1      49.166   7.282  15.158  0.00  0.00    +0.000 C 
ATOM     21  O   UNL     1      49.963   7.419  14.233  0.00  0.00    +0.000 OA
ATOM     22  H   UNL     1      47.196   7.446  15.749  0.00  0.00    +0.000 HD
BRANCH  20  23
ATOM     23  C   UNL     1      49.539   6.578  16.393  0.00  0.00    +0.000 A 
ATOM     24  C   UNL     1      50.568   7.062  17.187  0.00  0.00    +0.000 A 
ATOM     25  S   UNL     1      50.825   6.149  18.608  0.00  0.00    +0.000 S 
ATOM     26  C   UNL     1      49.606   5.041  18.180  0.00  0.00    +0.000 A 
ATOM     27  N   UNL     1      49.327   3.967  18.969  0.00  0.00    +0.000 NA
ATOM     28  C   UNL     1      48.403   3.193  18.508  0.00  0.00    +0.000 A 
ATOM     29  N   UNL     1      47.726   3.399  17.333  0.00  0.00    +0.000 N 
ATOM     30  C   UNL     1      47.949   4.487  16.525  0.00  0.00    +0.000 A 
ATOM     31  O   UNL     1      47.286   4.675  15.510  0.00  0.00    +0.000 OA
ATOM     32  C   UNL     1      48.993   5.381  16.988  0.00  0.00    +0.000 A 
ATOM     33  H   UNL     1      47.002   2.763  17.033  0.00  0.00    +0.000 HD
ENDBRANCH  20  23
ENDBRANCH  18  19
ENDBRANCH   4  18
TORSDOF 6
ENDMDL
MODEL 2
REMARK VINA RESULT:    -7.312      1.574      1.912
REMARK INTER + INTRA:         -10.773
REMARK INTER:                  -9.869
REMARK INTRA:                  -0.905
REMARK UNBOUND:                -0.896
REMARK  Name = 
REMARK  6 active torsions:
REMARK  status: ('A' for Active; 'I' for Inactive)
REMARK    1  A    between atoms: C_2  and  C_25
REMARK    2  A    between atoms: N_3  and  C_4
REMARK    3  A    between atoms: C_4  and  C_5
REMARK    4  A    between atoms: C_8  and  C_9
REMARK    5  A    between atoms: C_9  and  N_10
REMARK    6  A    between atoms: C_11  and  C_13
REMARK                            x       y       z     vdW  Elec       q    Type
REMARK                         _______ _______ _______ _____ _____    ______ ____
ROOT
ATOM      1  C   UNL     1      45.937   6.954  12.004  0.00  0.00    +0.000 A 
ATOM      2  C   UNL     1      47.094   6.237  12.340  0.00  0.00    +0.000 A 
ATOM      3  C   UNL     1      48.006   6.743  13.277  0.00  0.00    +0.000 A 
ATOM      4  C   UNL     1      47.769   7.968  13.916  0.00  0.00    +0.000 A 
ATOM      5  C   UNL     1      46.609   8.681  13.582  0.00  0.00    +0.000 A 
ATOM      6  C   UNL     1      45.698   8.176  12.648  0.00  0.00    +0.000 A 
ENDROOT
BRANCH   1   7
ATOM      7  C   UNL     1      45.004   6.447  10.936  0.00  0.00    +0.000 C 
BRANCH   7  10
ATOM      8  O   UNL     1      43.796   4.137  10.036  0.00  0.00    +0.000 OA
ATOM      9  C   UNL     1      44.920   4.395   9.607  0.00  0.00    +0.000 C 
ATOM     10  N   UNL     1      45.617   5.528  10.012  0.00  0.00    +0.000 N 
ATOM     11  H   UNL     1      46.522   5.718   9.592  0.00  0.00    +0.000 HD
BRANCH   9  12
ATOM     12  C   UNL     1      45.620   3.506   8.607  0.00  0.00    +0.000 A 
ATOM     13  N   UNL     1      46.127   4.094   7.502  0.00  0.00    +0.000 NA
ATOM     14  C   UNL     1      46.748   3.281   6.633  0.00  0.00    +0.000 A 
ATOM     15  C   UNL     1      46.871   1.924   6.824  0.00  0.00    +0.000 A 
ATOM     16  C   UNL     1      46.314   1.426   7.982  0.00  0.00    +0.000 A 
ATOM     17  N   UNL     1      45.686   2.185   8.900  0.00  0.00    +0.000 NA
ENDBRANCH   9  12
ENDBRANCH   7  10
ENDBRANCH   1   7
BRANCH   4  18
ATOM     18  C   UNL     1      48.739   8.531  14.929  0.00  0.00    +0.000 C 
BRANCH  18  19
ATOM     19  N   UNL     1      49.638   7.526  15.432  0.00  0.00    +0.000 N 
ATOM     20  C   UNL     1      49.505   7.010  16.699  0.00  0.00    +0.000 C 
ATOM     21  O   UNL     1      48.603   7.359  17.457  0.00  0.00    +0.000 OA
ATOM     22  H   UNL     1      50.538   7.441  14.967  0.00  0.00    +0.000 HD
BRANCH  20  23
ATOM     23  C   UNL     1      50.464   5.965  17.081  0.00  0.00    +0.000 A 
ATOM     24  C   UNL     1      51.755   6.307  17.456  0.00  0.00    +0.000 A 
ATOM     25  S   UNL     1      52.712   4.969  17.919  0.00  0.00    +0.000 S 
ATOM     26  C   UNL     1      51.450   3.880  17.577  0.00  0.00    +0.000 A 
ATOM     27  N   UNL     1      51.621   2.538  17.731  0.00  0.00    +0.000 NA
ATOM     28  C   UNL     1      50.592   1.829  17.406  0.00  0.00    +0.000 A 
ATOM     29  N   UNL     1      49.405   2.340  16.948  0.00  0.00    +0.000 N 
ATOM     30  C   UNL     1      49.175   3.687  16.814  0.00  0.00    +0.000 A 
ATOM     31  O   UNL     1      48.082   4.116  16.457  0.00  0.00    +0.000 OA
ATOM     32  C   UNL     1      50.307   4.531  17.147  0.00  0.00    +0.000 A 
ATOM     33  H   UNL     1      48.631   1.733  16.724  0.00  0.00    +0.000 HD
ENDBRANCH  20  23
ENDBRANCH  18  19
ENDBRANCH   4  18
TORSDOF 6
ENDMDL
MODEL 3
REMARK VINA RESULT:    -6.921      3.255      4.644
REMARK INTER + INTRA:         -10.245
REMARK INTER:                  -9.085
REMARK INTRA:                  -1.160
REMARK UNBOUND:                -0.896
REMARK  Name = 
REMARK  6 active torsions:
REMARK  status: ('A' for Active; 'I' for Inactive)
REMARK    1  A    between atoms: C_2  and  C_25
REMARK    2  A    between atoms: N_3  and  C_4
REMARK    3  A    between atoms: C_4  and  C_5
REMARK    4  A    between atoms: C_8  and  C_9
REMARK    5  A    between atoms: C_9  and  N_10
REMARK    6  A    between atoms: C_11  and  C_13
REMARK                            x       y       z     vdW  Elec       q    Type
REMARK                         _______ _______ _______ _____ _____    ______ ____
ROOT
ATOM      1  C   UNL     1      45.388   6.507  11.699  0.00  0.00    +0.000 A 
ATOM      2  C   UNL     1      46.497   5.879  12.282  0.00  0.00    +0.000 A 
ATOM      3  C   UNL     1      47.346   6.580  13.150  0.00  0.00    +0.000 A 
ATOM      4  C   UNL     1      47.091   7.920  13.473  0.00  0.00    +0.000 A 
ATOM      5  C   UNL     1      45.978   8.545  12.891  0.00  0.00    +0.000 A 
ATOM      6  C   UNL     1      45.130   7.845  12.026  0.00  0.00    +0.000 A 
ENDROOT
BRANCH   1   7
ATOM      7  C   UNL     1      44.529   5.775  10.703  0.00  0.00    +0.000 C 
BRANCH   7  10
ATOM      8  O   UNL     1      43.856   3.242   9.844  0.00  0.00    +0.000 OA
ATOM      9  C   UNL     1      44.847   3.769   9.340  0.00  0.00    +0.000 C 
ATOM     10  N   UNL     1      45.276   5.037   9.717  0.00  0.00    +0.000 N 
ATOM     11  H   UNL     1      46.073   5.443   9.237  0.00  0.00    +0.000 HD
BRANCH   9  12
ATOM     12  C   UNL     1      45.666   3.080   8.273  0.00  0.00    +0.000 A 
ATOM     13  N   UNL     1      46.001   3.806   7.185  0.00  0.00    +0.000 NA
ATOM     14  C   UNL     1      46.733   3.171   6.255  0.00  0.00    +0.000 A 
ATOM     15  C   UNL     1      47.126   1.858   6.371  0.00  0.00    +0.000 A 
ATOM     16  C   UNL     1      46.726   1.208   7.519  0.00  0.00    +0.000 A 
ATOM     17  N   UNL     1      46.001   1.787   8.495  0.00  0.00    +0.000 NA
ENDBRANCH   9  12
ENDBRANCH   7  10
ENDBRANCH   1   7
BRANCH   4  18
ATOM     18  C   UNL     1      47.993   8.695  14.406  0.00  0.00    +0.000 C 
BRANCH  18  19
ATOM     19  N   UNL     1      49.294   8.923  13.833  0.00  0.00    +0.000 N 
ATOM     20  C   UNL     1      50.405   8.248  14.278  0.00  0.00    +0.000 C 
ATOM     21  O   UNL     1      50.345   7.403  15.167  0.00  0.00    +0.000 OA
ATOM     22  H   UNL     1      49.426   9.797  13.330  0.00  0.00    +0.000 HD
BRANCH  20  23
ATOM     23  C   UNL     1      51.667   8.546  13.587  0.00  0.00    +0.000 A 
ATOM     24  C   UNL     1      52.737   9.081  14.290  0.00  0.00    +0.000 A 
ATOM     25  S   UNL     1      54.138   9.310  13.338  0.00  0.00    +0.000 S 
ATOM     26  C   UNL     1      53.342   8.755  11.939  0.00  0.00    +0.000 A 
ATOM     27  N   UNL     1      53.979   8.724  10.736  0.00  0.00    +0.000 NA
ATOM     28  C   UNL     1      53.247   8.312   9.757  0.00  0.00    +0.000 A 
ATOM     29  N   UNL     1      51.938   7.920   9.870  0.00  0.00    +0.000 N 
ATOM     30  C   UNL     1      51.267   7.900  11.069  0.00  0.00    +0.000 A 
ATOM     31  O   UNL     1      50.114   7.488  11.148  0.00  0.00    +0.000 OA
ATOM     32  C   UNL     1      52.039   8.373  12.202  0.00  0.00    +0.000 A 
ATOM     33  H   UNL     1      51.422   7.594   9.067  0.00  0.00    +0.000 HD
ENDBRANCH  20  23
ENDBRANCH  18  19
ENDBRANCH   4  18
TORSDOF 6
ENDMDL
MODEL 4
REMARK VINA RESULT:    -6.744      3.628      8.611
REMARK INTER + INTRA:         -10.006
REMARK INTER:                  -9.077
REMARK INTRA:                  -0.929
REMARK UNBOUND:                -0.896
REMARK  Name = 
REMARK  6 active torsions:
REMARK  status: ('A' for Active; 'I' for Inactive)
REMARK    1  A    between atoms: C_2  and  C_25
REMARK    2  A    between atoms: N_3  and  C_4
REMARK    3  A    between atoms: C_4  and  C_5
REMARK    4  A    between atoms: C_8  and  C_9
REMARK    5  A    between atoms: C_9  and  N_10
REMARK    6  A    between atoms: C_11  and  C_13
REMARK                            x       y       z     vdW  Elec       q    Type
REMARK                         _______ _______ _______ _____ _____    ______ ____
ROOT
ATOM      1  C   UNL     1      49.979   6.746  16.068  0.00  0.00    +0.000 A 
ATOM      2  C   UNL     1      48.703   6.320  15.674  0.00  0.00    +0.000 A 
ATOM      3  C   UNL     1      48.187   6.666  14.417  0.00  0.00    +0.000 A 
ATOM      4  C   UNL     1      48.946   7.428  13.517  0.00  0.00    +0.000 A 
ATOM      5  C   UNL     1      50.224   7.848  13.913  0.00  0.00    +0.000 A 
ATOM      6  C   UNL     1      50.740   7.502  15.166  0.00  0.00    +0.000 A 
ENDROOT
BRANCH   1   7
ATOM      7  C   UNL     1      50.495   6.443  17.450  0.00  0.00    +0.000 C 
BRANCH   7  10
ATOM      8  O   UNL     1      49.697   3.864  18.018  0.00  0.00    +0.000 OA
ATOM      9  C   UNL     1      50.891   4.052  17.788  0.00  0.00    +0.000 C 
ATOM     10  N   UNL     1      51.393   5.318  17.506  0.00  0.00    +0.000 N 
ATOM     11  H   UNL     1      52.378   5.411  17.278  0.00  0.00    +0.000 HD
BRANCH   9  12
ATOM     12  C   UNL     1      51.895   2.924  17.789  0.00  0.00    +0.000 A 
ATOM     13  N   UNL     1      53.162   3.222  18.147  0.00  0.00    +0.000 NA
ATOM     14  C   UNL     1      54.032   2.200  18.144  0.00  0.00    +0.000 A 
ATOM     15  C   UNL     1      53.686   0.915  17.794  0.00  0.00    +0.000 A 
ATOM     16  C   UNL     1      52.368   0.721  17.441  0.00  0.00    +0.000 A 
ATOM     17  N   UNL     1      51.443   1.699  17.431  0.00  0.00    +0.000 NA
ENDBRANCH   9  12
ENDBRANCH   7  10
ENDBRANCH   1   7
BRANCH   4  18
ATOM     18  C   UNL     1      48.409   7.812  12.158  0.00  0.00    +0.000 C 
BRANCH  18  19
ATOM     19  N   UNL     1      47.663   6.741  11.550  0.00  0.00    +0.000 N 
ATOM     20  C   UNL     1      46.293   6.785  11.448  0.00  0.00    +0.000 C 
ATOM     21  O   UNL     1      45.638   7.745  11.847  0.00  0.00    +0.000 OA
ATOM     22  H   UNL     1      48.125   5.837  11.491  0.00  0.00    +0.000 HD
BRANCH  20  23
ATOM     23  C   UNL     1      45.654   5.646  10.776  0.00  0.00    +0.000 A 
ATOM     24  C   UNL     1      45.754   5.503   9.400  0.00  0.00    +0.000 A 
ATOM     25  S   UNL     1      44.997   4.093   8.800  0.00  0.00    +0.000 S 
ATOM     26  C   UNL     1      44.459   3.656  10.355  0.00  0.00    +0.000 A 
ATOM     27  N   UNL     1      43.706   2.538  10.548  0.00  0.00    +0.000 NA
ATOM     28  C   UNL     1      43.342   2.346  11.772  0.00  0.00    +0.000 A 
ATOM     29  N   UNL     1      43.668   3.165  12.822  0.00  0.00    +0.000 N 
ATOM     30  C   UNL     1      44.456   4.281  12.680  0.00  0.00    +0.000 A 
ATOM     31  O   UNL     1      44.780   4.962  13.648  0.00  0.00    +0.000 OA
ATOM     32  C   UNL     1      44.878   4.555  11.320  0.00  0.00    +0.000 A 
ATOM     33  H   UNL     1      43.364   2.952  13.760  0.00  0.00    +0.000 HD
ENDBRANCH  20  23
ENDBRANCH  18  19
ENDBRANCH   4  18
TORSDOF 6
ENDMDL
MODEL 5
REMARK VINA RESULT:    -6.651      3.382      9.033
REMARK INTER + INTRA:          -9.880
REMARK INTER:                  -8.948
REMARK INTRA:                  -0.933
REMARK UNBOUND:                -0.896
REMARK  Name = 
REMARK  6 active torsions:
REMARK  status: ('A' for Active; 'I' for Inactive)
REMARK    1  A    between atoms: C_2  and  C_25
REMARK    2  A    between atoms: N_3  and  C_4
REMARK    3  A    between atoms: C_4  and  C_5
REMARK    4  A    between atoms: C_8  and  C_9
REMARK    5  A    between atoms: C_9  and  N_10
REMARK    6  A    between atoms: C_11  and  C_13
REMARK                            x       y       z     vdW  Elec       q    Type
REMARK                         _______ _______ _______ _____ _____    ______ ____
ROOT
ATOM      1  C   UNL     1      50.144   6.953  15.736  0.00  0.00    +0.000 A 
ATOM      2  C   UNL     1      48.899   6.312  15.677  0.00  0.00    +0.000 A 
ATOM      3  C   UNL     1      48.048   6.497  14.578  0.00  0.00    +0.000 A 
ATOM      4  C   UNL     1      48.435   7.309  13.502  0.00  0.00    +0.000 A 
ATOM      5  C   UNL     1      49.683   7.945  13.563  0.00  0.00    +0.000 A 
ATOM      6  C   UNL     1      50.533   7.760  14.659  0.00  0.00    +0.000 A 
ENDROOT
BRANCH   1   7
ATOM      7  C   UNL     1      51.017   6.818  16.956  0.00  0.00    +0.000 C 
BRANCH   7  10
ATOM      8  O   UNL     1      50.217   4.804  18.663  0.00  0.00    +0.000 OA
ATOM      9  C   UNL     1      51.193   4.588  17.945  0.00  0.00    +0.000 C 
ATOM     10  N   UNL     1      51.682   5.545  17.063  0.00  0.00    +0.000 N 
ATOM     11  H   UNL     1      52.461   5.298  16.461  0.00  0.00    +0.000 HD
BRANCH   9  12
ATOM     12  C   UNL     1      51.926   3.266  17.966  0.00  0.00    +0.000 A 
ATOM     13  N   UNL     1      53.140   3.241  18.555  0.00  0.00    +0.000 NA
ATOM     14  C   UNL     1      53.767   2.054  18.563  0.00  0.00    +0.000 A 
ATOM     15  C   UNL     1      53.233   0.914  18.007  0.00  0.00    +0.000 A 
ATOM     16  C   UNL     1      51.990   1.052  17.427  0.00  0.00    +0.000 A 
ATOM     17  N   UNL     1      51.303   2.210  17.392  0.00  0.00    +0.000 NA
ENDBRANCH   9  12
ENDBRANCH   7  10
ENDBRANCH   1   7
BRANCH   4  18
ATOM     18  C   UNL     1      47.533   7.522  12.309  0.00  0.00    +0.000 C 
BRANCH  18  19
ATOM     19  N   UNL     1      46.817   6.325  11.954  0.00  0.00    +0.000 N 
ATOM     20  C   UNL     1      45.453   6.324  11.788  0.00  0.00    +0.000 C 
ATOM     21  O   UNL     1      44.778   7.343  11.911  0.00  0.00    +0.000 OA
ATOM     22  H   UNL     1      47.283   5.440  12.138  0.00  0.00    +0.000 HD
BRANCH  20  23
ATOM     23  C   UNL     1      44.845   5.046  11.392  0.00  0.00    +0.000 A 
ATOM     24  C   UNL     1      44.049   4.346  12.287  0.00  0.00    +0.000 A 
ATOM     25  S   UNL     1      43.384   2.912  11.637  0.00  0.00    +0.000 S 
ATOM     26  C   UNL     1      44.187   3.150  10.154  0.00  0.00    +0.000 A 
ATOM     27  N   UNL     1      44.070   2.247   9.142  0.00  0.00    +0.000 NA
ATOM     28  C   UNL     1      44.757   2.537   8.088  0.00  0.00    +0.000 A 
ATOM     29  N   UNL     1      45.544   3.651   7.951  0.00  0.00    +0.000 N 
ATOM     30  C   UNL     1      45.661   4.606   8.931  0.00  0.00    +0.000 A 
ATOM     31  O   UNL     1      46.327   5.622   8.756  0.00  0.00    +0.000 OA
ATOM     32  C   UNL     1      44.924   4.320  10.146  0.00  0.00    +0.000 A 
ATOM     33  H   UNL     1      46.046   3.829   7.094  0.00  0.00    +0.000 HD
ENDBRANCH  20  23
ENDBRANCH  18  19
ENDBRANCH   4  18
TORSDOF 6
ENDMDL
MODEL 6
REMARK VINA RESULT:    -6.523      3.278      5.055
REMARK INTER + INTRA:          -9.708
REMARK INTER:                  -8.921
REMARK INTRA:                  -0.787
REMARK UNBOUND:                -0.896
REMARK  Name = 
REMARK  6 active torsions:
REMARK  status: ('A' for Active; 'I' for Inactive)
REMARK    1  A    between atoms: C_2  and  C_25
REMARK    2  A    between atoms: N_3  and  C_4
REMARK    3  A    between atoms: C_4  and  C_5
REMARK    4  A    between atoms: C_8  and  C_9
REMARK    5  A    between atoms: C_9  and  N_10
REMARK    6  A    between atoms: C_11  and  C_13
REMARK                            x       y       z     vdW  Elec       q    Type
REMARK                         _______ _______ _______ _____ _____    ______ ____
ROOT
ATOM      1  C   UNL     1      47.457   5.474  14.537  0.00  0.00    +0.000 A 
ATOM      2  C   UNL     1      48.263   6.062  15.522  0.00  0.00    +0.000 A 
ATOM      3  C   UNL     1      48.612   5.355  16.681  0.00  0.00    +0.000 A 
ATOM      4  C   UNL     1      48.181   4.035  16.871  0.00  0.00    +0.000 A 
ATOM      5  C   UNL     1      47.379   3.447  15.882  0.00  0.00    +0.000 A 
ATOM      6  C   UNL     1      47.032   4.152  14.724  0.00  0.00    +0.000 A 
ENDROOT
BRANCH   1   7
ATOM      7  C   UNL     1      47.016   6.265  13.335  0.00  0.00    +0.000 C 
BRANCH   7  10
ATOM      8  O   UNL     1      44.583   6.286  12.034  0.00  0.00    +0.000 OA
ATOM      9  C   UNL     1      45.461   5.550  11.587  0.00  0.00    +0.000 C 
ATOM     10  N   UNL     1      46.716   5.458  12.180  0.00  0.00    +0.000 N 
ATOM     11  H   UNL     1      47.418   4.870  11.743  0.00  0.00    +0.000 HD
BRANCH   9  12
ATOM     12  C   UNL     1      45.243   4.698  10.358  0.00  0.00    +0.000 A 
ATOM     13  N   UNL     1      44.580   3.534  10.521  0.00  0.00    +0.000 NA
ATOM     14  C   UNL     1      44.396   2.800   9.412  0.00  0.00    +0.000 A 
ATOM     15  C   UNL     1      44.851   3.180   8.171  0.00  0.00    +0.000 A 
ATOM     16  C   UNL     1      45.521   4.383   8.117  0.00  0.00    +0.000 A 
ATOM     17  N   UNL     1      45.731   5.173   9.187  0.00  0.00    +0.000 NA
ENDBRANCH   9  12
ENDBRANCH   7  10
ENDBRANCH   1   7
BRANCH   4  18
ATOM     18  C   UNL     1      48.545   3.255  18.113  0.00  0.00    +0.000 C 
BRANCH  18  19
ATOM     19  N   UNL     1      49.970   3.109  18.259  0.00  0.00    +0.000 N 
ATOM     20  C   UNL     1      50.709   2.337  17.395  0.00  0.00    +0.000 C 
ATOM     21  O   UNL     1      50.199   1.752  16.443  0.00  0.00    +0.000 OA
ATOM     22  H   UNL     1      50.360   3.320  19.175  0.00  0.00    +0.000 HD
BRANCH  20  23
ATOM     23  C   UNL     1      52.158   2.298  17.632  0.00  0.00    +0.000 A 
ATOM     24  C   UNL     1      52.812   1.081  17.753  0.00  0.00    +0.000 A 
ATOM     25  S   UNL     1      54.500   1.228  17.970  0.00  0.00    +0.000 S 
ATOM     26  C   UNL     1      54.406   2.928  17.969  0.00  0.00    +0.000 A 
ATOM     27  N   UNL     1      55.518   3.692  18.148  0.00  0.00    +0.000 NA
ATOM     28  C   UNL     1      55.296   4.963  18.156  0.00  0.00    +0.000 A 
ATOM     29  N   UNL     1      54.063   5.541  17.994  0.00  0.00    +0.000 N 
ATOM     30  C   UNL     1      52.921   4.812  17.774  0.00  0.00    +0.000 A 
ATOM     31  O   UNL     1      51.841   5.360  17.574  0.00  0.00    +0.000 OA
ATOM     32  C   UNL     1      53.111   3.374  17.774  0.00  0.00    +0.000 A 
ATOM     33  H   UNL     1      53.956   6.545  17.996  0.00  0.00    +0.000 HD
ENDBRANCH  20  23
ENDBRANCH  18  19
ENDBRANCH   4  18
TORSDOF 6
ENDMDL
MODEL 7
REMARK VINA RESULT:    -6.482      5.062      7.712
REMARK INTER + INTRA:          -9.652
REMARK INTER:                  -8.734
REMARK INTRA:                  -0.918
REMARK UNBOUND:                -0.896
REMARK  Name = 
REMARK  6 active torsions:
REMARK  status: ('A' for Active; 'I' for Inactive)
REMARK    1  A    between atoms: C_2  and  C_25
REMARK    2  A    between atoms: N_3  and  C_4
REMARK    3  A    between atoms: C_4  and  C_5
REMARK    4  A    between atoms: C_8  and  C_9
REMARK    5  A    between atoms: C_9  and  N_10
REMARK    6  A    between atoms: C_11  and  C_13
REMARK                            x       y       z     vdW  Elec       q    Type
REMARK                         _______ _______ _______ _____ _____    ______ ____
ROOT
ATOM      1  C   UNL     1      50.539   8.717  11.531  0.00  0.00    +0.000 A 
ATOM      2  C   UNL     1      50.204   7.481  12.100  0.00  0.00    +0.000 A 
ATOM      3  C   UNL     1      48.901   7.226  12.551  0.00  0.00    +0.000 A 
ATOM      4  C   UNL     1      47.897   8.196  12.421  0.00  0.00    +0.000 A 
ATOM      5  C   UNL     1      48.234   9.430  11.848  0.00  0.00    +0.000 A 
ATOM      6  C   UNL     1      49.534   9.684  11.397  0.00  0.00    +0.000 A 
ENDROOT
BRANCH   1   7
ATOM      7  C   UNL     1      51.958   9.015  11.127  0.00  0.00    +0.000 C 
BRANCH   7  10
ATOM      8  O   UNL     1      53.750   6.922  11.004  0.00  0.00    +0.000 OA
ATOM      9  C   UNL     1      53.264   7.318   9.945  0.00  0.00    +0.000 C 
ATOM     10  N   UNL     1      52.364   8.377   9.901  0.00  0.00    +0.000 N 
ATOM     11  H   UNL     1      51.958   8.633   9.007  0.00  0.00    +0.000 HD
BRANCH   9  12
ATOM     12  C   UNL     1      53.606   6.680   8.618  0.00  0.00    +0.000 A 
ATOM     13  N   UNL     1      53.424   7.425   7.508  0.00  0.00    +0.000 NA
ATOM     14  C   UNL     1      53.740   6.836   6.344  0.00  0.00    +0.000 A 
ATOM     15  C   UNL     1      54.216   5.548   6.254  0.00  0.00    +0.000 A 
ATOM     16  C   UNL     1      54.360   4.875   7.448  0.00  0.00    +0.000 A 
ATOM     17  N   UNL     1      54.071   5.409   8.650  0.00  0.00    +0.000 NA
ENDBRANCH   9  12
ENDBRANCH   7  10
ENDBRANCH   1   7
BRANCH   4  18
ATOM     18  C   UNL     1      46.487   7.943  12.900  0.00  0.00    +0.000 C 
BRANCH  18  19
ATOM     19  N   UNL     1      46.019   6.632  12.533  0.00  0.00    +0.000 N 
ATOM     20  C   UNL     1      44.872   6.456  11.797  0.00  0.00    +0.000 C 
ATOM     21  O   UNL     1      44.201   7.403  11.395  0.00  0.00    +0.000 OA
ATOM     22  H   UNL     1      46.366   5.850  13.084  0.00  0.00    +0.000 HD
BRANCH  20  23
ATOM     23  C   UNL     1      44.522   5.070  11.457  0.00  0.00    +0.000 A 
ATOM     24  C   UNL     1      43.781   4.301  12.343  0.00  0.00    +0.000 A 
ATOM     25  S   UNL     1      43.422   2.736  11.759  0.00  0.00    +0.000 S 
ATOM     26  C   UNL     1      44.296   3.013  10.325  0.00  0.00    +0.000 A 
ATOM     27  N   UNL     1      44.417   2.042   9.379  0.00  0.00    +0.000 NA
ATOM     28  C   UNL     1      45.133   2.378   8.359  0.00  0.00    +0.000 A 
ATOM     29  N   UNL     1      45.732   3.600   8.193  0.00  0.00    +0.000 N 
ATOM     30  C   UNL     1      45.605   4.621   9.103  0.00  0.00    +0.000 A 
ATOM     31  O   UNL     1      46.105   5.724   8.898  0.00  0.00    +0.000 OA
ATOM     32  C   UNL     1      44.826   4.291  10.280  0.00  0.00    +0.000 A 
ATOM     33  H   UNL     1      46.268   3.807   7.364  0.00  0.00    +0.000 HD
ENDBRANCH  20  23
ENDBRANCH  18  19
ENDBRANCH   4  18
TORSDOF 6
ENDMDL
MODEL 8
REMARK VINA RESULT:    -6.459      2.957      9.026
REMARK INTER + INTRA:          -9.622
REMARK INTER:                  -8.804
REMARK INTRA:                  -0.818
REMARK UNBOUND:                -0.896
REMARK  Name = 
REMARK  6 active torsions:
REMARK  status: ('A' for Active; 'I' for Inactive)
REMARK    1  A    between atoms: C_2  and  C_25
REMARK    2  A    between atoms: N_3  and  C_4
REMARK    3  A    between atoms: C_4  and  C_5
REMARK    4  A    between atoms: C_8  and  C_9
REMARK    5  A    between atoms: C_9  and  N_10
REMARK    6  A    between atoms: C_11  and  C_13
REMARK                            x       y       z     vdW  Elec       q    Type
REMARK                         _______ _______ _______ _____ _____    ______ ____
ROOT
ATOM      1  C   UNL     1      47.967   7.336  14.609  0.00  0.00    +0.000 A 
ATOM      2  C   UNL     1      47.419   8.446  13.952  0.00  0.00    +0.000 A 
ATOM      3  C   UNL     1      46.554   8.282  12.861  0.00  0.00    +0.000 A 
ATOM      4  C   UNL     1      46.200   7.000  12.417  0.00  0.00    +0.000 A 
ATOM      5  C   UNL     1      46.746   5.891  13.078  0.00  0.00    +0.000 A 
ATOM      6  C   UNL     1      47.608   6.055  14.168  0.00  0.00    +0.000 A 
ENDROOT
BRANCH   1   7
ATOM      7  C   UNL     1      48.961   7.519  15.725  0.00  0.00    +0.000 C 
BRANCH   7  10
ATOM      8  O   UNL     1      48.501   5.854  17.876  0.00  0.00    +0.000 OA
ATOM      9  C   UNL     1      49.422   5.560  17.115  0.00  0.00    +0.000 C 
ATOM     10  N   UNL     1      49.742   6.343  16.011  0.00  0.00    +0.000 N 
ATOM     11  H   UNL     1      50.481   6.030  15.391  0.00  0.00    +0.000 HD
BRANCH   9  12
ATOM     12  C   UNL     1      50.267   4.324  17.320  0.00  0.00    +0.000 A 
ATOM     13  N   UNL     1      49.711   3.134  17.007  0.00  0.00    +0.000 NA
ATOM     14  C   UNL     1      50.486   2.054  17.195  0.00  0.00    +0.000 A 
ATOM     15  C   UNL     1      51.770   2.121  17.682  0.00  0.00    +0.000 A 
ATOM     16  C   UNL     1      52.239   3.384  17.975  0.00  0.00    +0.000 A 
ATOM     17  N   UNL     1      51.519   4.509  17.802  0.00  0.00    +0.000 NA
ENDBRANCH   9  12
ENDBRANCH   7  10
ENDBRANCH   1   7
BRANCH   4  18
ATOM     18  C   UNL     1      45.269   6.800  11.243  0.00  0.00    +0.000 C 
BRANCH  18  19
ATOM     19  N   UNL     1      45.515   5.553  10.568  0.00  0.00    +0.000 N 
ATOM     20  C   UNL     1      44.485   4.739  10.160  0.00  0.00    +0.000 C 
ATOM     21  O   UNL     1      43.306   5.042  10.328  0.00  0.00    +0.000 OA
ATOM     22  H   UNL     1      46.439   5.144  10.681  0.00  0.00    +0.000 HD
BRANCH  20  23
ATOM     23  C   UNL     1      44.867   3.511   9.451  0.00  0.00    +0.000 A 
ATOM     24  C   UNL     1      44.240   2.309   9.749  0.00  0.00    +0.000 A 
ATOM     25  S   UNL     1      44.772   1.001   8.789  0.00  0.00    +0.000 S 
ATOM     26  C   UNL     1      45.902   1.985   7.980  0.00  0.00    +0.000 A 
ATOM     27  N   UNL     1      46.728   1.468   7.029  0.00  0.00    +0.000 NA
ATOM     28  C   UNL     1      47.554   2.319   6.521  0.00  0.00    +0.000 A 
ATOM     29  N   UNL     1      47.625   3.643   6.872  0.00  0.00    +0.000 N 
ATOM     30  C   UNL     1      46.788   4.215   7.797  0.00  0.00    +0.000 A 
ATOM     31  O   UNL     1      46.837   5.416   8.047  0.00  0.00    +0.000 OA
ATOM     32  C   UNL     1      45.850   3.297   8.415  0.00  0.00    +0.000 A 
ATOM     33  H   UNL     1      48.286   4.263   6.427  0.00  0.00    +0.000 HD
ENDBRANCH  20  23
ENDBRANCH  18  19
ENDBRANCH   4  18
TORSDOF 6
ENDMDL
MODEL 9
REMARK VINA RESULT:    -6.163      6.031      7.955
REMARK INTER + INTRA:          -9.222
REMARK INTER:                  -8.278
REMARK INTRA:                  -0.944
REMARK UNBOUND:                -0.896
REMARK  Name = 
REMARK  6 active torsions:
REMARK  status: ('A' for Active; 'I' for Inactive)
REMARK    1  A    between atoms: C_2  and  C_25
REMARK    2  A    between atoms: N_3  and  C_4
REMARK    3  A    between atoms: C_4  and  C_5
REMARK    4  A    between atoms: C_8  and  C_9
REMARK    5  A    between atoms: C_9  and  N_10
REMARK    6  A    between atoms: C_11  and  C_13
REMARK                            x       y       z     vdW  Elec       q    Type
REMARK                         _______ _______ _______ _____ _____    ______ ____
ROOT
ATOM      1  C   UNL     1      48.289   8.117  12.203  0.00  0.00    +0.000 A 
ATOM      2  C   UNL     1      49.369   7.252  11.981  0.00  0.00    +0.000 A 
ATOM      3  C   UNL     1      50.575   7.730  11.449  0.00  0.00    +0.000 A 
ATOM      4  C   UNL     1      50.735   9.090  11.148  0.00  0.00    +0.000 A 
ATOM      5  C   UNL     1      49.654   9.954  11.375  0.00  0.00    +0.000 A 
ATOM      6  C   UNL     1      48.451   9.478  11.908  0.00  0.00    +0.000 A 
ENDROOT
BRANCH   1   7
ATOM      7  C   UNL     1      46.969   7.585  12.695  0.00  0.00    +0.000 C 
BRANCH   7  10
ATOM      8  O   UNL     1      44.689   7.384  11.155  0.00  0.00    +0.000 OA
ATOM      9  C   UNL     1      45.386   6.377  11.274  0.00  0.00    +0.000 C 
ATOM     10  N   UNL     1      46.546   6.373  12.041  0.00  0.00    +0.000 N 
ATOM     11  H   UNL     1      47.109   5.529  12.067  0.00  0.00    +0.000 HD
BRANCH   9  12
ATOM     12  C   UNL     1      45.037   5.075  10.591  0.00  0.00    +0.000 A 
ATOM     13  N   UNL     1      45.422   4.927   9.305  0.00  0.00    +0.000 NA
ATOM     14  C   UNL     1      45.103   3.759   8.725  0.00  0.00    +0.000 A 
ATOM     15  C   UNL     1      44.419   2.756   9.373  0.00  0.00    +0.000 A 
ATOM     16  C   UNL     1      44.069   3.013  10.681  0.00  0.00    +0.000 A 
ATOM     17  N   UNL     1      44.366   4.157  11.326  0.00  0.00    +0.000 NA
ENDBRANCH   9  12
ENDBRANCH   7  10
ENDBRANCH   1   7
BRANCH   4  18
ATOM     18  C   UNL     1      52.025   9.625  10.574  0.00  0.00    +0.000 C 
BRANCH  18  19
ATOM     19  N   UNL     1      52.386   8.963   9.348  0.00  0.00    +0.000 N 
ATOM     20  C   UNL     1      53.678   8.967   8.880  0.00  0.00    +0.000 C 
ATOM     21  O   UNL     1      54.594   9.512   9.492  0.00  0.00    +0.000 OA
ATOM     22  H   UNL     1      51.633   8.774   8.691  0.00  0.00    +0.000 HD
BRANCH  20  23
ATOM     23  C   UNL     1      53.923   8.226   7.636  0.00  0.00    +0.000 A 
ATOM     24  C   UNL     1      54.255   8.906   6.473  0.00  0.00    +0.000 A 
ATOM     25  S   UNL     1      54.557   7.880   5.140  0.00  0.00    +0.000 S 
ATOM     26  C   UNL     1      54.196   6.493   6.059  0.00  0.00    +0.000 A 
ATOM     27  N   UNL     1      54.232   5.252   5.499  0.00  0.00    +0.000 NA
ATOM     28  C   UNL     1      53.906   4.296   6.302  0.00  0.00    +0.000 A 
ATOM     29  N   UNL     1      53.554   4.465   7.616  0.00  0.00    +0.000 N 
ATOM     30  C   UNL     1      53.541   5.692   8.232  0.00  0.00    +0.000 A 
ATOM     31  O   UNL     1      53.279   5.805   9.426  0.00  0.00    +0.000 OA
ATOM     32  C   UNL     1      53.882   6.807   7.369  0.00  0.00    +0.000 A 
ATOM     33  H   UNL     1      53.323   3.673   8.198  0.00  0.00    +0.000 HD
ENDBRANCH  20  23
ENDBRANCH  18  19
ENDBRANCH   4  18
TORSDOF 6
ENDMDL
