MODEL 1
REMARK VINA RESULT:    -8.107      0.000      0.000
REMARK INTER + INTRA:         -11.215
REMARK INTER:                 -10.477
REMARK INTRA:                  -0.738
REMARK UNBOUND:                -0.738
REMARK  Name = 
REMARK  6 active torsions:
REMARK  status: ('A' for Active; 'I' for Inactive)
REMARK    1  A    between atoms: C_1  and  C_2
REMARK    2  A    between atoms: C_7  and  C_8
REMARK    3  A    between atoms: N_10  and  C_11
REMARK    4  A    between atoms: C_11  and  C_12
REMARK    5  A    between atoms: C_15  and  C_16
REMARK    6  A    between atoms: C_16  and  N_17
REMARK                            x       y       z     vdW  Elec       q    Type
REMARK                         _______ _______ _______ _____ _____    ______ ____
ROOT
ATOM      1  C   UNL     1      47.693   4.147  16.376  0.00  0.00    +0.000 C 
ATOM      2  O   UNL     1      46.849   4.402  17.229  0.00  0.00    +0.000 OA
ATOM      3  N   UNL     1      47.618   4.647  15.096  0.00  0.00    +0.000 N 
ATOM      4  H   UNL     1      48.342   4.420  14.423  0.00  0.00    +0.000 HD
ENDROOT
BRANCH   1  11
ATOM      5  C   UNL     1      53.886   3.226  19.165  0.00  0.00    +0.000 C 
ATOM      6  C   UNL     1      52.537   3.243  18.504  0.00  0.00    +0.000 A 
ATOM      7  N   UNL     1      52.057   2.190  17.908  0.00  0.00    +0.000 NA
ATOM      8  C   UNL     1      50.832   2.396  17.365  0.00  0.00    +0.000 A 
ATOM      9  N   UNL     1      50.137   1.437  16.692  0.00  0.00    +0.000 N 
ATOM     10  C   UNL     1      48.941   1.965  16.274  0.00  0.00    +0.000 A 
ATOM     11  C   UNL     1      48.853   3.296  16.675  0.00  0.00    +0.000 A 
ATOM     12  C   UNL     1      50.071   3.547  17.379  0.00  0.00    +0.000 A 
ATOM     13  C   UNL     1      50.633   4.689  18.060  0.00  0.00    +0.000 A 
ATOM     14  O   UNL     1      50.065   5.771  18.171  0.00  0.00    +0.000 OA
ATOM     15  N   UNL     1      51.880   4.457  18.594  0.00  0.00    +0.000 N 
ATOM     16  H   UNL     1      50.463   0.493  16.535  0.00  0.00    +0.000 HD
ATOM     17  H   UNL     1      52.298   5.236  19.075  0.00  0.00    +0.000 HD
ENDBRANCH   1  11
BRANCH   3  18
ATOM     18  C   UNL     1      46.569   5.536  14.663  0.00  0.00    +0.000 C 
BRANCH  18  19
ATOM     19  C   UNL     1      45.954   5.121  13.348  0.00  0.00    +0.000 A 
ATOM     20  C   UNL     1      45.671   3.772  13.092  0.00  0.00    +0.000 A 
ATOM     21  C   UNL     1      45.078   3.380  11.885  0.00  0.00    +0.000 A 
ATOM     22  C   UNL     1      44.772   4.328  10.900  0.00  0.00    +0.000 A 
ATOM     23  C   UNL     1      45.053   5.678  11.157  0.00  0.00    +0.000 A 
ATOM     24  C   UNL     1      45.645   6.069  12.363  0.00  0.00    +0.000 A 
BRANCH  22  25
ATOM     25  C   UNL     1      44.174   3.913   9.574  0.00  0.00    +0.000 C 
BRANCH  25  26
ATOM     26  N   UNL     1      45.043   4.316   8.471  0.00  0.00    +0.000 N 
ATOM     27  C   UNL     1      45.834   3.250   7.987  0.00  0.00    +0.000 A 
ATOM     28  C   UNL     1      46.707   3.490   6.933  0.00  0.00    +0.000 A 
ATOM     29  C   UNL     1      47.505   2.455   6.452  0.00  0.00    +0.000 A 
ATOM     30  C   UNL     1      47.393   1.217   7.046  0.00  0.00    +0.000 A 
ATOM     31  N   UNL     1      46.534   0.982   8.052  0.00  0.00    +0.000 NA
ATOM     32  N   UNL     1      45.745   2.006   8.510  0.00  0.00    +0.000 NA
ATOM     33  H   UNL     1      45.653   5.083   8.737  0.00  0.00    +0.000 HD
ENDBRANCH  25  26
ENDBRANCH  22  25
ENDBRANCH  18  19
ENDBRANCH   3  18
TORSDOF 5
ENDMDL
MODEL 2
REMARK VINA RESULT:    -8.036      1.772      2.107
REMARK INTER + INTRA:         -11.123
REMARK INTER:                 -10.539
REMARK INTRA:                  -0.584
REMARK UNBOUND:                -0.738
REMARK  Name = 
REMARK  6 active torsions:
REMARK  status: ('A' for Active; 'I' for Inactive)
REMARK    1  A    between atoms: C_1  and  C_2
REMARK    2  A    between atoms: C_7  and  C_8
REMARK    3  A    between atoms: N_10  and  C_11
REMARK    4  A    between atoms: C_11  and  C_12
REMARK    5  A    between atoms: C_15  and  C_16
REMARK    6  A    between atoms: C_16  and  N_17
REMARK                            x       y       z     vdW  Elec       q    Type
REMARK                         _______ _______ _______ _____ _____    ______ ____
ROOT
ATOM      1  C   UNL     1      48.698   6.620  15.594  0.00  0.00    +0.000 C 
ATOM      2  O   UNL     1      49.025   7.799  15.518  0.00  0.00    +0.000 OA
ATOM      3  N   UNL     1      47.794   6.051  14.725  0.00  0.00    +0.000 N 
ATOM      4  H   UNL     1      47.557   5.069  14.816  0.00  0.00    +0.000 HD
ENDROOT
BRANCH   1  11
ATOM      5  C   UNL     1      54.064   4.099  19.031  0.00  0.00    +0.000 C 
ATOM      6  C   UNL     1      52.780   4.539  18.389  0.00  0.00    +0.000 A 
ATOM      7  N   UNL     1      51.633   4.037  18.746  0.00  0.00    +0.000 NA
ATOM      8  C   UNL     1      50.587   4.551  18.053  0.00  0.00    +0.000 A 
ATOM      9  N   UNL     1      49.294   4.174  18.256  0.00  0.00    +0.000 N 
ATOM     10  C   UNL     1      48.485   4.880  17.399  0.00  0.00    +0.000 A 
ATOM     11  C   UNL     1      49.264   5.730  16.616  0.00  0.00    +0.000 A 
ATOM     12  C   UNL     1      50.605   5.509  17.060  0.00  0.00    +0.000 A 
ATOM     13  C   UNL     1      51.894   6.049  16.701  0.00  0.00    +0.000 A 
ATOM     14  O   UNL     1      52.063   6.918  15.852  0.00  0.00    +0.000 OA
ATOM     15  N   UNL     1      52.940   5.505  17.412  0.00  0.00    +0.000 N 
ATOM     16  H   UNL     1      48.994   3.485  18.932  0.00  0.00    +0.000 HD
ATOM     17  H   UNL     1      53.853   5.862  17.183  0.00  0.00    +0.000 HD
ENDBRANCH   1  11
BRANCH   3  18
ATOM     18  C   UNL     1      47.188   6.778  13.637  0.00  0.00    +0.000 C 
BRANCH  18  19
ATOM     19  C   UNL     1      46.424   5.887  12.690  0.00  0.00    +0.000 A 
ATOM     20  C   UNL     1      46.019   4.606  13.091  0.00  0.00    +0.000 A 
ATOM     21  C   UNL     1      45.288   3.781  12.226  0.00  0.00    +0.000 A 
ATOM     22  C   UNL     1      44.963   4.213  10.934  0.00  0.00    +0.000 A 
ATOM     23  C   UNL     1      45.366   5.495  10.533  0.00  0.00    +0.000 A 
ATOM     24  C   UNL     1      46.096   6.319  11.397  0.00  0.00    +0.000 A 
BRANCH  22  25
ATOM     25  C   UNL     1      44.214   3.314   9.974  0.00  0.00    +0.000 C 
BRANCH  25  26
ATOM     26  N   UNL     1      45.028   2.155   9.617  0.00  0.00    +0.000 N 
ATOM     27  C   UNL     1      45.732   2.339   8.406  0.00  0.00    +0.000 A 
ATOM     28  C   UNL     1      46.550   1.315   7.945  0.00  0.00    +0.000 A 
ATOM     29  C   UNL     1      47.241   1.473   6.747  0.00  0.00    +0.000 A 
ATOM     30  C   UNL     1      47.087   2.657   6.058  0.00  0.00    +0.000 A 
ATOM     31  N   UNL     1      46.311   3.654   6.516  0.00  0.00    +0.000 NA
ATOM     32  N   UNL     1      45.644   3.491   7.703  0.00  0.00    +0.000 NA
ATOM     33  H   UNL     1      44.465   1.312   9.544  0.00  0.00    +0.000 HD
ENDBRANCH  25  26
ENDBRANCH  22  25
ENDBRANCH  18  19
ENDBRANCH   3  18
TORSDOF 5
ENDMDL
MODEL 3
REMARK VINA RESULT:    -8.003      3.746      4.943
REMARK INTER + INTRA:         -11.080
REMARK INTER:                 -10.131
REMARK INTRA:                  -0.949
REMARK UNBOUND:                -0.738
REMARK  Name = 
REMARK  6 active torsions:
REMARK  status: ('A' for Active; 'I' for Inactive)
REMARK    1  A    between atoms: C_1  and  C_2
REMARK    2  A    between atoms: C_7  and  C_8
REMARK    3  A    between atoms: N_10  and  C_11
REMARK    4  A    between atoms: C_11  and  C_12
REMARK    5  A    between atoms: C_15  and  C_16
REMARK    6  A    between atoms: C_16  and  N_17
REMARK                            x       y       z     vdW  Elec       q    Type
REMARK                         _______ _______ _______ _____ _____    ______ ____
ROOT
ATOM      1  C   UNL     1      48.961   6.439  15.318  0.00  0.00    +0.000 C 
ATOM      2  O   UNL     1      49.280   5.614  16.167  0.00  0.00    +0.000 OA
ATOM      3  N   UNL     1      47.874   6.260  14.492  0.00  0.00    +0.000 N 
ATOM      4  H   UNL     1      47.637   6.971  13.809  0.00  0.00    +0.000 HD
ENDROOT
BRANCH   1  11
ATOM      5  C   UNL     1      51.830  11.168  11.271  0.00  0.00    +0.000 C 
ATOM      6  C   UNL     1      51.260  10.239  12.305  0.00  0.00    +0.000 A 
ATOM      7  N   UNL     1      51.404  10.467  13.579  0.00  0.00    +0.000 NA
ATOM      8  C   UNL     1      50.828   9.519  14.358  0.00  0.00    +0.000 A 
ATOM      9  N   UNL     1      50.853   9.550  15.720  0.00  0.00    +0.000 N 
ATOM     10  C   UNL     1      50.183   8.452  16.202  0.00  0.00    +0.000 A 
ATOM     11  C   UNL     1      49.716   7.686  15.136  0.00  0.00    +0.000 A 
ATOM     12  C   UNL     1      50.133   8.393  13.966  0.00  0.00    +0.000 A 
ATOM     13  C   UNL     1      49.985   8.183  12.546  0.00  0.00    +0.000 A 
ATOM     14  O   UNL     1      49.376   7.239  12.051  0.00  0.00    +0.000 OA
ATOM     15  N   UNL     1      50.586   9.153  11.777  0.00  0.00    +0.000 N 
ATOM     16  H   UNL     1      51.297  10.271  16.272  0.00  0.00    +0.000 HD
ATOM     17  H   UNL     1      50.499   9.032  10.781  0.00  0.00    +0.000 HD
ENDBRANCH   1  11
BRANCH   3  18
ATOM     18  C   UNL     1      47.003   5.113  14.580  0.00  0.00    +0.000 C 
BRANCH  18  19
ATOM     19  C   UNL     1      46.267   4.836  13.292  0.00  0.00    +0.000 A 
ATOM     20  C   UNL     1      45.716   3.571  13.048  0.00  0.00    +0.000 A 
ATOM     21  C   UNL     1      45.010   3.312  11.866  0.00  0.00    +0.000 A 
ATOM     22  C   UNL     1      44.856   4.308  10.895  0.00  0.00    +0.000 A 
ATOM     23  C   UNL     1      45.405   5.575  11.140  0.00  0.00    +0.000 A 
ATOM     24  C   UNL     1      46.110   5.834  12.320  0.00  0.00    +0.000 A 
BRANCH  22  25
ATOM     25  C   UNL     1      44.136   4.028   9.594  0.00  0.00    +0.000 C 
BRANCH  25  26
ATOM     26  N   UNL     1      44.982   4.373   8.455  0.00  0.00    +0.000 N 
ATOM     27  C   UNL     1      45.744   3.277   7.993  0.00  0.00    +0.000 A 
ATOM     28  C   UNL     1      46.593   3.461   6.908  0.00  0.00    +0.000 A 
ATOM     29  C   UNL     1      47.361   2.396   6.448  0.00  0.00    +0.000 A 
ATOM     30  C   UNL     1      47.245   1.183   7.093  0.00  0.00    +0.000 A 
ATOM     31  N   UNL     1      46.409   1.002   8.128  0.00  0.00    +0.000 NA
ATOM     32  N   UNL     1      45.649   2.056   8.566  0.00  0.00    +0.000 NA
ATOM     33  H   UNL     1      45.610   5.141   8.675  0.00  0.00    +0.000 HD
ENDBRANCH  25  26
ENDBRANCH  22  25
ENDBRANCH  18  19
ENDBRANCH   3  18
TORSDOF 5
ENDMDL
MODEL 4
REMARK VINA RESULT:    -7.987      3.030      9.304
REMARK INTER + INTRA:         -11.059
REMARK INTER:                 -10.231
REMARK INTRA:                  -0.828
REMARK UNBOUND:                -0.738
REMARK  Name = 
REMARK  6 active torsions:
REMARK  status: ('A' for Active; 'I' for Inactive)
REMARK    1  A    between atoms: C_1  and  C_2
REMARK    2  A    between atoms: C_7  and  C_8
REMARK    3  A    between atoms: N_10  and  C_11
REMARK    4  A    between atoms: C_11  and  C_12
REMARK    5  A    between atoms: C_15  and  C_16
REMARK    6  A    between atoms: C_16  and  N_17
REMARK                            x       y       z     vdW  Elec       q    Type
REMARK                         _______ _______ _______ _____ _____    ______ ____
ROOT
ATOM      1  C   UNL     1      44.147   4.634  10.706  0.00  0.00    +0.000 C 
ATOM      2  O   UNL     1      43.077   4.600  11.304  0.00  0.00    +0.000 OA
ATOM      3  N   UNL     1      44.997   5.714  10.782  0.00  0.00    +0.000 N 
ATOM      4  H   UNL     1      45.878   5.698  10.280  0.00  0.00    +0.000 HD
ENDROOT
BRANCH   1  11
ATOM      5  C   UNL     1      47.943   2.114   5.586  0.00  0.00    +0.000 C 
ATOM      6  C   UNL     1      47.053   2.486   6.738  0.00  0.00    +0.000 A 
ATOM      7  N   UNL     1      46.318   1.600   7.345  0.00  0.00    +0.000 NA
ATOM      8  C   UNL     1      45.578   2.121   8.353  0.00  0.00    +0.000 A 
ATOM      9  N   UNL     1      44.734   1.381   9.126  0.00  0.00    +0.000 N 
ATOM     10  C   UNL     1      44.140   2.205  10.050  0.00  0.00    +0.000 A 
ATOM     11  C   UNL     1      44.597   3.509   9.875  0.00  0.00    +0.000 A 
ATOM     12  C   UNL     1      45.523   3.429   8.789  0.00  0.00    +0.000 A 
ATOM     13  C   UNL     1      46.362   4.379   8.098  0.00  0.00    +0.000 A 
ATOM     14  O   UNL     1      46.433   5.570   8.386  0.00  0.00    +0.000 OA
ATOM     15  N   UNL     1      47.096   3.827   7.073  0.00  0.00    +0.000 N 
ATOM     16  H   UNL     1      44.582   0.387   9.024  0.00  0.00    +0.000 HD
ATOM     17  H   UNL     1      47.690   4.467   6.572  0.00  0.00    +0.000 HD
ENDBRANCH   1  11
BRANCH   3  18
ATOM     18  C   UNL     1      44.722   6.872  11.595  0.00  0.00    +0.000 C 
BRANCH  18  19
ATOM     19  C   UNL     1      45.829   7.178  12.574  0.00  0.00    +0.000 A 
ATOM     20  C   UNL     1      46.666   6.156  13.042  0.00  0.00    +0.000 A 
ATOM     21  C   UNL     1      47.711   6.434  13.931  0.00  0.00    +0.000 A 
ATOM     22  C   UNL     1      47.930   7.740  14.388  0.00  0.00    +0.000 A 
ATOM     23  C   UNL     1      47.094   8.764  13.919  0.00  0.00    +0.000 A 
ATOM     24  C   UNL     1      46.051   8.486  13.030  0.00  0.00    +0.000 A 
BRANCH  22  25
ATOM     25  C   UNL     1      49.026   8.047  15.384  0.00  0.00    +0.000 C 
BRANCH  25  26
ATOM     26  N   UNL     1      48.589   7.729  16.741  0.00  0.00    +0.000 N 
ATOM     27  C   UNL     1      49.219   6.574  17.257  0.00  0.00    +0.000 A 
ATOM     28  C   UNL     1      48.900   6.156  18.544  0.00  0.00    +0.000 A 
ATOM     29  C   UNL     1      49.500   5.013  19.064  0.00  0.00    +0.000 A 
ATOM     30  C   UNL     1      50.401   4.334  18.273  0.00  0.00    +0.000 A 
ATOM     31  N   UNL     1      50.723   4.751  17.037  0.00  0.00    +0.000 NA
ATOM     32  N   UNL     1      50.134   5.885  16.540  0.00  0.00    +0.000 NA
ATOM     33  H   UNL     1      47.582   7.604  16.790  0.00  0.00    +0.000 HD
ENDBRANCH  25  26
ENDBRANCH  22  25
ENDBRANCH  18  19
ENDBRANCH   3  18
TORSDOF 5
ENDMDL
MODEL 5
REMARK VINA RESULT:    -7.739      2.290      3.197
REMARK INTER + INTRA:         -10.740
REMARK INTER:                  -9.714
REMARK INTRA:                  -1.025
REMARK UNBOUND:                -0.738
REMARK  Name = 
REMARK  6 active torsions:
REMARK  status: ('A' for Active; 'I' for Inactive)
REMARK    1  A    between atoms: C_1  and  C_2
REMARK    2  A    between atoms: C_7  and  C_8
REMARK    3  A    between atoms: N_10  and  C_11
REMARK    4  A    between atoms: C_11  and  C_12
REMARK    5  A    between atoms: C_15  and  C_16
REMARK    6  A    between atoms: C_16  and  N_17
REMARK                            x       y       z     vdW  Elec       q    Type
REMARK                         _______ _______ _______ _____ _____    ______ ____
ROOT
ATOM      1  C   UNL     1      48.645   7.224  14.484  0.00  0.00    +0.000 C 
ATOM      2  O   UNL     1      49.380   7.310  13.507  0.00  0.00    +0.000 OA
ATOM      3  N   UNL     1      47.347   7.682  14.469  0.00  0.00    +0.000 N 
ATOM      4  H   UNL     1      46.768   7.584  15.295  0.00  0.00    +0.000 HD
ENDROOT
BRANCH   1  11
ATOM      5  C   UNL     1      48.091   2.443  19.363  0.00  0.00    +0.000 C 
ATOM      6  C   UNL     1      48.366   3.554  18.390  0.00  0.00    +0.000 A 
ATOM      7  N   UNL     1      49.337   4.400  18.578  0.00  0.00    +0.000 NA
ATOM      8  C   UNL     1      49.427   5.334  17.601  0.00  0.00    +0.000 A 
ATOM      9  N   UNL     1      50.367   6.321  17.589  0.00  0.00    +0.000 N 
ATOM     10  C   UNL     1      50.185   7.095  16.469  0.00  0.00    +0.000 A 
ATOM     11  C   UNL     1      49.103   6.610  15.738  0.00  0.00    +0.000 A 
ATOM     12  C   UNL     1      48.639   5.478  16.477  0.00  0.00    +0.000 A 
ATOM     13  C   UNL     1      47.580   4.514  16.299  0.00  0.00    +0.000 A 
ATOM     14  O   UNL     1      46.814   4.504  15.340  0.00  0.00    +0.000 OA
ATOM     15  N   UNL     1      47.504   3.582  17.308  0.00  0.00    +0.000 N 
ATOM     16  H   UNL     1      51.077   6.448  18.297  0.00  0.00    +0.000 HD
ATOM     17  H   UNL     1      46.774   2.895  17.211  0.00  0.00    +0.000 HD
ENDBRANCH   1  11
BRANCH   3  18
ATOM     18  C   UNL     1      46.735   8.263  13.300  0.00  0.00    +0.000 C 
BRANCH  18  19
ATOM     19  C   UNL     1      46.111   7.233  12.391  0.00  0.00    +0.000 A 
ATOM     20  C   UNL     1      46.751   6.855  11.202  0.00  0.00    +0.000 A 
ATOM     21  C   UNL     1      46.192   5.881  10.365  0.00  0.00    +0.000 A 
ATOM     22  C   UNL     1      44.970   5.277  10.689  0.00  0.00    +0.000 A 
ATOM     23  C   UNL     1      44.331   5.654  11.879  0.00  0.00    +0.000 A 
ATOM     24  C   UNL     1      44.889   6.626  12.716  0.00  0.00    +0.000 A 
BRANCH  22  25
ATOM     25  C   UNL     1      44.333   4.259   9.771  0.00  0.00    +0.000 C 
BRANCH  25  26
ATOM     26  N   UNL     1      44.838   4.409   8.409  0.00  0.00    +0.000 N 
ATOM     27  C   UNL     1      45.558   3.276   7.969  0.00  0.00    +0.000 A 
ATOM     28  C   UNL     1      46.095   3.279   6.687  0.00  0.00    +0.000 A 
ATOM     29  C   UNL     1      46.819   2.177   6.242  0.00  0.00    +0.000 A 
ATOM     30  C   UNL     1      46.975   1.111   7.101  0.00  0.00    +0.000 A 
ATOM     31  N   UNL     1      46.439   1.101   8.333  0.00  0.00    +0.000 NA
ATOM     32  N   UNL     1      45.717   2.188   8.756  0.00  0.00    +0.000 NA
ATOM     33  H   UNL     1      45.430   5.230   8.318  0.00  0.00    +0.000 HD
ENDBRANCH  25  26
ENDBRANCH  22  25
ENDBRANCH  18  19
ENDBRANCH   3  18
TORSDOF 5
ENDMDL
MODEL 6
REMARK VINA RESULT:    -7.641      5.700      8.813
REMARK INTER + INTRA:         -10.612
REMARK INTER:                  -9.647
REMARK INTRA:                  -0.965
REMARK UNBOUND:                -0.738
REMARK  Name = 
REMARK  6 active torsions:
REMARK  status: ('A' for Active; 'I' for Inactive)
REMARK    1  A    between atoms: C_1  and  C_2
REMARK    2  A    between atoms: C_7  and  C_8
REMARK    3  A    between atoms: N_10  and  C_11
REMARK    4  A    between atoms: C_11  and  C_12
REMARK    5  A    between atoms: C_15  and  C_16
REMARK    6  A    between atoms: C_16  and  N_17
REMARK                            x       y       z     vdW  Elec       q    Type
REMARK                         _______ _______ _______ _____ _____    ______ ____
ROOT
ATOM      1  C   UNL     1      43.860   5.643  11.102  0.00  0.00    +0.000 C 
ATOM      2  O   UNL     1      42.720   6.067  11.259  0.00  0.00    +0.000 OA
ATOM      3  N   UNL     1      44.972   6.417  11.347  0.00  0.00    +0.000 N 
ATOM      4  H   UNL     1      45.898   6.026  11.214  0.00  0.00    +0.000 HD
ENDROOT
BRANCH   1  11
ATOM      5  C   UNL     1      46.971   1.181   6.933  0.00  0.00    +0.000 C 
ATOM      6  C   UNL     1      46.211   2.006   7.932  0.00  0.00    +0.000 A 
ATOM      7  N   UNL     1      45.414   1.458   8.803  0.00  0.00    +0.000 NA
ATOM      8  C   UNL     1      44.812   2.359   9.616  0.00  0.00    +0.000 A 
ATOM      9  N   UNL     1      43.937   2.015  10.602  0.00  0.00    +0.000 N 
ATOM     10  C   UNL     1      43.510   3.155  11.237  0.00  0.00    +0.000 A 
ATOM     11  C   UNL     1      44.113   4.267  10.653  0.00  0.00    +0.000 A 
ATOM     12  C   UNL     1      44.948   3.732   9.624  0.00  0.00    +0.000 A 
ATOM     13  C   UNL     1      45.850   4.301   8.650  0.00  0.00    +0.000 A 
ATOM     14  O   UNL     1      46.086   5.501   8.551  0.00  0.00    +0.000 OA
ATOM     15  N   UNL     1      46.441   3.366   7.831  0.00  0.00    +0.000 N 
ATOM     16  H   UNL     1      43.657   1.068  10.819  0.00  0.00    +0.000 HD
ATOM     17  H   UNL     1      47.075   3.734   7.140  0.00  0.00    +0.000 HD
ENDBRANCH   1  11
BRANCH   3  18
ATOM     18  C   UNL     1      44.891   7.770  11.840  0.00  0.00    +0.000 C 
BRANCH  18  19
ATOM     19  C   UNL     1      46.238   8.447  11.917  0.00  0.00    +0.000 A 
ATOM     20  C   UNL     1      47.415   7.686  11.936  0.00  0.00    +0.000 A 
ATOM     21  C   UNL     1      48.670   8.306  11.982  0.00  0.00    +0.000 A 
ATOM     22  C   UNL     1      48.774   9.702  12.031  0.00  0.00    +0.000 A 
ATOM     23  C   UNL     1      47.596  10.464  12.011  0.00  0.00    +0.000 A 
ATOM     24  C   UNL     1      46.343   9.844  11.963  0.00  0.00    +0.000 A 
BRANCH  22  25
ATOM     25  C   UNL     1      50.121  10.383  12.128  0.00  0.00    +0.000 C 
BRANCH  25  26
ATOM     26  N   UNL     1      50.741  10.485  10.810  0.00  0.00    +0.000 N 
ATOM     27  C   UNL     1      51.886   9.666  10.685  0.00  0.00    +0.000 A 
ATOM     28  C   UNL     1      52.576   9.660   9.479  0.00  0.00    +0.000 A 
ATOM     29  C   UNL     1      53.714   8.870   9.342  0.00  0.00    +0.000 A 
ATOM     30  C   UNL     1      54.114   8.112  10.421  0.00  0.00    +0.000 A 
ATOM     31  N   UNL     1      53.433   8.103  11.579  0.00  0.00    +0.000 NA
ATOM     32  N   UNL     1      52.308   8.877  11.699  0.00  0.00    +0.000 NA
ATOM     33  H   UNL     1      50.998  11.443  10.591  0.00  0.00    +0.000 HD
ENDBRANCH  25  26
ENDBRANCH  22  25
ENDBRANCH  18  19
ENDBRANCH   3  18
TORSDOF 5
ENDMDL
MODEL 7
REMARK VINA RESULT:    -7.633      1.446      2.511
REMARK INTER + INTRA:         -10.602
REMARK INTER:                  -9.624
REMARK INTRA:                  -0.978
REMARK UNBOUND:                -0.738
REMARK  Name = 
REMARK  6 active torsions:
REMARK  status: ('A' for Active; 'I' for Inactive)
REMARK    1  A    between atoms: C_1  and  C_2
REMARK    2  A    between atoms: C_7  and  C_8
REMARK    3  A    between atoms: N_10  and  C_11
REMARK    4  A    between atoms: C_11  and  C_12
REMARK    5  A    between atoms: C_15  and  C_16
REMARK    6  A    between atoms: C_16  and  N_17
REMARK                            x       y       z     vdW  Elec       q    Type
REMARK                         _______ _______ _______ _____ _____    ______ ____
ROOT
ATOM      1  C   UNL     1      48.783   7.037  16.101  0.00  0.00    +0.000 C 
ATOM      2  O   UNL     1      48.323   7.993  16.717  0.00  0.00    +0.000 OA
ATOM      3  N   UNL     1      48.323   6.677  14.855  0.00  0.00    +0.000 N 
ATOM      4  H   UNL     1      48.737   5.885  14.374  0.00  0.00    +0.000 HD
ENDROOT
BRANCH   1  11
ATOM      5  C   UNL     1      51.409   0.949  17.837  0.00  0.00    +0.000 C 
ATOM      6  C   UNL     1      51.000   2.358  17.515  0.00  0.00    +0.000 A 
ATOM      7  N   UNL     1      51.782   3.369  17.765  0.00  0.00    +0.000 NA
ATOM      8  C   UNL     1      51.241   4.560  17.412  0.00  0.00    +0.000 A 
ATOM      9  N   UNL     1      51.878   5.753  17.582  0.00  0.00    +0.000 N 
ATOM     10  C   UNL     1      51.064   6.761  17.125  0.00  0.00    +0.000 A 
ATOM     11  C   UNL     1      49.870   6.218  16.654  0.00  0.00    +0.000 A 
ATOM     12  C   UNL     1      50.011   4.808  16.840  0.00  0.00    +0.000 A 
ATOM     13  C   UNL     1      49.179   3.661  16.568  0.00  0.00    +0.000 A 
ATOM     14  O   UNL     1      48.070   3.724  16.045  0.00  0.00    +0.000 OA
ATOM     15  N   UNL     1      49.745   2.464  16.943  0.00  0.00    +0.000 N 
ATOM     16  H   UNL     1      52.800   5.862  17.980  0.00  0.00    +0.000 HD
ATOM     17  H   UNL     1      49.187   1.645  16.766  0.00  0.00    +0.000 HD
ENDBRANCH   1  11
BRANCH   3  18
ATOM     18  C   UNL     1      47.296   7.409  14.156  0.00  0.00    +0.000 C 
BRANCH  18  19
ATOM     19  C   UNL     1      46.585   6.577  13.117  0.00  0.00    +0.000 A 
ATOM     20  C   UNL     1      46.216   7.139  11.888  0.00  0.00    +0.000 A 
ATOM     21  C   UNL     1      45.579   6.367  10.908  0.00  0.00    +0.000 A 
ATOM     22  C   UNL     1      45.279   5.020  11.145  0.00  0.00    +0.000 A 
ATOM     23  C   UNL     1      45.650   4.456  12.375  0.00  0.00    +0.000 A 
ATOM     24  C   UNL     1      46.287   5.227  13.353  0.00  0.00    +0.000 A 
BRANCH  22  25
ATOM     25  C   UNL     1      44.549   4.188  10.114  0.00  0.00    +0.000 C 
BRANCH  25  26
ATOM     26  N   UNL     1      45.051   4.475   8.774  0.00  0.00    +0.000 N 
ATOM     27  C   UNL     1      45.679   3.358   8.178  0.00  0.00    +0.000 A 
ATOM     28  C   UNL     1      46.202   3.488   6.897  0.00  0.00    +0.000 A 
ATOM     29  C   UNL     1      46.836   2.402   6.300  0.00  0.00    +0.000 A 
ATOM     30  C   UNL     1      46.918   1.225   7.011  0.00  0.00    +0.000 A 
ATOM     31  N   UNL     1      46.394   1.095   8.241  0.00  0.00    +0.000 NA
ATOM     32  N   UNL     1      45.762   2.169   8.815  0.00  0.00    +0.000 NA
ATOM     33  H   UNL     1      45.703   5.255   8.778  0.00  0.00    +0.000 HD
ENDBRANCH  25  26
ENDBRANCH  22  25
ENDBRANCH  18  19
ENDBRANCH   3  18
TORSDOF 5
ENDMDL
MODEL 8
REMARK VINA RESULT:    -7.438      2.724      3.796
REMARK INTER + INTRA:         -10.349
REMARK INTER:                 -10.006
REMARK INTRA:                  -0.343
REMARK UNBOUND:                -0.738
REMARK  Name = 
REMARK  6 active torsions:
REMARK  status: ('A' for Active; 'I' for Inactive)
REMARK    1  A    between atoms: C_1  and  C_2
REMARK    2  A    between atoms: C_7  and  C_8
REMARK    3  A    between atoms: N_10  and  C_11
REMARK    4  A    between atoms: C_11  and  C_12
REMARK    5  A    between atoms: C_15  and  C_16
REMARK    6  A    between atoms: C_16  and  N_17
REMARK                            x       y       z     vdW  Elec       q    Type
REMARK                         _______ _______ _______ _____ _____    ______ ____
ROOT
ATOM      1  C   UNL     1      48.788   8.265  15.101  0.00  0.00    +0.000 C 
ATOM      2  O   UNL     1      49.597   8.984  14.523  0.00  0.00    +0.000 OA
ATOM      3  N   UNL     1      47.837   7.537  14.422  0.00  0.00    +0.000 N 
ATOM      4  H   UNL     1      47.192   6.947  14.936  0.00  0.00    +0.000 HD
ENDROOT
BRANCH   1  11
ATOM      5  C   UNL     1      48.569   4.384  20.745  0.00  0.00    +0.000 C 
ATOM      6  C   UNL     1      48.635   5.384  19.626  0.00  0.00    +0.000 A 
ATOM      7  N   UNL     1      48.720   6.662  19.859  0.00  0.00    +0.000 NA
ATOM      8  C   UNL     1      48.763   7.408  18.729  0.00  0.00    +0.000 A 
ATOM      9  N   UNL     1      48.852   8.767  18.729  0.00  0.00    +0.000 N 
ATOM     10  C   UNL     1      48.874   9.212  17.430  0.00  0.00    +0.000 A 
ATOM     11  C   UNL     1      48.792   8.124  16.563  0.00  0.00    +0.000 A 
ATOM     12  C   UNL     1      48.732   6.980  17.417  0.00  0.00    +0.000 A 
ATOM     13  C   UNL     1      48.648   5.555  17.201  0.00  0.00    +0.000 A 
ATOM     14  O   UNL     1      48.632   5.029  16.093  0.00  0.00    +0.000 OA
ATOM     15  N   UNL     1      48.597   4.821  18.363  0.00  0.00    +0.000 N 
ATOM     16  H   UNL     1      48.894   9.342  19.559  0.00  0.00    +0.000 HD
ATOM     17  H   UNL     1      48.538   3.822  18.244  0.00  0.00    +0.000 HD
ENDBRANCH   1  11
BRANCH   3  18
ATOM     18  C   UNL     1      47.735   7.529  12.983  0.00  0.00    +0.000 C 
BRANCH  18  19
ATOM     19  C   UNL     1      46.725   6.531  12.473  0.00  0.00    +0.000 A 
ATOM     20  C   UNL     1      46.636   5.255  13.046  0.00  0.00    +0.000 A 
ATOM     21  C   UNL     1      45.685   4.331  12.595  0.00  0.00    +0.000 A 
ATOM     22  C   UNL     1      44.815   4.656  11.547  0.00  0.00    +0.000 A 
ATOM     23  C   UNL     1      44.903   5.934  10.974  0.00  0.00    +0.000 A 
ATOM     24  C   UNL     1      45.852   6.857  11.425  0.00  0.00    +0.000 A 
BRANCH  22  25
ATOM     25  C   UNL     1      43.815   3.652  11.019  0.00  0.00    +0.000 C 
BRANCH  25  26
ATOM     26  N   UNL     1      44.498   2.460  10.522  0.00  0.00    +0.000 N 
ATOM     27  C   UNL     1      45.129   2.677   9.276  0.00  0.00    +0.000 A 
ATOM     28  C   UNL     1      45.821   1.627   8.685  0.00  0.00    +0.000 A 
ATOM     29  C   UNL     1      46.436   1.817   7.451  0.00  0.00    +0.000 A 
ATOM     30  C   UNL     1      46.336   3.057   6.858  0.00  0.00    +0.000 A 
ATOM     31  N   UNL     1      45.683   4.076   7.441  0.00  0.00    +0.000 NA
ATOM     32  N   UNL     1      45.090   3.880   8.662  0.00  0.00    +0.000 NA
ATOM     33  H   UNL     1      43.862   1.673  10.436  0.00  0.00    +0.000 HD
ENDBRANCH  25  26
ENDBRANCH  22  25
ENDBRANCH  18  19
ENDBRANCH   3  18
TORSDOF 5
ENDMDL
MODEL 9
REMARK VINA RESULT:    -7.292      4.385      5.686
REMARK INTER + INTRA:         -10.161
REMARK INTER:                  -9.300
REMARK INTRA:                  -0.860
REMARK UNBOUND:                -0.738
REMARK  Name = 
REMARK  6 active torsions:
REMARK  status: ('A' for Active; 'I' for Inactive)
REMARK    1  A    between atoms: C_1  and  C_2
REMARK    2  A    between atoms: C_7  and  C_8
REMARK    3  A    between atoms: N_10  and  C_11
REMARK    4  A    between atoms: C_11  and  C_12
REMARK    5  A    between atoms: C_15  and  C_16
REMARK    6  A    between atoms: C_16  and  N_17
REMARK                            x       y       z     vdW  Elec       q    Type
REMARK                         _______ _______ _______ _____ _____    ______ ____
ROOT
ATOM      1  C   UNL     1      47.599   8.591  12.929  0.00  0.00    +0.000 C 
ATOM      2  O   UNL     1      46.585   9.168  13.307  0.00  0.00    +0.000 OA
ATOM      3  N   UNL     1      47.777   7.236  13.090  0.00  0.00    +0.000 N 
ATOM      4  H   UNL     1      48.627   6.795  12.754  0.00  0.00    +0.000 HD
ENDROOT
BRANCH   1  11
ATOM      5  C   UNL     1      54.271   9.908  12.079  0.00  0.00    +0.000 C 
ATOM      6  C   UNL     1      52.779   9.745  12.124  0.00  0.00    +0.000 A 
ATOM      7  N   UNL     1      51.994  10.440  11.352  0.00  0.00    +0.000 NA
ATOM      8  C   UNL     1      50.681  10.162  11.537  0.00  0.00    +0.000 A 
ATOM      9  N   UNL     1      49.679  10.768  10.841  0.00  0.00    +0.000 N 
ATOM     10  C   UNL     1      48.474  10.264  11.265  0.00  0.00    +0.000 A 
ATOM     11  C   UNL     1      48.690   9.315  12.262  0.00  0.00    +0.000 A 
ATOM     12  C   UNL     1      50.111   9.260  12.412  0.00  0.00    +0.000 A 
ATOM     13  C   UNL     1      51.015   8.501  13.242  0.00  0.00    +0.000 A 
ATOM     14  O   UNL     1      50.655   7.651  14.051  0.00  0.00    +0.000 OA
ATOM     15  N   UNL     1      52.341   8.808  13.042  0.00  0.00    +0.000 N 
ATOM     16  H   UNL     1      49.816  11.473  10.130  0.00  0.00    +0.000 HD
ATOM     17  H   UNL     1      52.996   8.294  13.608  0.00  0.00    +0.000 HD
ENDBRANCH   1  11
BRANCH   3  18
ATOM     18  C   UNL     1      46.778   6.379  13.680  0.00  0.00    +0.000 C 
BRANCH  18  19
ATOM     19  C   UNL     1      46.108   5.479  12.671  0.00  0.00    +0.000 A 
ATOM     20  C   UNL     1      45.899   4.124  12.958  0.00  0.00    +0.000 A 
ATOM     21  C   UNL     1      45.255   3.287  12.037  0.00  0.00    +0.000 A 
ATOM     22  C   UNL     1      44.824   3.784  10.801  0.00  0.00    +0.000 A 
ATOM     23  C   UNL     1      45.032   5.141  10.514  0.00  0.00    +0.000 A 
ATOM     24  C   UNL     1      45.674   5.977  11.434  0.00  0.00    +0.000 A 
BRANCH  22  25
ATOM     25  C   UNL     1      44.170   2.881   9.779  0.00  0.00    +0.000 C 
BRANCH  25  26
ATOM     26  N   UNL     1      45.083   1.813   9.380  0.00  0.00    +0.000 N 
ATOM     27  C   UNL     1      45.831   2.141   8.227  0.00  0.00    +0.000 A 
ATOM     28  C   UNL     1      46.743   1.215   7.736  0.00  0.00    +0.000 A 
ATOM     29  C   UNL     1      47.479   1.515   6.593  0.00  0.00    +0.000 A 
ATOM     30  C   UNL     1      47.273   2.737   5.988  0.00  0.00    +0.000 A 
ATOM     31  N   UNL     1      46.405   3.638   6.477  0.00  0.00    +0.000 NA
ATOM     32  N   UNL     1      45.694   3.335   7.609  0.00  0.00    +0.000 NA
ATOM     33  H   UNL     1      44.587   0.941   9.213  0.00  0.00    +0.000 HD
ENDBRANCH  25  26
ENDBRANCH  22  25
ENDBRANCH  18  19
ENDBRANCH   3  18
TORSDOF 5
ENDMDL
