MODEL 1
REMARK VINA RESULT:    -8.890      0.000      0.000
REMARK INTER + INTRA:         -12.160
REMARK INTER:                 -11.488
REMARK INTRA:                  -0.671
REMARK UNBOUND:                -0.671
REMARK  Name = 
REMARK  5 active torsions:
REMARK  status: ('A' for Active; 'I' for Inactive)
REMARK    1  A    between atoms: C_2  and  C_4
REMARK    2  A    between atoms: C_7  and  O_8
REMARK    3  A    between atoms: O_8  and  C_9
REMARK    4  A    between atoms: C_9  and  C_10
REMARK    5  A    between atoms: C_14  and  C_15
REMARK                            x       y       z     vdW  Elec       q    Type
REMARK                         _______ _______ _______ _____ _____    ______ ____
ROOT
ATOM      1  C   UNL     1      44.985   3.971  12.119  0.00  0.00    +0.000 A 
ATOM      2  N   UNL     1      45.787   3.199  12.879  0.00  0.00    +0.000 NA
ATOM      3  C   UNL     1      46.762   3.831  13.552  0.00  0.00    +0.000 A 
ATOM      4  C   UNL     1      46.974   5.186  13.485  0.00  0.00    +0.000 A 
ATOM      5  C   UNL     1      46.121   5.911  12.673  0.00  0.00    +0.000 A 
ATOM      6  N   UNL     1      45.117   5.311  11.992  0.00  0.00    +0.000 NA
ENDROOT
BRANCH   5   7
ATOM      7  C   UNL     1      46.238   7.374  12.502  0.00  0.00    +0.000 A 
ATOM      8  C   UNL     1      47.485   7.993  12.363  0.00  0.00    +0.000 A 
ATOM      9  C   UNL     1      47.540   9.364  12.167  0.00  0.00    +0.000 A 
ATOM     10  N   UNL     1      46.454  10.162  12.106  0.00  0.00    +0.000 NA
ATOM     11  C   UNL     1      45.259   9.576  12.261  0.00  0.00    +0.000 A 
ATOM     12  N   UNL     1      44.139  10.398  12.167  0.00  0.00    +0.000 N 
ATOM     13  C   UNL     1      45.110   8.209  12.458  0.00  0.00    +0.000 A 
ATOM     14  H   UNL     1      44.482  11.350  12.067  0.00  0.00    +0.000 HD
ATOM     15  H   UNL     1      43.531  10.300  12.971  0.00  0.00    +0.000 HD
ENDBRANCH   5   7
BRANCH   1  16
ATOM     16  C   UNL     1      43.860   3.289  11.370  0.00  0.00    +0.000 C 
BRANCH  16  17
ATOM     17  O   UNL     1      43.705   3.913  10.095  0.00  0.00    +0.000 OA
BRANCH  17  21
ATOM     18  C   UNL     1      46.591   2.698   7.485  0.00  0.00    +0.000 A 
ATOM     19  C   UNL     1      46.167   4.005   7.586  0.00  0.00    +0.000 A 
ATOM     20  N   UNL     1      45.208   4.416   8.444  0.00  0.00    +0.000 NA
ATOM     21  C   UNL     1      44.637   3.460   9.195  0.00  0.00    +0.000 A 
ATOM     22  N   UNL     1      44.956   2.154   9.165  0.00  0.00    +0.000 NA
ATOM     23  C   UNL     1      45.933   1.802   8.298  0.00  0.00    +0.000 A 
BRANCH  18  25
ATOM     24  N   UNL     1      47.876   2.990   5.439  0.00  0.00    +0.000 N 
ATOM     25  C   UNL     1      47.642   2.245   6.564  0.00  0.00    +0.000 C 
ATOM     26  O   UNL     1      48.308   1.248   6.811  0.00  0.00    +0.000 OA
ATOM     27  H   UNL     1      48.664   2.704   4.869  0.00  0.00    +0.000 HD
ATOM     28  H   UNL     1      47.537   3.932   5.310  0.00  0.00    +0.000 HD
ENDBRANCH  18  25
ENDBRANCH  17  21
ENDBRANCH  16  17
ENDBRANCH   1  16
TORSDOF 5
ENDMDL
MODEL 2
REMARK VINA RESULT:    -8.478      1.093      1.743
REMARK INTER + INTRA:         -11.627
REMARK INTER:                 -10.992
REMARK INTRA:                  -0.635
REMARK UNBOUND:                -0.671
REMARK  Name = 
REMARK  5 active torsions:
REMARK  status: ('A' for Active; 'I' for Inactive)
REMARK    1  A    between atoms: C_2  and  C_4
REMARK    2  A    between atoms: C_7  and  O_8
REMARK    3  A    between atoms: O_8  and  C_9
REMARK    4  A    between atoms: C_9  and  C_10
REMARK    5  A    between atoms: C_14  and  C_15
REMARK                            x       y       z     vdW  Elec       q    Type
REMARK                         _______ _______ _______ _____ _____    ______ ____
ROOT
ATOM      1  C   UNL     1      44.887   4.506  12.024  0.00  0.00    +0.000 A 
ATOM      2  N   UNL     1      45.435   3.602  12.859  0.00  0.00    +0.000 NA
ATOM      3  C   UNL     1      46.521   4.001  13.541  0.00  0.00    +0.000 A 
ATOM      4  C   UNL     1      47.083   5.248  13.411  0.00  0.00    +0.000 A 
ATOM      5  C   UNL     1      46.473   6.116  12.524  0.00  0.00    +0.000 A 
ATOM      6  N   UNL     1      45.367   5.755  11.832  0.00  0.00    +0.000 NA
ENDROOT
BRANCH   5   7
ATOM      7  C   UNL     1      46.974   7.485  12.281  0.00  0.00    +0.000 A 
ATOM      8  C   UNL     1      46.154   8.603  12.469  0.00  0.00    +0.000 A 
ATOM      9  C   UNL     1      46.682   9.868  12.265  0.00  0.00    +0.000 A 
ATOM     10  N   UNL     1      47.955  10.103  11.884  0.00  0.00    +0.000 NA
ATOM     11  C   UNL     1      48.736   9.034  11.682  0.00  0.00    +0.000 A 
ATOM     12  N   UNL     1      50.058   9.280  11.319  0.00  0.00    +0.000 N 
ATOM     13  C   UNL     1      48.292   7.730  11.866  0.00  0.00    +0.000 A 
ATOM     14  H   UNL     1      50.147  10.287  11.201  0.00  0.00    +0.000 HD
ATOM     15  H   UNL     1      50.317   8.779  10.478  0.00  0.00    +0.000 HD
ENDBRANCH   5   7
BRANCH   1  16
ATOM     16  C   UNL     1      43.645   4.094  11.263  0.00  0.00    +0.000 C 
BRANCH  16  17
ATOM     17  O   UNL     1      43.735   4.583   9.925  0.00  0.00    +0.000 OA
BRANCH  17  21
ATOM     18  C   UNL     1      46.478   2.489   7.755  0.00  0.00    +0.000 A 
ATOM     19  C   UNL     1      46.335   3.857   7.671  0.00  0.00    +0.000 A 
ATOM     20  N   UNL     1      45.426   4.558   8.382  0.00  0.00    +0.000 NA
ATOM     21  C   UNL     1      44.612   3.841   9.174  0.00  0.00    +0.000 A 
ATOM     22  N   UNL     1      44.648   2.504   9.318  0.00  0.00    +0.000 NA
ATOM     23  C   UNL     1      45.588   1.855   8.593  0.00  0.00    +0.000 A 
BRANCH  18  25
ATOM     24  N   UNL     1      48.440   2.412   6.318  0.00  0.00    +0.000 N 
ATOM     25  C   UNL     1      47.472   1.720   6.995  0.00  0.00    +0.000 C 
ATOM     26  O   UNL     1      47.453   0.496   6.991  0.00  0.00    +0.000 OA
ATOM     27  H   UNL     1      49.164   1.856   5.876  0.00  0.00    +0.000 HD
ATOM     28  H   UNL     1      48.650   3.387   6.480  0.00  0.00    +0.000 HD
ENDBRANCH  18  25
ENDBRANCH  17  21
ENDBRANCH  16  17
ENDBRANCH   1  16
TORSDOF 5
ENDMDL
MODEL 3
REMARK VINA RESULT:    -8.464      1.902      3.764
REMARK INTER + INTRA:         -11.609
REMARK INTER:                 -10.959
REMARK INTRA:                  -0.650
REMARK UNBOUND:                -0.671
REMARK  Name = 
REMARK  5 active torsions:
REMARK  status: ('A' for Active; 'I' for Inactive)
REMARK    1  A    between atoms: C_2  and  C_4
REMARK    2  A    between atoms: C_7  and  O_8
REMARK    3  A    between atoms: O_8  and  C_9
REMARK    4  A    between atoms: C_9  and  C_10
REMARK    5  A    between atoms: C_14  and  C_15
REMARK                            x       y       z     vdW  Elec       q    Type
REMARK                         _______ _______ _______ _____ _____    ______ ____
ROOT
ATOM      1  C   UNL     1      44.692   5.348  11.801  0.00  0.00    +0.000 A 
ATOM      2  N   UNL     1      44.670   6.567  11.226  0.00  0.00    +0.000 NA
ATOM      3  C   UNL     1      45.518   7.479  11.728  0.00  0.00    +0.000 A 
ATOM      4  C   UNL     1      46.368   7.229  12.778  0.00  0.00    +0.000 A 
ATOM      5  C   UNL     1      46.324   5.960  13.326  0.00  0.00    +0.000 A 
ATOM      6  N   UNL     1      45.494   5.010  12.836  0.00  0.00    +0.000 NA
ENDROOT
BRANCH   5   7
ATOM      7  C   UNL     1      47.177   5.555  14.462  0.00  0.00    +0.000 A 
ATOM      8  C   UNL     1      48.233   6.361  14.902  0.00  0.00    +0.000 A 
ATOM      9  C   UNL     1      48.980   5.956  15.997  0.00  0.00    +0.000 A 
ATOM     10  N   UNL     1      48.761   4.811  16.678  0.00  0.00    +0.000 NA
ATOM     11  C   UNL     1      47.765   4.027  16.245  0.00  0.00    +0.000 A 
ATOM     12  N   UNL     1      47.523   2.862  16.970  0.00  0.00    +0.000 N 
ATOM     13  C   UNL     1      46.963   4.356  15.160  0.00  0.00    +0.000 A 
ATOM     14  H   UNL     1      48.246   2.804  17.682  0.00  0.00    +0.000 HD
ATOM     15  H   UNL     1      47.515   2.043  16.375  0.00  0.00    +0.000 HD
ENDBRANCH   5   7
BRANCH   1  16
ATOM     16  C   UNL     1      43.766   4.291  11.239  0.00  0.00    +0.000 C 
BRANCH  16  17
ATOM     17  O   UNL     1      43.624   4.498   9.833  0.00  0.00    +0.000 OA
BRANCH  17  21
ATOM     18  C   UNL     1      46.438   2.481   7.681  0.00  0.00    +0.000 A 
ATOM     19  C   UNL     1      45.612   1.872   8.601  0.00  0.00    +0.000 A 
ATOM     20  N   UNL     1      44.681   2.533   9.322  0.00  0.00    +0.000 NA
ATOM     21  C   UNL     1      44.614   3.861   9.128  0.00  0.00    +0.000 A 
ATOM     22  N   UNL     1      45.382   4.561   8.274  0.00  0.00    +0.000 NA
ATOM     23  C   UNL     1      46.287   3.845   7.567  0.00  0.00    +0.000 A 
BRANCH  18  25
ATOM     24  N   UNL     1      48.518   2.478   6.418  0.00  0.00    +0.000 N 
ATOM     25  C   UNL     1      47.444   1.767   6.883  0.00  0.00    +0.000 C 
ATOM     26  O   UNL     1      47.340   0.567   6.666  0.00  0.00    +0.000 OA
ATOM     27  H   UNL     1      49.240   1.943   5.948  0.00  0.00    +0.000 HD
ATOM     28  H   UNL     1      48.779   3.390   6.764  0.00  0.00    +0.000 HD
ENDBRANCH  18  25
ENDBRANCH  17  21
ENDBRANCH  16  17
ENDBRANCH   1  16
TORSDOF 5
ENDMDL
MODEL 4
REMARK VINA RESULT:    -7.653      2.165      3.249
REMARK INTER + INTRA:         -10.562
REMARK INTER:                  -9.920
REMARK INTRA:                  -0.642
REMARK UNBOUND:                -0.671
REMARK  Name = 
REMARK  5 active torsions:
REMARK  status: ('A' for Active; 'I' for Inactive)
REMARK    1  A    between atoms: C_2  and  C_4
REMARK    2  A    between atoms: C_7  and  O_8
REMARK    3  A    between atoms: O_8  and  C_9
REMARK    4  A    between atoms: C_9  and  C_10
REMARK    5  A    between atoms: C_14  and  C_15
REMARK                            x       y       z     vdW  Elec       q    Type
REMARK                         _______ _______ _______ _____ _____    ______ ____
ROOT
ATOM      1  C   UNL     1      44.937   6.126  11.672  0.00  0.00    +0.000 A 
ATOM      2  N   UNL     1      44.154   7.176  11.355  0.00  0.00    +0.000 NA
ATOM      3  C   UNL     1      44.674   8.395  11.570  0.00  0.00    +0.000 A 
ATOM      4  C   UNL     1      45.926   8.605  12.095  0.00  0.00    +0.000 A 
ATOM      5  C   UNL     1      46.665   7.479  12.409  0.00  0.00    +0.000 A 
ATOM      6  N   UNL     1      46.180   6.234  12.192  0.00  0.00    +0.000 NA
ENDROOT
BRANCH   5   7
ATOM      7  C   UNL     1      48.023   7.555  12.987  0.00  0.00    +0.000 A 
ATOM      8  C   UNL     1      49.082   8.135  12.279  0.00  0.00    +0.000 A 
ATOM      9  C   UNL     1      50.329   8.218  12.879  0.00  0.00    +0.000 A 
ATOM     10  N   UNL     1      50.601   7.764  14.121  0.00  0.00    +0.000 NA
ATOM     11  C   UNL     1      49.594   7.189  14.792  0.00  0.00    +0.000 A 
ATOM     12  N   UNL     1      49.870   6.750  16.085  0.00  0.00    +0.000 N 
ATOM     13  C   UNL     1      48.312   7.067  14.271  0.00  0.00    +0.000 A 
ATOM     14  H   UNL     1      50.865   6.898  16.239  0.00  0.00    +0.000 HD
ATOM     15  H   UNL     1      49.610   5.780  16.217  0.00  0.00    +0.000 HD
ENDBRANCH   5   7
BRANCH   1  16
ATOM     16  C   UNL     1      44.387   4.739  11.415  0.00  0.00    +0.000 C 
BRANCH  16  17
ATOM     17  O   UNL     1      43.948   4.657  10.059  0.00  0.00    +0.000 OA
BRANCH  17  21
ATOM     18  C   UNL     1      46.478   2.511   7.690  0.00  0.00    +0.000 A 
ATOM     19  C   UNL     1      45.667   1.935   8.644  0.00  0.00    +0.000 A 
ATOM     20  N   UNL     1      44.830   2.639   9.436  0.00  0.00    +0.000 NA
ATOM     21  C   UNL     1      44.846   3.973   9.279  0.00  0.00    +0.000 A 
ATOM     22  N   UNL     1      45.610   4.642   8.397  0.00  0.00    +0.000 NA
ATOM     23  C   UNL     1      46.418   3.885   7.619  0.00  0.00    +0.000 A 
BRANCH  18  25
ATOM     24  N   UNL     1      48.467   2.403   6.292  0.00  0.00    +0.000 N 
ATOM     25  C   UNL     1      47.382   1.752   6.815  0.00  0.00    +0.000 C 
ATOM     26  O   UNL     1      47.185   0.565   6.585  0.00  0.00    +0.000 OA
ATOM     27  H   UNL     1      49.120   1.833   5.766  0.00  0.00    +0.000 HD
ATOM     28  H   UNL     1      48.808   3.289   6.635  0.00  0.00    +0.000 HD
ENDBRANCH  18  25
ENDBRANCH  17  21
ENDBRANCH  16  17
ENDBRANCH   1  16
TORSDOF 5
ENDMDL
MODEL 5
REMARK VINA RESULT:    -7.576      5.681      8.384
REMARK INTER + INTRA:         -10.462
REMARK INTER:                  -9.993
REMARK INTRA:                  -0.468
REMARK UNBOUND:                -0.671
REMARK  Name = 
REMARK  5 active torsions:
REMARK  status: ('A' for Active; 'I' for Inactive)
REMARK    1  A    between atoms: C_2  and  C_4
REMARK    2  A    between atoms: C_7  and  O_8
REMARK    3  A    between atoms: O_8  and  C_9
REMARK    4  A    between atoms: C_9  and  C_10
REMARK    5  A    between atoms: C_14  and  C_15
REMARK                            x       y       z     vdW  Elec       q    Type
REMARK                         _______ _______ _______ _____ _____    ______ ____
ROOT
ATOM      1  C   UNL     1      47.636   4.371  15.569  0.00  0.00    +0.000 A 
ATOM      2  N   UNL     1      48.426   5.457  15.447  0.00  0.00    +0.000 NA
ATOM      3  C   UNL     1      48.119   6.310  14.456  0.00  0.00    +0.000 A 
ATOM      4  C   UNL     1      47.076   6.116  13.583  0.00  0.00    +0.000 A 
ATOM      5  C   UNL     1      46.320   4.972  13.761  0.00  0.00    +0.000 A 
ATOM      6  N   UNL     1      46.589   4.098  14.759  0.00  0.00    +0.000 NA
ENDROOT
BRANCH   5   7
ATOM      7  C   UNL     1      45.173   4.634  12.893  0.00  0.00    +0.000 A 
ATOM      8  C   UNL     1      45.093   3.397  12.243  0.00  0.00    +0.000 A 
ATOM      9  C   UNL     1      43.979   3.112  11.470  0.00  0.00    +0.000 A 
ATOM     10  N   UNL     1      42.947   3.964  11.289  0.00  0.00    +0.000 NA
ATOM     11  C   UNL     1      43.032   5.157  11.892  0.00  0.00    +0.000 A 
ATOM     12  N   UNL     1      41.952   6.021  11.729  0.00  0.00    +0.000 N 
ATOM     13  C   UNL     1      44.108   5.525  12.688  0.00  0.00    +0.000 A 
ATOM     14  H   UNL     1      41.309   5.569  11.083  0.00  0.00    +0.000 HD
ATOM     15  H   UNL     1      42.244   6.931  11.394  0.00  0.00    +0.000 HD
ENDBRANCH   5   7
BRANCH   1  16
ATOM     16  C   UNL     1      47.942   3.407  16.694  0.00  0.00    +0.000 C 
BRANCH  16  17
ATOM     17  O   UNL     1      48.826   2.394  16.212  0.00  0.00    +0.000 OA
BRANCH  17  21
ATOM     18  C   UNL     1      52.466   2.362  18.045  0.00  0.00    +0.000 A 
ATOM     19  C   UNL     1      51.864   1.229  17.545  0.00  0.00    +0.000 A 
ATOM     20  N   UNL     1      50.656   1.229  16.941  0.00  0.00    +0.000 NA
ATOM     21  C   UNL     1      50.026   2.414  16.878  0.00  0.00    +0.000 A 
ATOM     22  N   UNL     1      50.509   3.577  17.349  0.00  0.00    +0.000 NA
ATOM     23  C   UNL     1      51.729   3.520  17.931  0.00  0.00    +0.000 A 
BRANCH  18  25
ATOM     24  N   UNL     1      54.263   1.194  19.198  0.00  0.00    +0.000 N 
ATOM     25  C   UNL     1      53.785   2.373  18.692  0.00  0.00    +0.000 C 
ATOM     26  O   UNL     1      54.449   3.401  18.751  0.00  0.00    +0.000 OA
ATOM     27  H   UNL     1      55.211   1.213  19.558  0.00  0.00    +0.000 HD
ATOM     28  H   UNL     1      53.880   0.289  18.967  0.00  0.00    +0.000 HD
ENDBRANCH  18  25
ENDBRANCH  17  21
ENDBRANCH  16  17
ENDBRANCH   1  16
TORSDOF 5
ENDMDL
MODEL 6
REMARK VINA RESULT:    -7.476      3.983      8.115
REMARK INTER + INTRA:         -10.332
REMARK INTER:                  -9.874
REMARK INTRA:                  -0.458
REMARK UNBOUND:                -0.671
REMARK  Name = 
REMARK  5 active torsions:
REMARK  status: ('A' for Active; 'I' for Inactive)
REMARK    1  A    between atoms: C_2  and  C_4
REMARK    2  A    between atoms: C_7  and  O_8
REMARK    3  A    between atoms: O_8  and  C_9
REMARK    4  A    between atoms: C_9  and  C_10
REMARK    5  A    between atoms: C_14  and  C_15
REMARK                            x       y       z     vdW  Elec       q    Type
REMARK                         _______ _______ _______ _____ _____    ______ ____
ROOT
ATOM      1  C   UNL     1      45.113   5.188  12.769  0.00  0.00    +0.000 A 
ATOM      2  N   UNL     1      43.871   5.702  12.858  0.00  0.00    +0.000 NA
ATOM      3  C   UNL     1      43.056   5.477  11.815  0.00  0.00    +0.000 A 
ATOM      4  C   UNL     1      43.433   4.779  10.693  0.00  0.00    +0.000 A 
ATOM      5  C   UNL     1      44.728   4.295  10.668  0.00  0.00    +0.000 A 
ATOM      6  N   UNL     1      45.573   4.488  11.708  0.00  0.00    +0.000 NA
ENDROOT
BRANCH   5   7
ATOM      7  C   UNL     1      45.269   3.533   9.523  0.00  0.00    +0.000 A 
ATOM      8  C   UNL     1      45.191   2.137   9.476  0.00  0.00    +0.000 A 
ATOM      9  C   UNL     1      45.679   1.471   8.363  0.00  0.00    +0.000 A 
ATOM     10  N   UNL     1      46.242   2.086   7.302  0.00  0.00    +0.000 NA
ATOM     11  C   UNL     1      46.338   3.421   7.354  0.00  0.00    +0.000 A 
ATOM     12  N   UNL     1      46.891   4.055   6.244  0.00  0.00    +0.000 N 
ATOM     13  C   UNL     1      45.872   4.170   8.427  0.00  0.00    +0.000 A 
ATOM     14  H   UNL     1      47.197   3.321   5.609  0.00  0.00    +0.000 HD
ATOM     15  H   UNL     1      47.653   4.670   6.502  0.00  0.00    +0.000 HD
ENDBRANCH   5   7
BRANCH   1  16
ATOM     16  C   UNL     1      46.045   5.402  13.942  0.00  0.00    +0.000 C 
BRANCH  16  17
ATOM     17  O   UNL     1      46.480   4.132  14.429  0.00  0.00    +0.000 OA
BRANCH  17  21
ATOM     18  C   UNL     1      48.527   4.306  17.949  0.00  0.00    +0.000 A 
ATOM     19  C   UNL     1      47.507   3.411  17.714  0.00  0.00    +0.000 A 
ATOM     20  N   UNL     1      46.820   3.350  16.553  0.00  0.00    +0.000 NA
ATOM     21  C   UNL     1      47.157   4.252  15.617  0.00  0.00    +0.000 A 
ATOM     22  N   UNL     1      48.120   5.182  15.745  0.00  0.00    +0.000 NA
ATOM     23  C   UNL     1      48.785   5.188  16.923  0.00  0.00    +0.000 A 
BRANCH  18  25
ATOM     24  N   UNL     1      48.645   4.034  20.365  0.00  0.00    +0.000 N 
ATOM     25  C   UNL     1      49.288   4.371  19.204  0.00  0.00    +0.000 C 
ATOM     26  O   UNL     1      50.471   4.690  19.208  0.00  0.00    +0.000 OA
ATOM     27  H   UNL     1      49.217   4.002  21.201  0.00  0.00    +0.000 HD
ATOM     28  H   UNL     1      47.765   3.539  20.395  0.00  0.00    +0.000 HD
ENDBRANCH  18  25
ENDBRANCH  17  21
ENDBRANCH  16  17
ENDBRANCH   1  16
TORSDOF 5
ENDMDL
MODEL 7
REMARK VINA RESULT:    -7.044      5.447      8.143
REMARK INTER + INTRA:          -9.774
REMARK INTER:                  -9.249
REMARK INTRA:                  -0.525
REMARK UNBOUND:                -0.671
REMARK  Name = 
REMARK  5 active torsions:
REMARK  status: ('A' for Active; 'I' for Inactive)
REMARK    1  A    between atoms: C_2  and  C_4
REMARK    2  A    between atoms: C_7  and  O_8
REMARK    3  A    between atoms: O_8  and  C_9
REMARK    4  A    between atoms: C_9  and  C_10
REMARK    5  A    between atoms: C_14  and  C_15
REMARK                            x       y       z     vdW  Elec       q    Type
REMARK                         _______ _______ _______ _____ _____    ______ ____
ROOT
ATOM      1  C   UNL     1      48.476   4.767  16.584  0.00  0.00    +0.000 A 
ATOM      2  N   UNL     1      48.641   6.083  16.824  0.00  0.00    +0.000 NA
ATOM      3  C   UNL     1      49.800   6.444  17.397  0.00  0.00    +0.000 A 
ATOM      4  C   UNL     1      50.784   5.552  17.749  0.00  0.00    +0.000 A 
ATOM      5  C   UNL     1      50.536   4.217  17.485  0.00  0.00    +0.000 A 
ATOM      6  N   UNL     1      49.387   3.817  16.894  0.00  0.00    +0.000 NA
ENDROOT
BRANCH   5   7
ATOM      7  C   UNL     1      51.503   3.150  17.817  0.00  0.00    +0.000 A 
ATOM      8  C   UNL     1      51.311   1.834  17.381  0.00  0.00    +0.000 A 
ATOM      9  C   UNL     1      52.266   0.877  17.685  0.00  0.00    +0.000 A 
ATOM     10  N   UNL     1      53.388   1.127  18.393  0.00  0.00    +0.000 NA
ATOM     11  C   UNL     1      53.562   2.381  18.831  0.00  0.00    +0.000 A 
ATOM     12  N   UNL     1      54.736   2.642  19.535  0.00  0.00    +0.000 N 
ATOM     13  C   UNL     1      52.660   3.404  18.570  0.00  0.00    +0.000 A 
ATOM     14  H   UNL     1      55.217   1.753  19.643  0.00  0.00    +0.000 HD
ATOM     15  H   UNL     1      54.549   3.080  20.428  0.00  0.00    +0.000 HD
ENDBRANCH   5   7
BRANCH   1  16
ATOM     16  C   UNL     1      47.190   4.333  15.914  0.00  0.00    +0.000 C 
BRANCH  16  17
ATOM     17  O   UNL     1      47.477   3.927  14.575  0.00  0.00    +0.000 OA
BRANCH  17  21
ATOM     18  C   UNL     1      44.392   4.885  12.090  0.00  0.00    +0.000 A 
ATOM     19  C   UNL     1      44.853   3.598  12.259  0.00  0.00    +0.000 A 
ATOM     20  N   UNL     1      45.878   3.272  13.075  0.00  0.00    +0.000 NA
ATOM     21  C   UNL     1      46.475   4.293  13.712  0.00  0.00    +0.000 A 
ATOM     22  N   UNL     1      46.123   5.586  13.607  0.00  0.00    +0.000 NA
ATOM     23  C   UNL     1      45.081   5.853  12.787  0.00  0.00    +0.000 A 
BRANCH  18  25
ATOM     24  N   UNL     1      42.221   5.935  11.762  0.00  0.00    +0.000 N 
ATOM     25  C   UNL     1      43.270   5.246  11.214  0.00  0.00    +0.000 C 
ATOM     26  O   UNL     1      43.286   4.965  10.022  0.00  0.00    +0.000 OA
ATOM     27  H   UNL     1      41.504   6.248  11.117  0.00  0.00    +0.000 HD
ATOM     28  H   UNL     1      42.263   6.399  12.659  0.00  0.00    +0.000 HD
ENDBRANCH  18  25
ENDBRANCH  17  21
ENDBRANCH  16  17
ENDBRANCH   1  16
TORSDOF 5
ENDMDL
MODEL 8
REMARK VINA RESULT:    -6.874      4.913      7.772
REMARK INTER + INTRA:          -9.554
REMARK INTER:                  -8.953
REMARK INTRA:                  -0.601
REMARK UNBOUND:                -0.671
REMARK  Name = 
REMARK  5 active torsions:
REMARK  status: ('A' for Active; 'I' for Inactive)
REMARK    1  A    between atoms: C_2  and  C_4
REMARK    2  A    between atoms: C_7  and  O_8
REMARK    3  A    between atoms: O_8  and  C_9
REMARK    4  A    between atoms: C_9  and  C_10
REMARK    5  A    between atoms: C_14  and  C_15
REMARK                            x       y       z     vdW  Elec       q    Type
REMARK                         _______ _______ _______ _____ _____    ______ ____
ROOT
ATOM      1  C   UNL     1      48.455   6.643  14.408  0.00  0.00    +0.000 A 
ATOM      2  N   UNL     1      49.101   7.500  13.594  0.00  0.00    +0.000 NA
ATOM      3  C   UNL     1      48.543   7.719  12.393  0.00  0.00    +0.000 A 
ATOM      4  C   UNL     1      47.385   7.110  11.972  0.00  0.00    +0.000 A 
ATOM      5  C   UNL     1      46.787   6.231  12.857  0.00  0.00    +0.000 A 
ATOM      6  N   UNL     1      47.312   5.999  14.082  0.00  0.00    +0.000 NA
ENDROOT
BRANCH   5   7
ATOM      7  C   UNL     1      45.543   5.502  12.533  0.00  0.00    +0.000 A 
ATOM      8  C   UNL     1      45.493   4.104  12.555  0.00  0.00    +0.000 A 
ATOM      9  C   UNL     1      44.292   3.468  12.282  0.00  0.00    +0.000 A 
ATOM     10  N   UNL     1      43.146   4.115  11.983  0.00  0.00    +0.000 NA
ATOM     11  C   UNL     1      43.196   5.453  11.940  0.00  0.00    +0.000 A 
ATOM     12  N   UNL     1      42.005   6.118  11.663  0.00  0.00    +0.000 N 
ATOM     13  C   UNL     1      44.354   6.173  12.204  0.00  0.00    +0.000 A 
ATOM     14  H   UNL     1      41.309   5.403  11.463  0.00  0.00    +0.000 HD
ATOM     15  H   UNL     1      42.106   6.767  10.893  0.00  0.00    +0.000 HD
ENDBRANCH   5   7
BRANCH   1  16
ATOM     16  C   UNL     1      49.047   6.398  15.779  0.00  0.00    +0.000 C 
BRANCH  16  17
ATOM     17  O   UNL     1      48.404   5.268  16.369  0.00  0.00    +0.000 OA
BRANCH  17  21
ATOM     18  C   UNL     1      51.089   2.370  17.375  0.00  0.00    +0.000 A 
ATOM     19  C   UNL     1      49.838   2.096  16.866  0.00  0.00    +0.000 A 
ATOM     20  N   UNL     1      48.940   3.049  16.535  0.00  0.00    +0.000 NA
ATOM     21  C   UNL     1      49.313   4.319  16.764  0.00  0.00    +0.000 A 
ATOM     22  N   UNL     1      50.497   4.701  17.274  0.00  0.00    +0.000 NA
ATOM     23  C   UNL     1      51.363   3.705  17.574  0.00  0.00    +0.000 A 
BRANCH  18  25
ATOM     24  N   UNL     1      51.614   0.125  18.151  0.00  0.00    +0.000 N 
ATOM     25  C   UNL     1      52.076   1.341  17.725  0.00  0.00    +0.000 C 
ATOM     26  O   UNL     1      53.277   1.555  17.611  0.00  0.00    +0.000 OA
ATOM     27  H   UNL     1      52.313  -0.594  18.300  0.00  0.00    +0.000 HD
ATOM     28  H   UNL     1      50.659  -0.185  18.032  0.00  0.00    +0.000 HD
ENDBRANCH  18  25
ENDBRANCH  17  21
ENDBRANCH  16  17
ENDBRANCH   1  16
TORSDOF 5
ENDMDL
MODEL 9
REMARK VINA RESULT:    -6.759      5.123      7.988
REMARK INTER + INTRA:          -9.406
REMARK INTER:                  -8.863
REMARK INTRA:                  -0.542
REMARK UNBOUND:                -0.671
REMARK  Name = 
REMARK  5 active torsions:
REMARK  status: ('A' for Active; 'I' for Inactive)
REMARK    1  A    between atoms: C_2  and  C_4
REMARK    2  A    between atoms: C_7  and  O_8
REMARK    3  A    between atoms: O_8  and  C_9
REMARK    4  A    between atoms: C_9  and  C_10
REMARK    5  A    between atoms: C_14  and  C_15
REMARK                            x       y       z     vdW  Elec       q    Type
REMARK                         _______ _______ _______ _____ _____    ______ ____
ROOT
ATOM      1  C   UNL     1      48.305   5.013  16.292  0.00  0.00    +0.000 A 
ATOM      2  N   UNL     1      47.151   4.457  16.711  0.00  0.00    +0.000 NA
ATOM      3  C   UNL     1      47.261   3.384  17.510  0.00  0.00    +0.000 A 
ATOM      4  C   UNL     1      48.464   2.841  17.891  0.00  0.00    +0.000 A 
ATOM      5  C   UNL     1      49.605   3.458  17.410  0.00  0.00    +0.000 A 
ATOM      6  N   UNL     1      49.534   4.552  16.616  0.00  0.00    +0.000 NA
ENDROOT
BRANCH   5   7
ATOM      7  C   UNL     1      50.965   2.978  17.735  0.00  0.00    +0.000 A 
ATOM      8  C   UNL     1      51.876   3.786  18.423  0.00  0.00    +0.000 A 
ATOM      9  C   UNL     1      53.126   3.276  18.738  0.00  0.00    +0.000 A 
ATOM     10  N   UNL     1      53.537   2.031  18.414  0.00  0.00    +0.000 NA
ATOM     11  C   UNL     1      52.675   1.264  17.736  0.00  0.00    +0.000 A 
ATOM     12  N   UNL     1      53.091  -0.030  17.431  0.00  0.00    +0.000 N 
ATOM     13  C   UNL     1      51.401   1.691  17.382  0.00  0.00    +0.000 A 
ATOM     14  H   UNL     1      54.056  -0.109  17.741  0.00  0.00    +0.000 HD
ATOM     15  H   UNL     1      52.996  -0.233  16.443  0.00  0.00    +0.000 HD
ENDBRANCH   5   7
BRANCH   1  16
ATOM     16  C   UNL     1      48.212   6.241  15.412  0.00  0.00    +0.000 C 
BRANCH  16  17
ATOM     17  O   UNL     1      48.239   5.836  14.043  0.00  0.00    +0.000 OA
BRANCH  17  21
ATOM     18  C   UNL     1      44.562   5.895  12.285  0.00  0.00    +0.000 A 
ATOM     19  C   UNL     1      45.275   7.036  12.579  0.00  0.00    +0.000 A 
ATOM     20  N   UNL     1      46.492   7.026  13.167  0.00  0.00    +0.000 NA
ATOM     21  C   UNL     1      46.979   5.819  13.498  0.00  0.00    +0.000 A 
ATOM     22  N   UNL     1      46.363   4.645  13.278  0.00  0.00    +0.000 NA
ATOM     23  C   UNL     1      45.154   4.714  12.674  0.00  0.00    +0.000 A 
BRANCH  18  25
ATOM     24  N   UNL     1      42.774   7.081  11.136  0.00  0.00    +0.000 N 
ATOM     25  C   UNL     1      43.244   5.896  11.635  0.00  0.00    +0.000 C 
ATOM     26  O   UNL     1      42.599   4.862  11.519  0.00  0.00    +0.000 OA
ATOM     27  H   UNL     1      41.905   7.035  10.616  0.00  0.00    +0.000 HD
ATOM     28  H   UNL     1      43.353   7.895  10.986  0.00  0.00    +0.000 HD
ENDBRANCH  18  25
ENDBRANCH  17  21
ENDBRANCH  16  17
ENDBRANCH   1  16
TORSDOF 5
ENDMDL
