MODEL 1
REMARK VINA RESULT:    -8.166      0.000      0.000
REMARK INTER + INTRA:         -12.167
REMARK INTER:                 -11.269
REMARK INTRA:                  -0.898
REMARK UNBOUND:                -0.898
REMARK  Name = 
REMARK  8 active torsions:
REMARK  status: ('A' for Active; 'I' for Inactive)
REMARK    1  A    between atoms: C_1  and  C_2
REMARK    2  A    between atoms: C_2  and  C_3
REMARK    3  A    between atoms: C_2  and  C_15
REMARK    4  A    between atoms: C_3  and  N_4
REMARK    5  A    between atoms: N_4  and  C_5
REMARK    6  A    between atoms: C_8  and  C_9
REMARK    7  A    between atoms: C_19  and  C_20
REMARK    8  A    between atoms: C_20  and  O_21
REMARK                            x       y       z     vdW  Elec       q    Type
REMARK                         _______ _______ _______ _____ _____    ______ ____
ROOT
ATOM      1  N   UNL     1      43.737   4.860   9.966  0.00  0.00    +0.000 N 
ATOM      2  H   UNL     1      43.074   5.319   9.337  0.00  0.00    +0.000 HD
ENDROOT
BRANCH   1   3
ATOM      3  C   UNL     1      44.607   4.047   9.212  0.00  0.00    +0.000 A 
ATOM      4  C   UNL     1      45.544   4.580   8.324  0.00  0.00    +0.000 A 
ATOM      5  C   UNL     1      46.426   3.753   7.616  0.00  0.00    +0.000 A 
ATOM      6  C   UNL     1      46.408   2.369   7.808  0.00  0.00    +0.000 A 
ATOM      7  C   UNL     1      45.516   1.824   8.737  0.00  0.00    +0.000 A 
ATOM      8  C   UNL     1      44.643   2.661   9.433  0.00  0.00    +0.000 A 
ATOM      9  F   UNL     1      43.794   2.111  10.317  0.00  0.00    +0.000 F 
BRANCH   6  10
ATOM     10  C   UNL     1      47.307   1.439   7.068  0.00  0.00    +0.000 C 
ATOM     11  N   UNL     1      48.323   1.967   6.319  0.00  0.00    +0.000 N 
ATOM     12  O   UNL     1      47.146   0.226   7.111  0.00  0.00    +0.000 OA
ATOM     13  H   UNL     1      48.530   2.947   6.215  0.00  0.00    +0.000 HD
ATOM     14  H   UNL     1      48.908   1.309   5.822  0.00  0.00    +0.000 HD
ENDBRANCH   6  10
ENDBRANCH   1   3
BRANCH   1  15
ATOM     15  C   UNL     1      44.352   5.802  10.895  0.00  0.00    +0.000 C 
BRANCH  15  17
ATOM     16  C   UNL     1      43.288   4.641  12.928  0.00  0.00    +0.000 C 
ATOM     17  C   UNL     1      44.517   5.107  12.213  0.00  0.00    +0.000 C 
BRANCH  17  18
ATOM     18  C   UNL     1      45.754   5.359  12.963  0.00  0.00    +0.000 A 
ATOM     19  C   UNL     1      46.490   6.532  12.767  0.00  0.00    +0.000 A 
ATOM     20  C   UNL     1      47.588   6.814  13.582  0.00  0.00    +0.000 A 
ATOM     21  C   UNL     1      47.942   5.936  14.607  0.00  0.00    +0.000 A 
ATOM     22  C   UNL     1      47.232   4.746  14.802  0.00  0.00    +0.000 A 
ATOM     23  C   UNL     1      46.148   4.463  13.962  0.00  0.00    +0.000 A 
BRANCH  22  24
ATOM     24  C   UNL     1      47.503   3.822  15.962  0.00  0.00    +0.000 C 
BRANCH  24  25
ATOM     25  O   UNL     1      48.265   2.689  15.575  0.00  0.00    +0.000 OA
ATOM     26  H   UNL     1      49.195   2.970  15.580  0.00  0.00    +0.000 HD
ENDBRANCH  24  25
ENDBRANCH  22  24
ENDBRANCH  17  18
ENDBRANCH  15  17
ENDBRANCH   1  15
TORSDOF 7
ENDMDL
MODEL 2
REMARK VINA RESULT:    -7.963      2.453      3.154
REMARK INTER + INTRA:         -11.886
REMARK INTER:                 -10.805
REMARK INTRA:                  -1.081
REMARK UNBOUND:                -0.898
REMARK  Name = 
REMARK  8 active torsions:
REMARK  status: ('A' for Active; 'I' for Inactive)
REMARK    1  A    between atoms: C_1  and  C_2
REMARK    2  A    between atoms: C_2  and  C_3
REMARK    3  A    between atoms: C_2  and  C_15
REMARK    4  A    between atoms: C_3  and  N_4
REMARK    5  A    between atoms: N_4  and  C_5
REMARK    6  A    between atoms: C_8  and  C_9
REMARK    7  A    between atoms: C_19  and  C_20
REMARK    8  A    between atoms: C_20  and  O_21
REMARK                            x       y       z     vdW  Elec       q    Type
REMARK                         _______ _______ _______ _____ _____    ______ ____
ROOT
ATOM      1  N   UNL     1      43.803   3.256  10.634  0.00  0.00    +0.000 N 
ATOM      2  H   UNL     1      43.196   4.029  10.353  0.00  0.00    +0.000 HD
ENDROOT
BRANCH   1   3
ATOM      3  C   UNL     1      44.744   3.008   9.614  0.00  0.00    +0.000 A 
ATOM      4  C   UNL     1      45.030   1.718   9.162  0.00  0.00    +0.000 A 
ATOM      5  C   UNL     1      45.940   1.500   8.118  0.00  0.00    +0.000 A 
ATOM      6  C   UNL     1      46.561   2.579   7.483  0.00  0.00    +0.000 A 
ATOM      7  C   UNL     1      46.241   3.880   7.885  0.00  0.00    +0.000 A 
ATOM      8  C   UNL     1      45.335   4.080   8.927  0.00  0.00    +0.000 A 
ATOM      9  F   UNL     1      45.048   5.339   9.295  0.00  0.00    +0.000 F 
BRANCH   6  10
ATOM     10  C   UNL     1      47.552   2.407   6.384  0.00  0.00    +0.000 C 
ATOM     11  N   UNL     1      47.373   3.110   5.224  0.00  0.00    +0.000 N 
ATOM     12  O   UNL     1      48.506   1.648   6.497  0.00  0.00    +0.000 OA
ATOM     13  H   UNL     1      46.619   3.748   5.033  0.00  0.00    +0.000 HD
ATOM     14  H   UNL     1      48.058   2.963   4.495  0.00  0.00    +0.000 HD
ENDBRANCH   6  10
ENDBRANCH   1   3
BRANCH   1  15
ATOM     15  C   UNL     1      44.324   3.433  11.986  0.00  0.00    +0.000 C 
BRANCH  15  17
ATOM     16  C   UNL     1      42.647   5.377  12.128  0.00  0.00    +0.000 C 
ATOM     17  C   UNL     1      44.010   4.833  12.420  0.00  0.00    +0.000 C 
BRANCH  17  18
ATOM     18  C   UNL     1      45.140   5.749  12.625  0.00  0.00    +0.000 A 
ATOM     19  C   UNL     1      46.439   5.263  12.805  0.00  0.00    +0.000 A 
ATOM     20  C   UNL     1      47.515   6.150  12.866  0.00  0.00    +0.000 A 
ATOM     21  C   UNL     1      47.300   7.522  12.728  0.00  0.00    +0.000 A 
ATOM     22  C   UNL     1      46.005   8.027  12.572  0.00  0.00    +0.000 A 
ATOM     23  C   UNL     1      44.931   7.129  12.536  0.00  0.00    +0.000 A 
BRANCH  22  24
ATOM     24  C   UNL     1      45.732   9.485  12.307  0.00  0.00    +0.000 C 
BRANCH  24  25
ATOM     25  O   UNL     1      44.427   9.867  12.716  0.00  0.00    +0.000 OA
ATOM     26  H   UNL     1      44.542  10.563  13.384  0.00  0.00    +0.000 HD
ENDBRANCH  24  25
ENDBRANCH  22  24
ENDBRANCH  17  18
ENDBRANCH  15  17
ENDBRANCH   1  15
TORSDOF 7
ENDMDL
MODEL 3
REMARK VINA RESULT:    -7.873      1.828      2.502
REMARK INTER + INTRA:         -11.763
REMARK INTER:                 -11.018
REMARK INTRA:                  -0.745
REMARK UNBOUND:                -0.898
REMARK  Name = 
REMARK  8 active torsions:
REMARK  status: ('A' for Active; 'I' for Inactive)
REMARK    1  A    between atoms: C_1  and  C_2
REMARK    2  A    between atoms: C_2  and  C_3
REMARK    3  A    between atoms: C_2  and  C_15
REMARK    4  A    between atoms: C_3  and  N_4
REMARK    5  A    between atoms: N_4  and  C_5
REMARK    6  A    between atoms: C_8  and  C_9
REMARK    7  A    between atoms: C_19  and  C_20
REMARK    8  A    between atoms: C_20  and  O_21
REMARK                            x       y       z     vdW  Elec       q    Type
REMARK                         _______ _______ _______ _____ _____    ______ ____
ROOT
ATOM      1  N   UNL     1      43.916   5.022  10.041  0.00  0.00    +0.000 N 
ATOM      2  H   UNL     1      44.109   5.996   9.797  0.00  0.00    +0.000 HD
ENDROOT
BRANCH   1   3
ATOM      3  C   UNL     1      44.742   4.178   9.272  0.00  0.00    +0.000 A 
ATOM      4  C   UNL     1      45.722   4.676   8.410  0.00  0.00    +0.000 A 
ATOM      5  C   UNL     1      46.558   3.814   7.686  0.00  0.00    +0.000 A 
ATOM      6  C   UNL     1      46.448   2.430   7.836  0.00  0.00    +0.000 A 
ATOM      7  C   UNL     1      45.512   1.916   8.739  0.00  0.00    +0.000 A 
ATOM      8  C   UNL     1      44.686   2.786   9.451  0.00  0.00    +0.000 A 
ATOM      9  F   UNL     1      43.793   2.266  10.309  0.00  0.00    +0.000 F 
BRANCH   6  10
ATOM     10  C   UNL     1      47.295   1.466   7.077  0.00  0.00    +0.000 C 
ATOM     11  N   UNL     1      48.334   1.952   6.333  0.00  0.00    +0.000 N 
ATOM     12  O   UNL     1      47.071   0.263   7.102  0.00  0.00    +0.000 OA
ATOM     13  H   UNL     1      48.592   2.921   6.243  0.00  0.00    +0.000 HD
ATOM     14  H   UNL     1      48.882   1.273   5.822  0.00  0.00    +0.000 HD
ENDBRANCH   6  10
ENDBRANCH   1   3
BRANCH   1  15
ATOM     15  C   UNL     1      43.915   4.810  11.484  0.00  0.00    +0.000 C 
BRANCH  15  17
ATOM     16  C   UNL     1      45.922   3.907  12.813  0.00  0.00    +0.000 C 
ATOM     17  C   UNL     1      45.319   4.991  11.977  0.00  0.00    +0.000 C 
BRANCH  17  18
ATOM     18  C   UNL     1      45.835   6.363  12.066  0.00  0.00    +0.000 A 
ATOM     19  C   UNL     1      45.055   7.394  12.599  0.00  0.00    +0.000 A 
ATOM     20  C   UNL     1      45.608   8.660  12.797  0.00  0.00    +0.000 A 
ATOM     21  C   UNL     1      46.948   8.895  12.483  0.00  0.00    +0.000 A 
ATOM     22  C   UNL     1      47.736   7.882  11.928  0.00  0.00    +0.000 A 
ATOM     23  C   UNL     1      47.162   6.623  11.711  0.00  0.00    +0.000 A 
BRANCH  22  24
ATOM     24  C   UNL     1      49.213   8.052  11.677  0.00  0.00    +0.000 C 
BRANCH  24  25
ATOM     25  O   UNL     1      49.971   6.971  12.199  0.00  0.00    +0.000 OA
ATOM     26  H   UNL     1      49.963   6.277  11.518  0.00  0.00    +0.000 HD
ENDBRANCH  24  25
ENDBRANCH  22  24
ENDBRANCH  17  18
ENDBRANCH  15  17
ENDBRANCH   1  15
TORSDOF 7
ENDMDL
MODEL 4
REMARK VINA RESULT:    -7.342      2.195      2.676
REMARK INTER + INTRA:         -11.029
REMARK INTER:                  -9.953
REMARK INTRA:                  -1.076
REMARK UNBOUND:                -0.898
REMARK  Name = 
REMARK  8 active torsions:
REMARK  status: ('A' for Active; 'I' for Inactive)
REMARK    1  A    between atoms: C_1  and  C_2
REMARK    2  A    between atoms: C_2  and  C_3
REMARK    3  A    between atoms: C_2  and  C_15
REMARK    4  A    between atoms: C_3  and  N_4
REMARK    5  A    between atoms: N_4  and  C_5
REMARK    6  A    between atoms: C_8  and  C_9
REMARK    7  A    between atoms: C_19  and  C_20
REMARK    8  A    between atoms: C_20  and  O_21
REMARK                            x       y       z     vdW  Elec       q    Type
REMARK                         _______ _______ _______ _____ _____    ______ ____
ROOT
ATOM      1  N   UNL     1      44.084   3.357  10.718  0.00  0.00    +0.000 N 
ATOM      2  H   UNL     1      43.521   4.196  10.561  0.00  0.00    +0.000 HD
ENDROOT
BRANCH   1   3
ATOM      3  C   UNL     1      44.939   3.157   9.616  0.00  0.00    +0.000 A 
ATOM      4  C   UNL     1      45.244   1.883   9.130  0.00  0.00    +0.000 A 
ATOM      5  C   UNL     1      46.065   1.711   8.007  0.00  0.00    +0.000 A 
ATOM      6  C   UNL     1      46.573   2.820   7.326  0.00  0.00    +0.000 A 
ATOM      7  C   UNL     1      46.230   4.103   7.764  0.00  0.00    +0.000 A 
ATOM      8  C   UNL     1      45.413   4.257   8.885  0.00  0.00    +0.000 A 
ATOM      9  F   UNL     1      45.101   5.500   9.286  0.00  0.00    +0.000 F 
BRANCH   6  10
ATOM     10  C   UNL     1      47.468   2.698   6.140  0.00  0.00    +0.000 C 
ATOM     11  N   UNL     1      48.766   2.314   6.335  0.00  0.00    +0.000 N 
ATOM     12  O   UNL     1      47.066   2.943   5.010  0.00  0.00    +0.000 OA
ATOM     13  H   UNL     1      49.190   2.100   7.223  0.00  0.00    +0.000 HD
ATOM     14  H   UNL     1      49.348   2.251   5.511  0.00  0.00    +0.000 HD
ENDBRANCH   6  10
ENDBRANCH   1   3
BRANCH   1  15
ATOM     15  C   UNL     1      44.698   3.349  12.042  0.00  0.00    +0.000 C 
BRANCH  15  17
ATOM     16  C   UNL     1      42.940   4.837  13.185  0.00  0.00    +0.000 C 
ATOM     17  C   UNL     1      44.348   4.640  12.718  0.00  0.00    +0.000 C 
BRANCH  17  18
ATOM     18  C   UNL     1      45.202   5.803  12.445  0.00  0.00    +0.000 A 
ATOM     19  C   UNL     1      44.648   7.042  12.109  0.00  0.00    +0.000 A 
ATOM     20  C   UNL     1      45.468   8.165  11.983  0.00  0.00    +0.000 A 
ATOM     21  C   UNL     1      46.841   8.058  12.211  0.00  0.00    +0.000 A 
ATOM     22  C   UNL     1      47.415   6.821  12.523  0.00  0.00    +0.000 A 
ATOM     23  C   UNL     1      46.585   5.698  12.623  0.00  0.00    +0.000 A 
BRANCH  22  24
ATOM     24  C   UNL     1      48.871   6.674  12.887  0.00  0.00    +0.000 C 
BRANCH  24  25
ATOM     25  O   UNL     1      49.528   7.928  12.979  0.00  0.00    +0.000 OA
ATOM     26  H   UNL     1      49.809   8.157  12.077  0.00  0.00    +0.000 HD
ENDBRANCH  24  25
ENDBRANCH  22  24
ENDBRANCH  17  18
ENDBRANCH  15  17
ENDBRANCH   1  15
TORSDOF 7
ENDMDL
MODEL 5
REMARK VINA RESULT:    -6.397      2.744      6.123
REMARK INTER + INTRA:          -9.726
REMARK INTER:                  -8.502
REMARK INTRA:                  -1.224
REMARK UNBOUND:                -0.898
REMARK  Name = 
REMARK  8 active torsions:
REMARK  status: ('A' for Active; 'I' for Inactive)
REMARK    1  A    between atoms: C_1  and  C_2
REMARK    2  A    between atoms: C_2  and  C_3
REMARK    3  A    between atoms: C_2  and  C_15
REMARK    4  A    between atoms: C_3  and  N_4
REMARK    5  A    between atoms: N_4  and  C_5
REMARK    6  A    between atoms: C_8  and  C_9
REMARK    7  A    between atoms: C_19  and  C_20
REMARK    8  A    between atoms: C_20  and  O_21
REMARK                            x       y       z     vdW  Elec       q    Type
REMARK                         _______ _______ _______ _____ _____    ______ ____
ROOT
ATOM      1  N   UNL     1      43.580   5.305  12.821  0.00  0.00    +0.000 N 
ATOM      2  H   UNL     1      43.647   4.456  13.387  0.00  0.00    +0.000 HD
ENDROOT
BRANCH   1   3
ATOM      3  C   UNL     1      44.828   5.958  12.811  0.00  0.00    +0.000 A 
ATOM      4  C   UNL     1      44.961   7.309  12.483  0.00  0.00    +0.000 A 
ATOM      5  C   UNL     1      46.208   7.946  12.520  0.00  0.00    +0.000 A 
ATOM      6  C   UNL     1      47.350   7.247  12.919  0.00  0.00    +0.000 A 
ATOM      7  C   UNL     1      47.225   5.909  13.307  0.00  0.00    +0.000 A 
ATOM      8  C   UNL     1      45.976   5.288  13.263  0.00  0.00    +0.000 A 
ATOM      9  F   UNL     1      45.885   4.002  13.639  0.00  0.00    +0.000 F 
BRANCH   6  10
ATOM     10  C   UNL     1      48.705   7.866  12.957  0.00  0.00    +0.000 C 
ATOM     11  N   UNL     1      48.829   9.190  12.637  0.00  0.00    +0.000 N 
ATOM     12  O   UNL     1      49.697   7.214  13.256  0.00  0.00    +0.000 OA
ATOM     13  H   UNL     1      48.077   9.805  12.371  0.00  0.00    +0.000 HD
ATOM     14  H   UNL     1      49.763   9.577  12.663  0.00  0.00    +0.000 HD
ENDBRANCH   6  10
ENDBRANCH   1   3
BRANCH   1  15
ATOM     15  C   UNL     1      42.956   5.051  11.527  0.00  0.00    +0.000 C 
BRANCH  15  17
ATOM     16  C   UNL     1      43.515   2.568  11.889  0.00  0.00    +0.000 C 
ATOM     17  C   UNL     1      43.512   3.766  10.992  0.00  0.00    +0.000 C 
BRANCH  17  18
ATOM     18  C   UNL     1      44.458   3.849   9.873  0.00  0.00    +0.000 A 
ATOM     19  C   UNL     1      45.003   5.075   9.478  0.00  0.00    +0.000 A 
ATOM     20  C   UNL     1      45.999   5.117   8.501  0.00  0.00    +0.000 A 
ATOM     21  C   UNL     1      46.467   3.933   7.928  0.00  0.00    +0.000 A 
ATOM     22  C   UNL     1      45.916   2.700   8.292  0.00  0.00    +0.000 A 
ATOM     23  C   UNL     1      44.901   2.674   9.257  0.00  0.00    +0.000 A 
BRANCH  22  24
ATOM     24  C   UNL     1      46.461   1.389   7.788  0.00  0.00    +0.000 C 
BRANCH  24  25
ATOM     25  O   UNL     1      45.804   0.276   8.373  0.00  0.00    +0.000 OA
ATOM     26  H   UNL     1      44.939   0.598   8.678  0.00  0.00    +0.000 HD
ENDBRANCH  24  25
ENDBRANCH  22  24
ENDBRANCH  17  18
ENDBRANCH  15  17
ENDBRANCH   1  15
TORSDOF 7
ENDMDL
MODEL 6
REMARK VINA RESULT:    -6.387      2.949      4.955
REMARK INTER + INTRA:          -9.712
REMARK INTER:                  -8.882
REMARK INTRA:                  -0.830
REMARK UNBOUND:                -0.898
REMARK  Name = 
REMARK  8 active torsions:
REMARK  status: ('A' for Active; 'I' for Inactive)
REMARK    1  A    between atoms: C_1  and  C_2
REMARK    2  A    between atoms: C_2  and  C_3
REMARK    3  A    between atoms: C_2  and  C_15
REMARK    4  A    between atoms: C_3  and  N_4
REMARK    5  A    between atoms: N_4  and  C_5
REMARK    6  A    between atoms: C_8  and  C_9
REMARK    7  A    between atoms: C_19  and  C_20
REMARK    8  A    between atoms: C_20  and  O_21
REMARK                            x       y       z     vdW  Elec       q    Type
REMARK                         _______ _______ _______ _____ _____    ______ ____
ROOT
ATOM      1  N   UNL     1      47.264   6.997  13.979  0.00  0.00    +0.000 N 
ATOM      2  H   UNL     1      47.118   8.002  13.865  0.00  0.00    +0.000 HD
ENDROOT
BRANCH   1   3
ATOM      3  C   UNL     1      46.475   6.302  13.040  0.00  0.00    +0.000 A 
ATOM      4  C   UNL     1      46.283   6.768  11.738  0.00  0.00    +0.000 A 
ATOM      5  C   UNL     1      45.526   6.039  10.810  0.00  0.00    +0.000 A 
ATOM      6  C   UNL     1      44.970   4.806  11.162  0.00  0.00    +0.000 A 
ATOM      7  C   UNL     1      45.203   4.298  12.444  0.00  0.00    +0.000 A 
ATOM      8  C   UNL     1      45.956   5.037  13.357  0.00  0.00    +0.000 A 
ATOM      9  F   UNL     1      46.162   4.527  14.582  0.00  0.00    +0.000 F 
BRANCH   6  10
ATOM     10  C   UNL     1      44.140   3.998  10.225  0.00  0.00    +0.000 C 
ATOM     11  N   UNL     1      44.082   4.372   8.911  0.00  0.00    +0.000 N 
ATOM     12  O   UNL     1      43.509   3.022  10.611  0.00  0.00    +0.000 OA
ATOM     13  H   UNL     1      44.556   5.161   8.502  0.00  0.00    +0.000 HD
ATOM     14  H   UNL     1      43.502   3.808   8.304  0.00  0.00    +0.000 HD
ENDBRANCH   6  10
ENDBRANCH   1   3
BRANCH   1  15
ATOM     15  C   UNL     1      48.681   6.652  14.035  0.00  0.00    +0.000 C 
BRANCH  15  17
ATOM     16  C   UNL     1      50.536   7.988  15.213  0.00  0.00    +0.000 C 
ATOM     17  C   UNL     1      49.246   7.235  15.295  0.00  0.00    +0.000 C 
BRANCH  17  18
ATOM     18  C   UNL     1      48.824   6.636  16.568  0.00  0.00    +0.000 A 
ATOM     19  C   UNL     1      48.478   7.435  17.662  0.00  0.00    +0.000 A 
ATOM     20  C   UNL     1      47.954   6.853  18.817  0.00  0.00    +0.000 A 
ATOM     21  C   UNL     1      47.755   5.472  18.876  0.00  0.00    +0.000 A 
ATOM     22  C   UNL     1      48.117   4.655  17.801  0.00  0.00    +0.000 A 
ATOM     23  C   UNL     1      48.664   5.249  16.657  0.00  0.00    +0.000 A 
BRANCH  22  24
ATOM     24  C   UNL     1      47.819   3.178  17.770  0.00  0.00    +0.000 C 
BRANCH  24  25
ATOM     25  O   UNL     1      46.440   2.914  17.566  0.00  0.00    +0.000 OA
ATOM     26  H   UNL     1      45.991   3.776  17.584  0.00  0.00    +0.000 HD
ENDBRANCH  24  25
ENDBRANCH  22  24
ENDBRANCH  17  18
ENDBRANCH  15  17
ENDBRANCH   1  15
TORSDOF 7
ENDMDL
MODEL 7
REMARK VINA RESULT:    -6.359      2.526      2.990
REMARK INTER + INTRA:          -9.673
REMARK INTER:                  -8.756
REMARK INTRA:                  -0.917
REMARK UNBOUND:                -0.898
REMARK  Name = 
REMARK  8 active torsions:
REMARK  status: ('A' for Active; 'I' for Inactive)
REMARK    1  A    between atoms: C_1  and  C_2
REMARK    2  A    between atoms: C_2  and  C_3
REMARK    3  A    between atoms: C_2  and  C_15
REMARK    4  A    between atoms: C_3  and  N_4
REMARK    5  A    between atoms: N_4  and  C_5
REMARK    6  A    between atoms: C_8  and  C_9
REMARK    7  A    between atoms: C_19  and  C_20
REMARK    8  A    between atoms: C_20  and  O_21
REMARK                            x       y       z     vdW  Elec       q    Type
REMARK                         _______ _______ _______ _____ _____    ______ ____
ROOT
ATOM      1  N   UNL     1      44.232   4.948  10.342  0.00  0.00    +0.000 N 
ATOM      2  H   UNL     1      44.080   5.820   9.830  0.00  0.00    +0.000 HD
ENDROOT
BRANCH   1   3
ATOM      3  C   UNL     1      44.969   4.058   9.535  0.00  0.00    +0.000 A 
ATOM      4  C   UNL     1      44.718   2.684   9.520  0.00  0.00    +0.000 A 
ATOM      5  C   UNL     1      45.437   1.824   8.678  0.00  0.00    +0.000 A 
ATOM      6  C   UNL     1      46.405   2.331   7.808  0.00  0.00    +0.000 A 
ATOM      7  C   UNL     1      46.628   3.711   7.768  0.00  0.00    +0.000 A 
ATOM      8  C   UNL     1      45.905   4.553   8.614  0.00  0.00    +0.000 A 
ATOM      9  F   UNL     1      46.140   5.875   8.558  0.00  0.00    +0.000 F 
BRANCH   6  10
ATOM     10  C   UNL     1      47.215   1.463   6.907  0.00  0.00    +0.000 C 
ATOM     11  N   UNL     1      48.247   2.026   6.207  0.00  0.00    +0.000 N 
ATOM     12  O   UNL     1      46.968   0.270   6.778  0.00  0.00    +0.000 OA
ATOM     13  H   UNL     1      48.521   2.994   6.239  0.00  0.00    +0.000 HD
ATOM     14  H   UNL     1      48.770   1.411   5.598  0.00  0.00    +0.000 HD
ENDBRANCH   6  10
ENDBRANCH   1   3
BRANCH   1  15
ATOM     15  C   UNL     1      44.732   5.185  11.692  0.00  0.00    +0.000 C 
BRANCH  15  17
ATOM     16  C   UNL     1      44.080   7.608  11.131  0.00  0.00    +0.000 C 
ATOM     17  C   UNL     1      44.993   6.654  11.834  0.00  0.00    +0.000 C 
BRANCH  17  18
ATOM     18  C   UNL     1      46.355   7.069  12.193  0.00  0.00    +0.000 A 
ATOM     19  C   UNL     1      47.408   6.958  11.279  0.00  0.00    +0.000 A 
ATOM     20  C   UNL     1      48.665   7.479  11.592  0.00  0.00    +0.000 A 
ATOM     21  C   UNL     1      48.869   8.130  12.810  0.00  0.00    +0.000 A 
ATOM     22  C   UNL     1      47.834   8.229  13.745  0.00  0.00    +0.000 A 
ATOM     23  C   UNL     1      46.585   7.681  13.429  0.00  0.00    +0.000 A 
BRANCH  22  24
ATOM     24  C   UNL     1      47.971   9.018  15.022  0.00  0.00    +0.000 C 
BRANCH  24  25
ATOM     25  O   UNL     1      48.419  10.344  14.786  0.00  0.00    +0.000 OA
ATOM     26  H   UNL     1      47.664  10.926  14.979  0.00  0.00    +0.000 HD
ENDBRANCH  24  25
ENDBRANCH  22  24
ENDBRANCH  17  18
ENDBRANCH  15  17
ENDBRANCH   1  15
TORSDOF 7
ENDMDL
MODEL 8
REMARK VINA RESULT:    -6.354      3.373      6.462
REMARK INTER + INTRA:          -9.666
REMARK INTER:                  -8.497
REMARK INTRA:                  -1.168
REMARK UNBOUND:                -0.898
REMARK  Name = 
REMARK  8 active torsions:
REMARK  status: ('A' for Active; 'I' for Inactive)
REMARK    1  A    between atoms: C_1  and  C_2
REMARK    2  A    between atoms: C_2  and  C_3
REMARK    3  A    between atoms: C_2  and  C_15
REMARK    4  A    between atoms: C_3  and  N_4
REMARK    5  A    between atoms: N_4  and  C_5
REMARK    6  A    between atoms: C_8  and  C_9
REMARK    7  A    between atoms: C_19  and  C_20
REMARK    8  A    between atoms: C_20  and  O_21
REMARK                            x       y       z     vdW  Elec       q    Type
REMARK                         _______ _______ _______ _____ _____    ______ ____
ROOT
ATOM      1  N   UNL     1      44.440   6.845  12.524  0.00  0.00    +0.000 N 
ATOM      2  H   UNL     1      44.411   6.172  13.293  0.00  0.00    +0.000 HD
ENDROOT
BRANCH   1   3
ATOM      3  C   UNL     1      45.759   7.314  12.365  0.00  0.00    +0.000 A 
ATOM      4  C   UNL     1      46.054   8.670  12.207  0.00  0.00    +0.000 A 
ATOM      5  C   UNL     1      47.377   9.117  12.091  0.00  0.00    +0.000 A 
ATOM      6  C   UNL     1      48.439   8.212  12.164  0.00  0.00    +0.000 A 
ATOM      7  C   UNL     1      48.164   6.858  12.382  0.00  0.00    +0.000 A 
ATOM      8  C   UNL     1      46.841   6.429  12.493  0.00  0.00    +0.000 A 
ATOM      9  F   UNL     1      46.605   5.123  12.698  0.00  0.00    +0.000 F 
BRANCH   6  10
ATOM     10  C   UNL     1      49.864   8.627  12.027  0.00  0.00    +0.000 C 
ATOM     11  N   UNL     1      50.842   7.711  12.304  0.00  0.00    +0.000 N 
ATOM     12  O   UNL     1      50.168   9.762  11.684  0.00  0.00    +0.000 OA
ATOM     13  H   UNL     1      50.693   6.760  12.599  0.00  0.00    +0.000 HD
ATOM     14  H   UNL     1      51.798   8.028  12.210  0.00  0.00    +0.000 HD
ENDBRANCH   6  10
ENDBRANCH   1   3
BRANCH   1  15
ATOM     15  C   UNL     1      43.769   6.340  11.330  0.00  0.00    +0.000 C 
BRANCH  15  17
ATOM     16  C   UNL     1      43.279   4.301  12.817  0.00  0.00    +0.000 C 
ATOM     17  C   UNL     1      43.632   4.854  11.473  0.00  0.00    +0.000 C 
BRANCH  17  18
ATOM     18  C   UNL     1      44.324   4.012  10.489  0.00  0.00    +0.000 A 
ATOM     19  C   UNL     1      44.002   2.658  10.345  0.00  0.00    +0.000 A 
ATOM     20  C   UNL     1      44.575   1.907   9.317  0.00  0.00    +0.000 A 
ATOM     21  C   UNL     1      45.455   2.511   8.417  0.00  0.00    +0.000 A 
ATOM     22  C   UNL     1      45.807   3.857   8.560  0.00  0.00    +0.000 A 
ATOM     23  C   UNL     1      45.244   4.593   9.611  0.00  0.00    +0.000 A 
BRANCH  22  24
ATOM     24  C   UNL     1      46.662   4.582   7.553  0.00  0.00    +0.000 C 
BRANCH  24  25
ATOM     25  O   UNL     1      46.647   3.946   6.284  0.00  0.00    +0.000 OA
ATOM     26  H   UNL     1      45.803   4.186   5.867  0.00  0.00    +0.000 HD
ENDBRANCH  24  25
ENDBRANCH  22  24
ENDBRANCH  17  18
ENDBRANCH  15  17
ENDBRANCH   1  15
TORSDOF 7
ENDMDL
MODEL 9
REMARK VINA RESULT:    -6.093      3.015      7.080
REMARK INTER + INTRA:          -9.305
REMARK INTER:                  -8.299
REMARK INTRA:                  -1.006
REMARK UNBOUND:                -0.898
REMARK  Name = 
REMARK  8 active torsions:
REMARK  status: ('A' for Active; 'I' for Inactive)
REMARK    1  A    between atoms: C_1  and  C_2
REMARK    2  A    between atoms: C_2  and  C_3
REMARK    3  A    between atoms: C_2  and  C_15
REMARK    4  A    between atoms: C_3  and  N_4
REMARK    5  A    between atoms: N_4  and  C_5
REMARK    6  A    between atoms: C_8  and  C_9
REMARK    7  A    between atoms: C_19  and  C_20
REMARK    8  A    between atoms: C_20  and  O_21
REMARK                            x       y       z     vdW  Elec       q    Type
REMARK                         _______ _______ _______ _____ _____    ______ ____
ROOT
ATOM      1  N   UNL     1      47.333   6.345  12.891  0.00  0.00    +0.000 N 
ATOM      2  H   UNL     1      48.187   6.460  12.341  0.00  0.00    +0.000 HD
ENDROOT
BRANCH   1   3
ATOM      3  C   UNL     1      47.664   5.831  14.161  0.00  0.00    +0.000 A 
ATOM      4  C   UNL     1      48.420   6.556  15.085  0.00  0.00    +0.000 A 
ATOM      5  C   UNL     1      48.702   6.040  16.357  0.00  0.00    +0.000 A 
ATOM      6  C   UNL     1      48.203   4.793  16.742  0.00  0.00    +0.000 A 
ATOM      7  C   UNL     1      47.396   4.080  15.850  0.00  0.00    +0.000 A 
ATOM      8  C   UNL     1      47.126   4.607  14.587  0.00  0.00    +0.000 A 
ATOM      9  F   UNL     1      46.350   3.900  13.748  0.00  0.00    +0.000 F 
BRANCH   6  10
ATOM     10  C   UNL     1      48.488   4.185  18.072  0.00  0.00    +0.000 C 
ATOM     11  N   UNL     1      47.791   3.069  18.445  0.00  0.00    +0.000 N 
ATOM     12  O   UNL     1      49.319   4.669  18.830  0.00  0.00    +0.000 OA
ATOM     13  H   UNL     1      47.085   2.604  17.897  0.00  0.00    +0.000 HD
ATOM     14  H   UNL     1      48.001   2.687  19.358  0.00  0.00    +0.000 HD
ENDBRANCH   6  10
ENDBRANCH   1   3
BRANCH   1  15
ATOM     15  C   UNL     1      46.495   7.539  12.859  0.00  0.00    +0.000 C 
BRANCH  15  17
ATOM     16  C   UNL     1      44.647   8.491  11.345  0.00  0.00    +0.000 C 
ATOM     17  C   UNL     1      45.402   7.306  11.860  0.00  0.00    +0.000 C 
BRANCH  17  18
ATOM     18  C   UNL     1      44.791   5.971  11.823  0.00  0.00    +0.000 A 
ATOM     19  C   UNL     1      43.850   5.581  12.781  0.00  0.00    +0.000 A 
ATOM     20  C   UNL     1      43.184   4.361  12.653  0.00  0.00    +0.000 A 
ATOM     21  C   UNL     1      43.440   3.536  11.556  0.00  0.00    +0.000 A 
ATOM     22  C   UNL     1      44.395   3.899  10.601  0.00  0.00    +0.000 A 
ATOM     23  C   UNL     1      45.074   5.115  10.754  0.00  0.00    +0.000 A 
BRANCH  22  24
ATOM     24  C   UNL     1      44.627   3.100   9.344  0.00  0.00    +0.000 C 
BRANCH  24  25
ATOM     25  O   UNL     1      44.458   1.708   9.557  0.00  0.00    +0.000 OA
ATOM     26  H   UNL     1      43.499   1.550   9.594  0.00  0.00    +0.000 HD
ENDBRANCH  24  25
ENDBRANCH  22  24
ENDBRANCH  17  18
ENDBRANCH  15  17
ENDBRANCH   1  15
TORSDOF 7
ENDMDL
