MODEL 1
REMARK VINA RESULT:    -8.351      0.000      0.000
REMARK INTER + INTRA:         -11.936
REMARK INTER:                 -11.281
REMARK INTRA:                  -0.655
REMARK UNBOUND:                -0.655
REMARK  Name = 
REMARK  7 active torsions:
REMARK  status: ('A' for Active; 'I' for Inactive)
REMARK    1  A    between atoms: C_1  and  C_2
REMARK    2  A    between atoms: C_7  and  C_8
REMARK    3  A    between atoms: C_12  and  C_13
REMARK    4  A    between atoms: C_13  and  C_14
REMARK    5  A    between atoms: C_14  and  N_15
REMARK    6  A    between atoms: N_15  and  C_16
REMARK    7  A    between atoms: C_19  and  C_20
REMARK                            x       y       z     vdW  Elec       q    Type
REMARK                         _______ _______ _______ _____ _____    ______ ____
ROOT
ATOM      1  C   UNL     1      43.224   5.199  12.505  0.00  0.00    +0.000 C 
ENDROOT
BRANCH   1   6
ATOM      2  C   UNL     1      46.488   6.944  12.713  0.00  0.00    +0.000 A 
ATOM      3  C   UNL     1      47.309   6.006  13.340  0.00  0.00    +0.000 A 
ATOM      4  C   UNL     1      46.798   4.751  13.662  0.00  0.00    +0.000 A 
ATOM      5  C   UNL     1      45.471   4.459  13.376  0.00  0.00    +0.000 A 
ATOM      6  C   UNL     1      44.692   5.437  12.771  0.00  0.00    +0.000 A 
ATOM      7  N   UNL     1      45.189   6.655  12.443  0.00  0.00    +0.000 NA
BRANCH   2  14
ATOM      8  C   UNL     1      49.386   7.475  11.830  0.00  0.00    +0.000 C 
ATOM      9  C   UNL     1      48.319   8.531  11.882  0.00  0.00    +0.000 A 
ATOM     10  C   UNL     1      48.667   9.837  11.526  0.00  0.00    +0.000 A 
ATOM     11  N   UNL     1      47.818  10.884  11.496  0.00  0.00    +0.000 NA
ATOM     12  C   UNL     1      46.549  10.628  11.853  0.00  0.00    +0.000 A 
ATOM     13  C   UNL     1      46.099   9.375  12.241  0.00  0.00    +0.000 A 
ATOM     14  C   UNL     1      46.982   8.276  12.269  0.00  0.00    +0.000 A 
ENDBRANCH   2  14
ENDBRANCH   1   6
BRANCH   1  15
ATOM     15  C   UNL     1      43.038   4.341  11.252  0.00  0.00    +0.000 C 
BRANCH  15  16
ATOM     16  N   UNL     1      43.781   4.883  10.102  0.00  0.00    +0.000 N 
ATOM     17  H   UNL     1      44.212   5.786  10.298  0.00  0.00    +0.000 HD
BRANCH  16  18
ATOM     18  C   UNL     1      44.662   4.017   9.432  0.00  0.00    +0.000 A 
ATOM     19  C   UNL     1      44.575   2.626   9.516  0.00  0.00    +0.000 A 
ATOM     20  C   UNL     1      45.432   1.809   8.780  0.00  0.00    +0.000 A 
ATOM     21  C   UNL     1      46.356   2.407   7.940  0.00  0.00    +0.000 A 
ATOM     22  N   UNL     1      46.464   3.754   7.780  0.00  0.00    +0.000 NA
ATOM     23  C   UNL     1      45.601   4.508   8.513  0.00  0.00    +0.000 A 
BRANCH  21  24
ATOM     24  C   UNL     1      47.288   1.544   7.145  0.00  0.00    +0.000 C 
ATOM     25  N   UNL     1      48.297   2.200   6.497  0.00  0.00    +0.000 N 
ATOM     26  O   UNL     1      47.162   0.326   7.075  0.00  0.00    +0.000 OA
ATOM     27  H   UNL     1      48.362   3.206   6.565  0.00  0.00    +0.000 HD
ATOM     28  H   UNL     1      48.945   1.673   5.929  0.00  0.00    +0.000 HD
ENDBRANCH  21  24
ENDBRANCH  16  18
ENDBRANCH  15  16
ENDBRANCH   1  15
TORSDOF 6
ENDMDL
MODEL 2
REMARK VINA RESULT:    -8.019      2.243      3.910
REMARK INTER + INTRA:         -11.487
REMARK INTER:                 -11.116
REMARK INTRA:                  -0.371
REMARK UNBOUND:                -0.655
REMARK  Name = 
REMARK  7 active torsions:
REMARK  status: ('A' for Active; 'I' for Inactive)
REMARK    1  A    between atoms: C_1  and  C_2
REMARK    2  A    between atoms: C_7  and  C_8
REMARK    3  A    between atoms: C_12  and  C_13
REMARK    4  A    between atoms: C_13  and  C_14
REMARK    5  A    between atoms: C_14  and  N_15
REMARK    6  A    between atoms: N_15  and  C_16
REMARK    7  A    between atoms: C_19  and  C_20
REMARK                            x       y       z     vdW  Elec       q    Type
REMARK                         _______ _______ _______ _____ _____    ______ ____
ROOT
ATOM      1  C   UNL     1      43.682   5.194  12.653  0.00  0.00    +0.000 C 
ENDROOT
BRANCH   1   6
ATOM      2  C   UNL     1      47.088   5.305  14.113  0.00  0.00    +0.000 A 
ATOM      3  C   UNL     1      47.800   6.076  13.194  0.00  0.00    +0.000 A 
ATOM      4  C   UNL     1      47.142   6.615  12.091  0.00  0.00    +0.000 A 
ATOM      5  C   UNL     1      45.790   6.358  11.909  0.00  0.00    +0.000 A 
ATOM      6  C   UNL     1      45.134   5.566  12.842  0.00  0.00    +0.000 A 
ATOM      7  N   UNL     1      45.766   5.051  13.925  0.00  0.00    +0.000 NA
BRANCH   2  14
ATOM      8  C   UNL     1      48.717   7.006  16.090  0.00  0.00    +0.000 C 
ATOM      9  C   UNL     1      48.470   5.533  16.257  0.00  0.00    +0.000 A 
ATOM     10  C   UNL     1      49.030   4.894  17.366  0.00  0.00    +0.000 A 
ATOM     11  N   UNL     1      48.875   3.588  17.666  0.00  0.00    +0.000 NA
ATOM     12  C   UNL     1      48.134   2.867  16.810  0.00  0.00    +0.000 A 
ATOM     13  C   UNL     1      47.547   3.395  15.670  0.00  0.00    +0.000 A 
ATOM     14  C   UNL     1      47.701   4.761  15.355  0.00  0.00    +0.000 A 
ENDBRANCH   2  14
ENDBRANCH   1   6
BRANCH   1  15
ATOM     15  C   UNL     1      43.549   4.041  11.654  0.00  0.00    +0.000 C 
BRANCH  15  16
ATOM     16  N   UNL     1      43.736   4.497  10.266  0.00  0.00    +0.000 N 
ATOM     17  H   UNL     1      43.850   5.507  10.192  0.00  0.00    +0.000 HD
BRANCH  16  18
ATOM     18  C   UNL     1      44.671   3.805   9.478  0.00  0.00    +0.000 A 
ATOM     19  C   UNL     1      44.794   2.413   9.486  0.00  0.00    +0.000 A 
ATOM     20  C   UNL     1      45.693   1.769   8.636  0.00  0.00    +0.000 A 
ATOM     21  C   UNL     1      46.442   2.538   7.761  0.00  0.00    +0.000 A 
ATOM     22  N   UNL     1      46.339   3.892   7.673  0.00  0.00    +0.000 NA
ATOM     23  C   UNL     1      45.443   4.473   8.517  0.00  0.00    +0.000 A 
BRANCH  21  24
ATOM     24  C   UNL     1      47.415   1.862   6.844  0.00  0.00    +0.000 C 
ATOM     25  N   UNL     1      48.454   2.636   6.406  0.00  0.00    +0.000 N 
ATOM     26  O   UNL     1      47.298   0.690   6.504  0.00  0.00    +0.000 OA
ATOM     27  H   UNL     1      48.512   3.603   6.695  0.00  0.00    +0.000 HD
ATOM     28  H   UNL     1      49.131   2.241   5.770  0.00  0.00    +0.000 HD
ENDBRANCH  21  24
ENDBRANCH  16  18
ENDBRANCH  15  16
ENDBRANCH   1  15
TORSDOF 6
ENDMDL
MODEL 3
REMARK VINA RESULT:    -7.857      1.336      2.088
REMARK INTER + INTRA:         -11.268
REMARK INTER:                 -10.750
REMARK INTRA:                  -0.517
REMARK UNBOUND:                -0.655
REMARK  Name = 
REMARK  7 active torsions:
REMARK  status: ('A' for Active; 'I' for Inactive)
REMARK    1  A    between atoms: C_1  and  C_2
REMARK    2  A    between atoms: C_7  and  C_8
REMARK    3  A    between atoms: C_12  and  C_13
REMARK    4  A    between atoms: C_13  and  C_14
REMARK    5  A    between atoms: C_14  and  N_15
REMARK    6  A    between atoms: N_15  and  C_16
REMARK    7  A    between atoms: C_19  and  C_20
REMARK                            x       y       z     vdW  Elec       q    Type
REMARK                         _______ _______ _______ _____ _____    ______ ____
ROOT
ATOM      1  C   UNL     1      45.002   4.412  11.958  0.00  0.00    +0.000 C 
ENDROOT
BRANCH   1   6
ATOM      2  C   UNL     1      47.686   6.728  13.041  0.00  0.00    +0.000 A 
ATOM      3  C   UNL     1      48.010   6.262  14.316  0.00  0.00    +0.000 A 
ATOM      4  C   UNL     1      47.370   5.132  14.818  0.00  0.00    +0.000 A 
ATOM      5  C   UNL     1      46.401   4.498  14.054  0.00  0.00    +0.000 A 
ATOM      6  C   UNL     1      46.100   5.017  12.801  0.00  0.00    +0.000 A 
ATOM      7  N   UNL     1      46.730   6.109  12.301  0.00  0.00    +0.000 NA
BRANCH   2  14
ATOM      8  C   UNL     1      46.334   9.436  12.495  0.00  0.00    +0.000 C 
ATOM      9  C   UNL     1      47.757   9.121  12.131  0.00  0.00    +0.000 A 
ATOM     10  C   UNL     1      48.506  10.111  11.489  0.00  0.00    +0.000 A 
ATOM     11  N   UNL     1      49.799   9.989  11.125  0.00  0.00    +0.000 NA
ATOM     12  C   UNL     1      50.384   8.812  11.400  0.00  0.00    +0.000 A 
ATOM     13  C   UNL     1      49.731   7.757  12.018  0.00  0.00    +0.000 A 
ATOM     14  C   UNL     1      48.380   7.881  12.404  0.00  0.00    +0.000 A 
ENDBRANCH   2  14
ENDBRANCH   1   6
BRANCH   1  15
ATOM     15  C   UNL     1      44.347   5.483  11.081  0.00  0.00    +0.000 C 
BRANCH  15  16
ATOM     16  N   UNL     1      43.805   4.914   9.836  0.00  0.00    +0.000 N 
ATOM     17  H   UNL     1      43.418   5.621   9.212  0.00  0.00    +0.000 HD
BRANCH  16  18
ATOM     18  C   UNL     1      44.603   3.986   9.146  0.00  0.00    +0.000 A 
ATOM     19  C   UNL     1      45.630   4.362   8.277  0.00  0.00    +0.000 A 
ATOM     20  C   UNL     1      46.438   3.403   7.666  0.00  0.00    +0.000 A 
ATOM     21  C   UNL     1      46.218   2.068   7.963  0.00  0.00    +0.000 A 
ATOM     22  N   UNL     1      45.264   1.639   8.833  0.00  0.00    +0.000 NA
ATOM     23  C   UNL     1      44.507   2.612   9.408  0.00  0.00    +0.000 A 
BRANCH  21  24
ATOM     24  C   UNL     1      47.074   1.025   7.312  0.00  0.00    +0.000 C 
ATOM     25  N   UNL     1      46.792  -0.270   7.650  0.00  0.00    +0.000 N 
ATOM     26  O   UNL     1      47.972   1.303   6.524  0.00  0.00    +0.000 OA
ATOM     27  H   UNL     1      46.055  -0.462   8.314  0.00  0.00    +0.000 HD
ATOM     28  H   UNL     1      47.349  -1.015   7.259  0.00  0.00    +0.000 HD
ENDBRANCH  21  24
ENDBRANCH  16  18
ENDBRANCH  15  16
ENDBRANCH   1  15
TORSDOF 6
ENDMDL
MODEL 4
REMARK VINA RESULT:    -7.672      1.586      2.327
REMARK INTER + INTRA:         -11.018
REMARK INTER:                 -10.437
REMARK INTRA:                  -0.582
REMARK UNBOUND:                -0.655
REMARK  Name = 
REMARK  7 active torsions:
REMARK  status: ('A' for Active; 'I' for Inactive)
REMARK    1  A    between atoms: C_1  and  C_2
REMARK    2  A    between atoms: C_7  and  C_8
REMARK    3  A    between atoms: C_12  and  C_13
REMARK    4  A    between atoms: C_13  and  C_14
REMARK    5  A    between atoms: C_14  and  N_15
REMARK    6  A    between atoms: N_15  and  C_16
REMARK    7  A    between atoms: C_19  and  C_20
REMARK                            x       y       z     vdW  Elec       q    Type
REMARK                         _______ _______ _______ _____ _____    ______ ____
ROOT
ATOM      1  C   UNL     1      45.368   3.846  12.451  0.00  0.00    +0.000 C 
ENDROOT
BRANCH   1   6
ATOM      2  C   UNL     1      47.140   7.101  12.523  0.00  0.00    +0.000 A 
ATOM      3  C   UNL     1      46.098   8.028  12.497  0.00  0.00    +0.000 A 
ATOM      4  C   UNL     1      44.779   7.582  12.506  0.00  0.00    +0.000 A 
ATOM      5  C   UNL     1      44.518   6.218  12.515  0.00  0.00    +0.000 A 
ATOM      6  C   UNL     1      45.592   5.338  12.517  0.00  0.00    +0.000 A 
ATOM      7  N   UNL     1      46.879   5.767  12.523  0.00  0.00    +0.000 NA
BRANCH   2  14
ATOM      8  C   UNL     1      48.701   7.368  15.159  0.00  0.00    +0.000 C 
ATOM      9  C   UNL     1      49.289   7.645  13.805  0.00  0.00    +0.000 A 
ATOM     10  C   UNL     1      50.619   8.069  13.740  0.00  0.00    +0.000 A 
ATOM     11  N   UNL     1      51.294   8.330  12.601  0.00  0.00    +0.000 NA
ATOM     12  C   UNL     1      50.607   8.176  11.458  0.00  0.00    +0.000 A 
ATOM     13  C   UNL     1      49.280   7.779  11.407  0.00  0.00    +0.000 A 
ATOM     14  C   UNL     1      48.572   7.500  12.594  0.00  0.00    +0.000 A 
ENDBRANCH   2  14
ENDBRANCH   1   6
BRANCH   1  15
ATOM     15  C   UNL     1      43.953   3.537  11.953  0.00  0.00    +0.000 C 
BRANCH  15  16
ATOM     16  N   UNL     1      43.759   3.967  10.559  0.00  0.00    +0.000 N 
ATOM     17  H   UNL     1      43.564   4.964  10.474  0.00  0.00    +0.000 HD
BRANCH  16  18
ATOM     18  C   UNL     1      44.702   3.536   9.610  0.00  0.00    +0.000 A 
ATOM     19  C   UNL     1      44.967   2.188   9.357  0.00  0.00    +0.000 A 
ATOM     20  C   UNL     1      45.864   1.810   8.358  0.00  0.00    +0.000 A 
ATOM     21  C   UNL     1      46.468   2.801   7.603  0.00  0.00    +0.000 A 
ATOM     22  N   UNL     1      46.221   4.129   7.770  0.00  0.00    +0.000 NA
ATOM     23  C   UNL     1      45.333   4.447   8.750  0.00  0.00    +0.000 A 
BRANCH  21  24
ATOM     24  C   UNL     1      47.438   2.412   6.530  0.00  0.00    +0.000 C 
ATOM     25  N   UNL     1      47.357   3.130   5.368  0.00  0.00    +0.000 N 
ATOM     26  O   UNL     1      48.257   1.511   6.673  0.00  0.00    +0.000 OA
ATOM     27  H   UNL     1      46.660   3.856   5.278  0.00  0.00    +0.000 HD
ATOM     28  H   UNL     1      47.972   2.899   4.601  0.00  0.00    +0.000 HD
ENDBRANCH  21  24
ENDBRANCH  16  18
ENDBRANCH  15  16
ENDBRANCH   1  15
TORSDOF 6
ENDMDL
MODEL 5
REMARK VINA RESULT:    -7.264      2.222      4.739
REMARK INTER + INTRA:         -10.468
REMARK INTER:                  -8.816
REMARK INTRA:                  -1.652
REMARK UNBOUND:                -0.655
REMARK  Name = 
REMARK  7 active torsions:
REMARK  status: ('A' for Active; 'I' for Inactive)
REMARK    1  A    between atoms: C_1  and  C_2
REMARK    2  A    between atoms: C_7  and  C_8
REMARK    3  A    between atoms: C_12  and  C_13
REMARK    4  A    between atoms: C_13  and  C_14
REMARK    5  A    between atoms: C_14  and  N_15
REMARK    6  A    between atoms: N_15  and  C_16
REMARK    7  A    between atoms: C_19  and  C_20
REMARK                            x       y       z     vdW  Elec       q    Type
REMARK                         _______ _______ _______ _____ _____    ______ ____
ROOT
ATOM      1  C   UNL     1      46.006   9.726  12.509  0.00  0.00    +0.000 C 
ENDROOT
BRANCH   1   6
ATOM      2  C   UNL     1      48.133   6.945  13.727  0.00  0.00    +0.000 A 
ATOM      3  C   UNL     1      49.213   6.964  12.844  0.00  0.00    +0.000 A 
ATOM      4  C   UNL     1      49.275   7.940  11.853  0.00  0.00    +0.000 A 
ATOM      5  C   UNL     1      48.248   8.868  11.741  0.00  0.00    +0.000 A 
ATOM      6  C   UNL     1      47.185   8.790  12.631  0.00  0.00    +0.000 A 
ATOM      7  N   UNL     1      47.127   7.851  13.608  0.00  0.00    +0.000 NA
BRANCH   2  14
ATOM      8  C   UNL     1      46.506   4.338  13.606  0.00  0.00    +0.000 C 
ATOM      9  C   UNL     1      47.271   4.793  14.817  0.00  0.00    +0.000 A 
ATOM     10  C   UNL     1      47.224   3.996  15.963  0.00  0.00    +0.000 A 
ATOM     11  N   UNL     1      47.876   4.257  17.115  0.00  0.00    +0.000 NA
ATOM     12  C   UNL     1      48.608   5.382  17.139  0.00  0.00    +0.000 A 
ATOM     13  C   UNL     1      48.710   6.254  16.067  0.00  0.00    +0.000 A 
ATOM     14  C   UNL     1      48.034   5.984  14.859  0.00  0.00    +0.000 A 
ENDBRANCH   2  14
ENDBRANCH   1   6
BRANCH   1  15
ATOM     15  C   UNL     1      44.869   9.059  11.730  0.00  0.00    +0.000 C 
BRANCH  15  16
ATOM     16  N   UNL     1      44.543   7.729  12.271  0.00  0.00    +0.000 N 
ATOM     17  H   UNL     1      43.692   7.726  12.833  0.00  0.00    +0.000 HD
BRANCH  16  18
ATOM     18  C   UNL     1      44.587   6.640  11.384  0.00  0.00    +0.000 A 
ATOM     19  C   UNL     1      45.725   6.302  10.648  0.00  0.00    +0.000 A 
ATOM     20  C   UNL     1      45.740   5.172   9.831  0.00  0.00    +0.000 A 
ATOM     21  C   UNL     1      44.609   4.374   9.785  0.00  0.00    +0.000 A 
ATOM     22  N   UNL     1      43.484   4.624  10.510  0.00  0.00    +0.000 NA
ATOM     23  C   UNL     1      43.522   5.732  11.298  0.00  0.00    +0.000 A 
BRANCH  21  24
ATOM     24  C   UNL     1      44.607   3.160   8.908  0.00  0.00    +0.000 C 
ATOM     25  N   UNL     1      44.596   1.957   9.561  0.00  0.00    +0.000 N 
ATOM     26  O   UNL     1      44.613   3.228   7.684  0.00  0.00    +0.000 OA
ATOM     27  H   UNL     1      44.606   1.938  10.571  0.00  0.00    +0.000 HD
ATOM     28  H   UNL     1      44.615   1.103   9.023  0.00  0.00    +0.000 HD
ENDBRANCH  21  24
ENDBRANCH  16  18
ENDBRANCH  15  16
ENDBRANCH   1  15
TORSDOF 6
ENDMDL
MODEL 6
REMARK VINA RESULT:    -7.242      2.048      2.877
REMARK INTER + INTRA:         -10.437
REMARK INTER:                  -9.814
REMARK INTRA:                  -0.623
REMARK UNBOUND:                -0.655
REMARK  Name = 
REMARK  7 active torsions:
REMARK  status: ('A' for Active; 'I' for Inactive)
REMARK    1  A    between atoms: C_1  and  C_2
REMARK    2  A    between atoms: C_7  and  C_8
REMARK    3  A    between atoms: C_12  and  C_13
REMARK    4  A    between atoms: C_13  and  C_14
REMARK    5  A    between atoms: C_14  and  N_15
REMARK    6  A    between atoms: N_15  and  C_16
REMARK    7  A    between atoms: C_19  and  C_20
REMARK                            x       y       z     vdW  Elec       q    Type
REMARK                         _______ _______ _______ _____ _____    ______ ____
ROOT
ATOM      1  C   UNL     1      45.306   5.352  11.712  0.00  0.00    +0.000 C 
ENDROOT
BRANCH   1   6
ATOM      2  C   UNL     1      47.423   7.997  13.217  0.00  0.00    +0.000 A 
ATOM      3  C   UNL     1      46.724   9.168  12.920  0.00  0.00    +0.000 A 
ATOM      4  C   UNL     1      45.504   9.091  12.252  0.00  0.00    +0.000 A 
ATOM      5  C   UNL     1      45.011   7.851  11.869  0.00  0.00    +0.000 A 
ATOM      6  C   UNL     1      45.758   6.719  12.170  0.00  0.00    +0.000 A 
ATOM      7  N   UNL     1      46.939   6.787  12.833  0.00  0.00    +0.000 NA
BRANCH   2  14
ATOM      8  C   UNL     1      50.211   8.028  11.920  0.00  0.00    +0.000 C 
ATOM      9  C   UNL     1      49.977   7.985  13.404  0.00  0.00    +0.000 A 
ATOM     10  C   UNL     1      51.092   7.935  14.244  0.00  0.00    +0.000 A 
ATOM     11  N   UNL     1      51.045   7.919  15.593  0.00  0.00    +0.000 NA
ATOM     12  C   UNL     1      49.820   7.939  16.142  0.00  0.00    +0.000 A 
ATOM     13  C   UNL     1      48.648   7.970  15.404  0.00  0.00    +0.000 A 
ATOM     14  C   UNL     1      48.692   7.992  13.995  0.00  0.00    +0.000 A 
ENDBRANCH   2  14
ENDBRANCH   1   6
BRANCH   1  15
ATOM     15  C   UNL     1      43.970   5.450  10.970  0.00  0.00    +0.000 C 
BRANCH  15  16
ATOM     16  N   UNL     1      43.603   4.173  10.336  0.00  0.00    +0.000 N 
ATOM     17  H   UNL     1      42.654   4.174   9.962  0.00  0.00    +0.000 HD
BRANCH  16  18
ATOM     18  C   UNL     1      44.520   3.610   9.432  0.00  0.00    +0.000 A 
ATOM     19  C   UNL     1      45.297   4.375   8.559  0.00  0.00    +0.000 A 
ATOM     20  C   UNL     1      46.242   3.774   7.728  0.00  0.00    +0.000 A 
ATOM     21  C   UNL     1      46.414   2.402   7.806  0.00  0.00    +0.000 A 
ATOM     22  N   UNL     1      45.721   1.606   8.665  0.00  0.00    +0.000 NA
ATOM     23  C   UNL     1      44.817   2.240   9.461  0.00  0.00    +0.000 A 
BRANCH  21  24
ATOM     24  C   UNL     1      47.422   1.740   6.917  0.00  0.00    +0.000 C 
ATOM     25  N   UNL     1      48.431   2.545   6.463  0.00  0.00    +0.000 N 
ATOM     26  O   UNL     1      47.356   0.555   6.611  0.00  0.00    +0.000 OA
ATOM     27  H   UNL     1      48.446   3.521   6.723  0.00  0.00    +0.000 HD
ATOM     28  H   UNL     1      49.129   2.160   5.843  0.00  0.00    +0.000 HD
ENDBRANCH  21  24
ENDBRANCH  16  18
ENDBRANCH  15  16
ENDBRANCH   1  15
TORSDOF 6
ENDMDL
MODEL 7
REMARK VINA RESULT:    -7.193      5.042      7.281
REMARK INTER + INTRA:         -10.371
REMARK INTER:                  -9.437
REMARK INTRA:                  -0.934
REMARK UNBOUND:                -0.655
REMARK  Name = 
REMARK  7 active torsions:
REMARK  status: ('A' for Active; 'I' for Inactive)
REMARK    1  A    between atoms: C_1  and  C_2
REMARK    2  A    between atoms: C_7  and  C_8
REMARK    3  A    between atoms: C_12  and  C_13
REMARK    4  A    between atoms: C_13  and  C_14
REMARK    5  A    between atoms: C_14  and  N_15
REMARK    6  A    between atoms: N_15  and  C_16
REMARK    7  A    between atoms: C_19  and  C_20
REMARK                            x       y       z     vdW  Elec       q    Type
REMARK                         _______ _______ _______ _____ _____    ______ ____
ROOT
ATOM      1  C   UNL     1      49.517   7.463  15.098  0.00  0.00    +0.000 C 
ENDROOT
BRANCH   1   6
ATOM      2  C   UNL     1      50.228   4.963  17.741  0.00  0.00    +0.000 A 
ATOM      3  C   UNL     1      49.568   5.484  18.855  0.00  0.00    +0.000 A 
ATOM      4  C   UNL     1      48.830   6.659  18.729  0.00  0.00    +0.000 A 
ATOM      5  C   UNL     1      48.781   7.309  17.504  0.00  0.00    +0.000 A 
ATOM      6  C   UNL     1      49.475   6.759  16.434  0.00  0.00    +0.000 A 
ATOM      7  N   UNL     1      50.183   5.608  16.546  0.00  0.00    +0.000 NA
BRANCH   2  14
ATOM      8  C   UNL     1      49.048   2.295  16.767  0.00  0.00    +0.000 C 
ATOM      9  C   UNL     1      50.426   2.440  17.349  0.00  0.00    +0.000 A 
ATOM     10  C   UNL     1      51.211   1.291  17.474  0.00  0.00    +0.000 A 
ATOM     11  N   UNL     1      52.472   1.263  17.950  0.00  0.00    +0.000 NA
ATOM     12  C   UNL     1      52.984   2.442  18.341  0.00  0.00    +0.000 A 
ATOM     13  C   UNL     1      52.288   3.639  18.278  0.00  0.00    +0.000 A 
ATOM     14  C   UNL     1      50.970   3.674  17.776  0.00  0.00    +0.000 A 
ENDBRANCH   2  14
ENDBRANCH   1   6
BRANCH   1  15
ATOM     15  C   UNL     1      48.302   7.077  14.249  0.00  0.00    +0.000 C 
BRANCH  15  16
ATOM     16  N   UNL     1      47.661   5.846  14.741  0.00  0.00    +0.000 N 
ATOM     17  H   UNL     1      47.279   5.946  15.680  0.00  0.00    +0.000 HD
BRANCH  16  18
ATOM     18  C   UNL     1      46.764   5.194  13.877  0.00  0.00    +0.000 A 
ATOM     19  C   UNL     1      45.928   5.875  12.989  0.00  0.00    +0.000 A 
ATOM     20  C   UNL     1      45.103   5.180  12.106  0.00  0.00    +0.000 A 
ATOM     21  C   UNL     1      45.150   3.796  12.108  0.00  0.00    +0.000 A 
ATOM     22  N   UNL     1      45.972   3.074  12.916  0.00  0.00    +0.000 NA
ATOM     23  C   UNL     1      46.763   3.797  13.755  0.00  0.00    +0.000 A 
BRANCH  21  24
ATOM     24  C   UNL     1      44.267   3.034  11.169  0.00  0.00    +0.000 C 
ATOM     25  N   UNL     1      44.900   2.426  10.120  0.00  0.00    +0.000 N 
ATOM     26  O   UNL     1      43.053   2.953  11.321  0.00  0.00    +0.000 OA
ATOM     27  H   UNL     1      45.901   2.526  10.017  0.00  0.00    +0.000 HD
ATOM     28  H   UNL     1      44.355   1.915   9.442  0.00  0.00    +0.000 HD
ENDBRANCH  21  24
ENDBRANCH  16  18
ENDBRANCH  15  16
ENDBRANCH   1  15
TORSDOF 6
ENDMDL
MODEL 8
REMARK VINA RESULT:    -7.089      3.095      4.642
REMARK INTER + INTRA:         -10.230
REMARK INTER:                  -9.836
REMARK INTRA:                  -0.395
REMARK UNBOUND:                -0.655
REMARK  Name = 
REMARK  7 active torsions:
REMARK  status: ('A' for Active; 'I' for Inactive)
REMARK    1  A    between atoms: C_1  and  C_2
REMARK    2  A    between atoms: C_7  and  C_8
REMARK    3  A    between atoms: C_12  and  C_13
REMARK    4  A    between atoms: C_13  and  C_14
REMARK    5  A    between atoms: C_14  and  N_15
REMARK    6  A    between atoms: N_15  and  C_16
REMARK    7  A    between atoms: C_19  and  C_20
REMARK                            x       y       z     vdW  Elec       q    Type
REMARK                         _______ _______ _______ _____ _____    ______ ____
ROOT
ATOM      1  C   UNL     1      46.008   4.371  12.728  0.00  0.00    +0.000 C 
ENDROOT
BRANCH   1   6
ATOM      2  C   UNL     1      48.114   5.553  15.540  0.00  0.00    +0.000 A 
ATOM      3  C   UNL     1      48.785   6.648  14.994  0.00  0.00    +0.000 A 
ATOM      4  C   UNL     1      48.509   7.042  13.687  0.00  0.00    +0.000 A 
ATOM      5  C   UNL     1      47.587   6.325  12.937  0.00  0.00    +0.000 A 
ATOM      6  C   UNL     1      46.964   5.230  13.521  0.00  0.00    +0.000 A 
ATOM      7  N   UNL     1      47.218   4.851  14.799  0.00  0.00    +0.000 NA
BRANCH   2  14
ATOM      8  C   UNL     1      48.620   2.636  16.370  0.00  0.00    +0.000 C 
ATOM      9  C   UNL     1      48.508   3.776  17.342  0.00  0.00    +0.000 A 
ATOM     10  C   UNL     1      48.621   3.492  18.705  0.00  0.00    +0.000 A 
ATOM     11  N   UNL     1      48.569   4.409  19.694  0.00  0.00    +0.000 NA
ATOM     12  C   UNL     1      48.380   5.682  19.312  0.00  0.00    +0.000 A 
ATOM     13  C   UNL     1      48.238   6.073  17.990  0.00  0.00    +0.000 A 
ATOM     14  C   UNL     1      48.296   5.120  16.952  0.00  0.00    +0.000 A 
ENDBRANCH   2  14
ENDBRANCH   1   6
BRANCH   1  15
ATOM     15  C   UNL     1      44.923   5.234  12.078  0.00  0.00    +0.000 C 
BRANCH  15  16
ATOM     16  N   UNL     1      44.146   4.478  11.082  0.00  0.00    +0.000 N 
ATOM     17  H   UNL     1      43.321   4.981  10.758  0.00  0.00    +0.000 HD
BRANCH  16  18
ATOM     18  C   UNL     1      44.853   3.891  10.019  0.00  0.00    +0.000 A 
ATOM     19  C   UNL     1      44.899   2.511   9.803  0.00  0.00    +0.000 A 
ATOM     20  C   UNL     1      45.560   1.982   8.695  0.00  0.00    +0.000 A 
ATOM     21  C   UNL     1      46.148   2.856   7.796  0.00  0.00    +0.000 A 
ATOM     22  N   UNL     1      46.102   4.209   7.925  0.00  0.00    +0.000 NA
ATOM     23  C   UNL     1      45.440   4.678   9.017  0.00  0.00    +0.000 A 
BRANCH  21  24
ATOM     24  C   UNL     1      46.865   2.302   6.603  0.00  0.00    +0.000 C 
ATOM     25  N   UNL     1      47.093   3.187   5.585  0.00  0.00    +0.000 N 
ATOM     26  O   UNL     1      47.230   1.134   6.534  0.00  0.00    +0.000 OA
ATOM     27  H   UNL     1      46.766   4.139   5.669  0.00  0.00    +0.000 HD
ATOM     28  H   UNL     1      47.555   2.867   4.746  0.00  0.00    +0.000 HD
ENDBRANCH  21  24
ENDBRANCH  16  18
ENDBRANCH  15  16
ENDBRANCH   1  15
TORSDOF 6
ENDMDL
MODEL 9
REMARK VINA RESULT:    -6.851      4.400      6.845
REMARK INTER + INTRA:          -9.910
REMARK INTER:                  -8.790
REMARK INTRA:                  -1.119
REMARK UNBOUND:                -0.655
REMARK  Name = 
REMARK  7 active torsions:
REMARK  status: ('A' for Active; 'I' for Inactive)
REMARK    1  A    between atoms: C_1  and  C_2
REMARK    2  A    between atoms: C_7  and  C_8
REMARK    3  A    between atoms: C_12  and  C_13
REMARK    4  A    between atoms: C_13  and  C_14
REMARK    5  A    between atoms: C_14  and  N_15
REMARK    6  A    between atoms: N_15  and  C_16
REMARK    7  A    between atoms: C_19  and  C_20
REMARK                            x       y       z     vdW  Elec       q    Type
REMARK                         _______ _______ _______ _____ _____    ______ ____
ROOT
ATOM      1  C   UNL     1      49.207   8.184  14.853  0.00  0.00    +0.000 C 
ENDROOT
BRANCH   1   6
ATOM      2  C   UNL     1      49.571   5.495  17.379  0.00  0.00    +0.000 A 
ATOM      3  C   UNL     1      49.052   6.076  18.536  0.00  0.00    +0.000 A 
ATOM      4  C   UNL     1      48.523   7.364  18.482  0.00  0.00    +0.000 A 
ATOM      5  C   UNL     1      48.543   8.061  17.282  0.00  0.00    +0.000 A 
ATOM      6  C   UNL     1      49.092   7.445  16.165  0.00  0.00    +0.000 A 
ATOM      7  N   UNL     1      49.594   6.185  16.209  0.00  0.00    +0.000 NA
BRANCH   2  14
ATOM      8  C   UNL     1      47.858   3.085  16.534  0.00  0.00    +0.000 C 
ATOM      9  C   UNL     1      49.292   2.982  16.971  0.00  0.00    +0.000 A 
ATOM     10  C   UNL     1      49.876   1.714  17.016  0.00  0.00    +0.000 A 
ATOM     11  N   UNL     1      51.156   1.463  17.360  0.00  0.00    +0.000 NA
ATOM     12  C   UNL     1      51.899   2.530  17.695  0.00  0.00    +0.000 A 
ATOM     13  C   UNL     1      51.417   3.829  17.703  0.00  0.00    +0.000 A 
ATOM     14  C   UNL     1      50.081   4.097  17.338  0.00  0.00    +0.000 A 
ENDBRANCH   2  14
ENDBRANCH   1   6
BRANCH   1  15
ATOM     15  C   UNL     1      48.546   7.384  13.727  0.00  0.00    +0.000 C 
BRANCH  15  16
ATOM     16  N   UNL     1      47.484   6.500  14.235  0.00  0.00    +0.000 N 
ATOM     17  H   UNL     1      46.993   6.890  15.039  0.00  0.00    +0.000 HD
BRANCH  16  18
ATOM     18  C   UNL     1      46.596   5.948  13.296  0.00  0.00    +0.000 A 
ATOM     19  C   UNL     1      46.472   6.428  11.990  0.00  0.00    +0.000 A 
ATOM     20  C   UNL     1      45.624   5.804  11.075  0.00  0.00    +0.000 A 
ATOM     21  C   UNL     1      44.926   4.679  11.482  0.00  0.00    +0.000 A 
ATOM     22  N   UNL     1      45.034   4.137  12.725  0.00  0.00    +0.000 NA
ATOM     23  C   UNL     1      45.879   4.776  13.578  0.00  0.00    +0.000 A 
BRANCH  21  24
ATOM     24  C   UNL     1      44.007   4.000  10.513  0.00  0.00    +0.000 C 
ATOM     25  N   UNL     1      43.974   4.534   9.254  0.00  0.00    +0.000 N 
ATOM     26  O   UNL     1      43.325   3.028  10.818  0.00  0.00    +0.000 OA
ATOM     27  H   UNL     1      44.538   5.345   9.041  0.00  0.00    +0.000 HD
ATOM     28  H   UNL     1      43.358   4.131   8.563  0.00  0.00    +0.000 HD
ENDBRANCH  21  24
ENDBRANCH  16  18
ENDBRANCH  15  16
ENDBRANCH   1  15
TORSDOF 6
ENDMDL
