MODEL 1
REMARK VINA RESULT:    -8.843      0.000      0.000
REMARK INTER + INTRA:         -10.784
REMARK INTER:                 -10.911
REMARK INTRA:                   0.127
REMARK UNBOUND:                 0.127
REMARK  Name = 
REMARK  6 active torsions:
REMARK  status: ('A' for Active; 'I' for Inactive)
REMARK    1  A    between atoms: C_1  and  C_2
REMARK    2  A    between atoms: C_9  and  C_10
REMARK    3  A    between atoms: C_10  and  N_11
REMARK    4  A    between atoms: N_11  and  C_12
REMARK    5  A    between atoms: C_15  and  C_16
REMARK    6  A    between atoms: C_25  and  C_26
REMARK                            x       y       z     vdW  Elec       q    Type
REMARK                         _______ _______ _______ _____ _____    ______ ____
ROOT
ATOM      1  C   UNL     1      43.964   4.913  11.537  0.00  0.00    +0.000 C 
ATOM      2  C   UNL     1      42.616   5.113  12.196  0.00  0.00    +0.000 C 
ATOM      3  C   UNL     1      42.999   3.742  11.754  0.00  0.00    +0.000 C 
ENDROOT
BRANCH   1  12
ATOM      4  C   UNL     1      49.331   7.441  11.446  0.00  0.00    +0.000 C 
ATOM      5  C   UNL     1      49.147   8.414  12.609  0.00  0.00    +0.000 C 
ATOM      6  C   UNL     1      48.617   7.761  13.907  0.00  0.00    +0.000 C 
ATOM      7  N   UNL     1      47.181   7.492  13.833  0.00  0.00    +0.000 N 
ATOM      8  C   UNL     1      46.787   6.222  13.474  0.00  0.00    +0.000 A 
ATOM      9  N   UNL     1      47.556   5.160  13.755  0.00  0.00    +0.000 NA
ATOM     10  C   UNL     1      47.096   3.947  13.395  0.00  0.00    +0.000 A 
ATOM     11  C   UNL     1      45.915   3.753  12.722  0.00  0.00    +0.000 A 
ATOM     12  C   UNL     1      45.205   4.892  12.423  0.00  0.00    +0.000 A 
ATOM     13  N   UNL     1      45.619   6.102  12.844  0.00  0.00    +0.000 NA
ATOM     14  C   UNL     1      46.373   8.623  13.348  0.00  0.00    +0.000 C 
ATOM     15  C   UNL     1      46.956   9.220  12.051  0.00  0.00    +0.000 C 
ATOM     16  C   UNL     1      46.231  10.512  11.684  0.00  0.00    +0.000 C 
ATOM     17  O   UNL     1      48.350   9.546  12.209  0.00  0.00    +0.000 OA
ENDBRANCH   1  12
BRANCH   1  18
ATOM     18  N   UNL     1      44.253   5.144  10.105  0.00  0.00    +0.000 N 
ATOM     19  H   UNL     1      43.447   5.486   9.579  0.00  0.00    +0.000 HD
BRANCH  18  20
ATOM     20  C   UNL     1      45.093   4.331   9.331  0.00  0.00    +0.000 A 
ATOM     21  C   UNL     1      44.934   2.940   9.387  0.00  0.00    +0.000 A 
ATOM     22  C   UNL     1      45.677   2.111   8.548  0.00  0.00    +0.000 A 
ATOM     23  C   UNL     1      46.557   2.706   7.658  0.00  0.00    +0.000 A 
ATOM     24  N   UNL     1      46.734   4.054   7.553  0.00  0.00    +0.000 NA
ATOM     25  C   UNL     1      45.988   4.818   8.382  0.00  0.00    +0.000 A 
BRANCH  23  26
ATOM     26  C   UNL     1      47.379   1.873   6.725  0.00  0.00    +0.000 C 
ATOM     27  N   UNL     1      48.380   2.557   6.092  0.00  0.00    +0.000 N 
ATOM     28  O   UNL     1      47.184   0.676   6.540  0.00  0.00    +0.000 OA
ATOM     29  H   UNL     1      48.501   3.549   6.282  0.00  0.00    +0.000 HD
ATOM     30  H   UNL     1      48.994   2.082   5.444  0.00  0.00    +0.000 HD
ENDBRANCH  23  26
ENDBRANCH  18  20
ENDBRANCH   1  18
TORSDOF 4
ENDMDL
MODEL 2
REMARK VINA RESULT:    -7.757      3.755      6.123
REMARK INTER + INTRA:          -9.444
REMARK INTER:                  -8.937
REMARK INTRA:                  -0.507
REMARK UNBOUND:                 0.127
REMARK  Name = 
REMARK  6 active torsions:
REMARK  status: ('A' for Active; 'I' for Inactive)
REMARK    1  A    between atoms: C_1  and  C_2
REMARK    2  A    between atoms: C_9  and  C_10
REMARK    3  A    between atoms: C_10  and  N_11
REMARK    4  A    between atoms: N_11  and  C_12
REMARK    5  A    between atoms: C_15  and  C_16
REMARK    6  A    between atoms: C_25  and  C_26
REMARK                            x       y       z     vdW  Elec       q    Type
REMARK                         _______ _______ _______ _____ _____    ______ ____
ROOT
ATOM      1  C   UNL     1      47.949   7.426  13.541  0.00  0.00    +0.000 C 
ATOM      2  C   UNL     1      48.945   6.671  12.686  0.00  0.00    +0.000 C 
ATOM      3  C   UNL     1      48.655   8.095  12.357  0.00  0.00    +0.000 C 
ENDROOT
BRANCH   1  12
ATOM      4  C   UNL     1      46.976   5.841  19.176  0.00  0.00    +0.000 C 
ATOM      5  C   UNL     1      48.356   5.269  19.496  0.00  0.00    +0.000 C 
ATOM      6  C   UNL     1      49.531   6.211  19.145  0.00  0.00    +0.000 C 
ATOM      7  N   UNL     1      49.808   6.222  17.708  0.00  0.00    +0.000 N 
ATOM      8  C   UNL     1      49.257   7.239  16.959  0.00  0.00    +0.000 A 
ATOM      9  N   UNL     1      49.013   8.438  17.506  0.00  0.00    +0.000 NA
ATOM     10  C   UNL     1      48.495   9.391  16.708  0.00  0.00    +0.000 A 
ATOM     11  C   UNL     1      48.167   9.181  15.391  0.00  0.00    +0.000 A 
ATOM     12  C   UNL     1      48.399   7.912  14.914  0.00  0.00    +0.000 A 
ATOM     13  N   UNL     1      48.985   6.976  15.682  0.00  0.00    +0.000 NA
ATOM     14  C   UNL     1      49.895   4.887  17.094  0.00  0.00    +0.000 C 
ATOM     15  C   UNL     1      48.691   4.006  17.482  0.00  0.00    +0.000 C 
ATOM     16  C   UNL     1      48.904   2.571  17.010  0.00  0.00    +0.000 C 
ATOM     17  O   UNL     1      48.518   3.962  18.911  0.00  0.00    +0.000 OA
ENDBRANCH   1  12
BRANCH   1  18
ATOM     18  N   UNL     1      46.480   7.386  13.370  0.00  0.00    +0.000 N 
ATOM     19  H   UNL     1      45.973   7.858  14.120  0.00  0.00    +0.000 HD
BRANCH  18  20
ATOM     20  C   UNL     1      45.778   6.288  12.855  0.00  0.00    +0.000 A 
ATOM     21  C   UNL     1      45.369   6.308  11.514  0.00  0.00    +0.000 A 
ATOM     22  C   UNL     1      44.767   5.189  10.943  0.00  0.00    +0.000 A 
ATOM     23  C   UNL     1      44.601   4.064  11.735  0.00  0.00    +0.000 A 
ATOM     24  N   UNL     1      44.997   3.988  13.037  0.00  0.00    +0.000 NA
ATOM     25  C   UNL     1      45.582   5.096  13.547  0.00  0.00    +0.000 A 
BRANCH  23  26
ATOM     26  C   UNL     1      43.968   2.826  11.180  0.00  0.00    +0.000 C 
ATOM     27  N   UNL     1      44.578   2.335  10.059  0.00  0.00    +0.000 N 
ATOM     28  O   UNL     1      42.988   2.286  11.684  0.00  0.00    +0.000 OA
ATOM     29  H   UNL     1      45.389   2.820   9.682  0.00  0.00    +0.000 HD
ATOM     30  H   UNL     1      44.228   1.500   9.609  0.00  0.00    +0.000 HD
ENDBRANCH  23  26
ENDBRANCH  18  20
ENDBRANCH   1  18
TORSDOF 4
ENDMDL
MODEL 3
REMARK VINA RESULT:    -6.930      3.637      5.872
REMARK INTER + INTRA:          -8.423
REMARK INTER:                  -8.056
REMARK INTRA:                  -0.367
REMARK UNBOUND:                 0.127
REMARK  Name = 
REMARK  6 active torsions:
REMARK  status: ('A' for Active; 'I' for Inactive)
REMARK    1  A    between atoms: C_1  and  C_2
REMARK    2  A    between atoms: C_9  and  C_10
REMARK    3  A    between atoms: C_10  and  N_11
REMARK    4  A    between atoms: N_11  and  C_12
REMARK    5  A    between atoms: C_15  and  C_16
REMARK    6  A    between atoms: C_25  and  C_26
REMARK                            x       y       z     vdW  Elec       q    Type
REMARK                         _______ _______ _______ _____ _____    ______ ____
ROOT
ATOM      1  C   UNL     1      48.180   7.885  13.342  0.00  0.00    +0.000 C 
ATOM      2  C   UNL     1      48.243   8.573  11.995  0.00  0.00    +0.000 C 
ATOM      3  C   UNL     1      47.825   9.368  13.184  0.00  0.00    +0.000 C 
ENDROOT
BRANCH   1  12
ATOM      4  C   UNL     1      50.144   8.385  18.920  0.00  0.00    +0.000 C 
ATOM      5  C   UNL     1      50.242   6.899  19.263  0.00  0.00    +0.000 C 
ATOM      6  C   UNL     1      51.032   6.060  18.232  0.00  0.00    +0.000 C 
ATOM      7  N   UNL     1      50.241   5.786  17.033  0.00  0.00    +0.000 N 
ATOM      8  C   UNL     1      50.424   6.611  15.945  0.00  0.00    +0.000 A 
ATOM      9  N   UNL     1      51.604   7.211  15.730  0.00  0.00    +0.000 NA
ATOM     10  C   UNL     1      51.718   7.984  14.634  0.00  0.00    +0.000 A 
ATOM     11  C   UNL     1      50.683   8.222  13.763  0.00  0.00    +0.000 A 
ATOM     12  C   UNL     1      49.489   7.615  14.076  0.00  0.00    +0.000 A 
ATOM     13  N   UNL     1      49.386   6.781  15.127  0.00  0.00    +0.000 NA
ATOM     14  C   UNL     1      48.879   5.295  17.299  0.00  0.00    +0.000 C 
ATOM     15  C   UNL     1      48.150   6.182  18.329  0.00  0.00    +0.000 C 
ATOM     16  C   UNL     1      46.829   5.542  18.745  0.00  0.00    +0.000 C 
ATOM     17  O   UNL     1      48.937   6.346  19.524  0.00  0.00    +0.000 OA
ENDBRANCH   1  12
BRANCH   1  18
ATOM     18  N   UNL     1      47.039   7.083  13.835  0.00  0.00    +0.000 N 
ATOM     19  H   UNL     1      47.101   6.860  14.830  0.00  0.00    +0.000 HD
BRANCH  18  20
ATOM     20  C   UNL     1      46.413   6.070  13.096  0.00  0.00    +0.000 A 
ATOM     21  C   UNL     1      46.509   4.744  13.541  0.00  0.00    +0.000 A 
ATOM     22  C   UNL     1      45.808   3.729  12.892  0.00  0.00    +0.000 A 
ATOM     23  C   UNL     1      45.011   4.077  11.812  0.00  0.00    +0.000 A 
ATOM     24  N   UNL     1      44.871   5.353  11.353  0.00  0.00    +0.000 NA
ATOM     25  C   UNL     1      45.565   6.304  12.017  0.00  0.00    +0.000 A 
BRANCH  23  26
ATOM     26  C   UNL     1      44.227   3.036  11.075  0.00  0.00    +0.000 C 
ATOM     27  N   UNL     1      44.916   2.419  10.068  0.00  0.00    +0.000 N 
ATOM     28  O   UNL     1      43.066   2.750  11.347  0.00  0.00    +0.000 OA
ATOM     29  H   UNL     1      45.879   2.693   9.885  0.00  0.00    +0.000 HD
ATOM     30  H   UNL     1      44.475   1.698   9.513  0.00  0.00    +0.000 HD
ENDBRANCH  23  26
ENDBRANCH  18  20
ENDBRANCH   1  18
TORSDOF 4
ENDMDL
MODEL 4
REMARK VINA RESULT:    -6.503      3.676      5.173
REMARK INTER + INTRA:          -7.897
REMARK INTER:                  -7.899
REMARK INTRA:                   0.002
REMARK UNBOUND:                 0.127
REMARK  Name = 
REMARK  6 active torsions:
REMARK  status: ('A' for Active; 'I' for Inactive)
REMARK    1  A    between atoms: C_1  and  C_2
REMARK    2  A    between atoms: C_9  and  C_10
REMARK    3  A    between atoms: C_10  and  N_11
REMARK    4  A    between atoms: N_11  and  C_12
REMARK    5  A    between atoms: C_15  and  C_16
REMARK    6  A    between atoms: C_25  and  C_26
REMARK                            x       y       z     vdW  Elec       q    Type
REMARK                         _______ _______ _______ _____ _____    ______ ____
ROOT
ATOM      1  C   UNL     1      47.455   6.002  14.049  0.00  0.00    +0.000 C 
ATOM      2  C   UNL     1      48.658   6.392  13.216  0.00  0.00    +0.000 C 
ATOM      3  C   UNL     1      48.025   7.424  14.084  0.00  0.00    +0.000 C 
ENDROOT
BRANCH   1  12
ATOM      4  C   UNL     1      52.104   4.673  17.489  0.00  0.00    +0.000 C 
ATOM      5  C   UNL     1      51.732   5.508  18.713  0.00  0.00    +0.000 C 
ATOM      6  C   UNL     1      50.292   5.275  19.227  0.00  0.00    +0.000 C 
ATOM      7  N   UNL     1      49.300   5.954  18.393  0.00  0.00    +0.000 N 
ATOM      8  C   UNL     1      48.673   5.214  17.415  0.00  0.00    +0.000 A 
ATOM      9  N   UNL     1      48.488   3.894  17.566  0.00  0.00    +0.000 NA
ATOM     10  C   UNL     1      47.847   3.239  16.580  0.00  0.00    +0.000 A 
ATOM     11  C   UNL     1      47.420   3.842  15.423  0.00  0.00    +0.000 A 
ATOM     12  C   UNL     1      47.689   5.187  15.316  0.00  0.00    +0.000 A 
ATOM     13  N   UNL     1      48.262   5.864  16.328  0.00  0.00    +0.000 NA
ATOM     14  C   UNL     1      49.617   7.360  18.091  0.00  0.00    +0.000 C 
ATOM     15  C   UNL     1      51.063   7.516  17.580  0.00  0.00    +0.000 C 
ATOM     16  C   UNL     1      51.436   8.992  17.474  0.00  0.00    +0.000 C 
ATOM     17  O   UNL     1      52.004   6.905  18.483  0.00  0.00    +0.000 OA
ENDBRANCH   1  12
BRANCH   1  18
ATOM     18  N   UNL     1      46.059   5.968  13.563  0.00  0.00    +0.000 N 
ATOM     19  H   UNL     1      45.369   5.947  14.316  0.00  0.00    +0.000 HD
BRANCH  18  20
ATOM     20  C   UNL     1      45.638   5.260  12.429  0.00  0.00    +0.000 A 
ATOM     21  C   UNL     1      45.694   5.885  11.176  0.00  0.00    +0.000 A 
ATOM     22  C   UNL     1      45.387   5.172  10.018  0.00  0.00    +0.000 A 
ATOM     23  C   UNL     1      45.042   3.836  10.148  0.00  0.00    +0.000 A 
ATOM     24  N   UNL     1      44.991   3.179  11.342  0.00  0.00    +0.000 NA
ATOM     25  C   UNL     1      45.302   3.909  12.437  0.00  0.00    +0.000 A 
BRANCH  23  26
ATOM     26  C   UNL     1      44.709   3.013   8.943  0.00  0.00    +0.000 C 
ATOM     27  N   UNL     1      44.587   1.674   9.192  0.00  0.00    +0.000 N 
ATOM     28  O   UNL     1      44.550   3.489   7.824  0.00  0.00    +0.000 OA
ATOM     29  H   UNL     1      44.727   1.329  10.139  0.00  0.00    +0.000 HD
ATOM     30  H   UNL     1      44.360   1.032   8.444  0.00  0.00    +0.000 HD
ENDBRANCH  23  26
ENDBRANCH  18  20
ENDBRANCH   1  18
TORSDOF 4
ENDMDL
MODEL 5
REMARK VINA RESULT:    -6.319      4.918      7.786
REMARK INTER + INTRA:          -7.670
REMARK INTER:                  -7.362
REMARK INTRA:                  -0.308
REMARK UNBOUND:                 0.127
REMARK  Name = 
REMARK  6 active torsions:
REMARK  status: ('A' for Active; 'I' for Inactive)
REMARK    1  A    between atoms: C_1  and  C_2
REMARK    2  A    between atoms: C_9  and  C_10
REMARK    3  A    between atoms: C_10  and  N_11
REMARK    4  A    between atoms: N_11  and  C_12
REMARK    5  A    between atoms: C_15  and  C_16
REMARK    6  A    between atoms: C_25  and  C_26
REMARK                            x       y       z     vdW  Elec       q    Type
REMARK                         _______ _______ _______ _____ _____    ______ ____
ROOT
ATOM      1  C   UNL     1      48.689   5.560  17.562  0.00  0.00    +0.000 C 
ATOM      2  C   UNL     1      47.656   5.509  18.668  0.00  0.00    +0.000 C 
ATOM      3  C   UNL     1      48.113   6.840  18.178  0.00  0.00    +0.000 C 
ENDROOT
BRANCH   1  12
ATOM      4  C   UNL     1      46.191   8.664  13.164  0.00  0.00    +0.000 C 
ATOM      5  C   UNL     1      47.390   8.731  12.220  0.00  0.00    +0.000 C 
ATOM      6  C   UNL     1      48.047   7.361  11.929  0.00  0.00    +0.000 C 
ATOM      7  N   UNL     1      48.881   6.911  13.044  0.00  0.00    +0.000 N 
ATOM      8  C   UNL     1      48.321   6.033  13.946  0.00  0.00    +0.000 A 
ATOM      9  N   UNL     1      47.361   5.177  13.565  0.00  0.00    +0.000 NA
ATOM     10  C   UNL     1      46.877   4.333  14.495  0.00  0.00    +0.000 A 
ATOM     11  C   UNL     1      47.282   4.336  15.807  0.00  0.00    +0.000 A 
ATOM     12  C   UNL     1      48.233   5.275  16.135  0.00  0.00    +0.000 A 
ATOM     13  N   UNL     1      48.776   6.073  15.197  0.00  0.00    +0.000 NA
ATOM     14  C   UNL     1      49.806   7.931  13.564  0.00  0.00    +0.000 C 
ATOM     15  C   UNL     1      49.083   9.265  13.835  0.00  0.00    +0.000 C 
ATOM     16  C   UNL     1      50.091  10.361  14.171  0.00  0.00    +0.000 C 
ATOM     17  O   UNL     1      48.349   9.705  12.676  0.00  0.00    +0.000 OA
ENDBRANCH   1  12
BRANCH   1  18
ATOM     18  N   UNL     1      50.150   5.450  17.758  0.00  0.00    +0.000 N 
ATOM     19  H   UNL     1      50.669   6.250  17.393  0.00  0.00    +0.000 HD
BRANCH  18  20
ATOM     20  C   UNL     1      50.870   4.251  17.652  0.00  0.00    +0.000 A 
ATOM     21  C   UNL     1      52.233   4.244  17.978  0.00  0.00    +0.000 A 
ATOM     22  C   UNL     1      52.949   3.048  17.990  0.00  0.00    +0.000 A 
ATOM     23  C   UNL     1      52.270   1.880  17.684  0.00  0.00    +0.000 A 
ATOM     24  N   UNL     1      50.942   1.833  17.378  0.00  0.00    +0.000 NA
ATOM     25  C   UNL     1      50.287   3.015  17.386  0.00  0.00    +0.000 A 
BRANCH  23  26
ATOM     26  C   UNL     1      52.979   0.561  17.685  0.00  0.00    +0.000 C 
ATOM     27  N   UNL     1      52.370  -0.405  18.437  0.00  0.00    +0.000 N 
ATOM     28  O   UNL     1      54.016   0.353  17.064  0.00  0.00    +0.000 OA
ATOM     29  H   UNL     1      51.510  -0.181  18.932  0.00  0.00    +0.000 HD
ATOM     30  H   UNL     1      52.769  -1.332  18.500  0.00  0.00    +0.000 HD
ENDBRANCH  23  26
ENDBRANCH  18  20
ENDBRANCH   1  18
TORSDOF 4
ENDMDL
MODEL 6
REMARK VINA RESULT:    -6.169      3.353      5.360
REMARK INTER + INTRA:          -7.485
REMARK INTER:                  -7.088
REMARK INTRA:                  -0.396
REMARK UNBOUND:                 0.127
REMARK  Name = 
REMARK  6 active torsions:
REMARK  status: ('A' for Active; 'I' for Inactive)
REMARK    1  A    between atoms: C_1  and  C_2
REMARK    2  A    between atoms: C_9  and  C_10
REMARK    3  A    between atoms: C_10  and  N_11
REMARK    4  A    between atoms: N_11  and  C_12
REMARK    5  A    between atoms: C_15  and  C_16
REMARK    6  A    between atoms: C_25  and  C_26
REMARK                            x       y       z     vdW  Elec       q    Type
REMARK                         _______ _______ _______ _____ _____    ______ ____
ROOT
ATOM      1  C   UNL     1      47.938   4.540  16.290  0.00  0.00    +0.000 C 
ATOM      2  C   UNL     1      47.051   3.695  17.180  0.00  0.00    +0.000 C 
ATOM      3  C   UNL     1      48.451   3.249  16.936  0.00  0.00    +0.000 C 
ENDROOT
BRANCH   1  12
ATOM      4  C   UNL     1      52.591   8.026  15.105  0.00  0.00    +0.000 C 
ATOM      5  C   UNL     1      51.839   9.233  14.546  0.00  0.00    +0.000 C 
ATOM      6  C   UNL     1      50.695   9.744  15.453  0.00  0.00    +0.000 C 
ATOM      7  N   UNL     1      49.508   8.893  15.363  0.00  0.00    +0.000 N 
ATOM      8  C   UNL     1      49.341   7.926  16.329  0.00  0.00    +0.000 A 
ATOM      9  N   UNL     1      49.829   8.100  17.566  0.00  0.00    +0.000 NA
ATOM     10  C   UNL     1      49.608   7.123  18.465  0.00  0.00    +0.000 A 
ATOM     11  C   UNL     1      48.954   5.953  18.168  0.00  0.00    +0.000 A 
ATOM     12  C   UNL     1      48.526   5.823  16.867  0.00  0.00    +0.000 A 
ATOM     13  N   UNL     1      48.677   6.825  15.981  0.00  0.00    +0.000 NA
ATOM     14  C   UNL     1      49.094   8.567  13.988  0.00  0.00    +0.000 C 
ATOM     15  C   UNL     1      50.282   8.060  13.145  0.00  0.00    +0.000 C 
ATOM     16  C   UNL     1      49.879   7.929  11.679  0.00  0.00    +0.000 C 
ATOM     17  O   UNL     1      51.389   8.978  13.201  0.00  0.00    +0.000 OA
ENDBRANCH   1  12
BRANCH   1  18
ATOM     18  N   UNL     1      47.964   4.479  14.813  0.00  0.00    +0.000 N 
ATOM     19  H   UNL     1      48.704   5.048  14.397  0.00  0.00    +0.000 HD
BRANCH  18  20
ATOM     20  C   UNL     1      46.818   4.417  14.007  0.00  0.00    +0.000 A 
ATOM     21  C   UNL     1      46.163   5.608  13.663  0.00  0.00    +0.000 A 
ATOM     22  C   UNL     1      45.089   5.590  12.775  0.00  0.00    +0.000 A 
ATOM     23  C   UNL     1      44.705   4.369  12.242  0.00  0.00    +0.000 A 
ATOM     24  N   UNL     1      45.321   3.188  12.532  0.00  0.00    +0.000 NA
ATOM     25  C   UNL     1      46.362   3.255  13.392  0.00  0.00    +0.000 A 
BRANCH  23  26
ATOM     26  C   UNL     1      43.563   4.283  11.278  0.00  0.00    +0.000 C 
ATOM     27  N   UNL     1      43.268   5.460  10.647  0.00  0.00    +0.000 N 
ATOM     28  O   UNL     1      42.941   3.248  11.060  0.00  0.00    +0.000 OA
ATOM     29  H   UNL     1      43.815   6.290  10.863  0.00  0.00    +0.000 HD
ATOM     30  H   UNL     1      42.514   5.505   9.975  0.00  0.00    +0.000 HD
ENDBRANCH  23  26
ENDBRANCH  18  20
ENDBRANCH   1  18
TORSDOF 4
ENDMDL
MODEL 7
REMARK VINA RESULT:    -6.024      4.515      6.472
REMARK INTER + INTRA:          -7.305
REMARK INTER:                  -7.113
REMARK INTRA:                  -0.192
REMARK UNBOUND:                 0.127
REMARK  Name = 
REMARK  6 active torsions:
REMARK  status: ('A' for Active; 'I' for Inactive)
REMARK    1  A    between atoms: C_1  and  C_2
REMARK    2  A    between atoms: C_9  and  C_10
REMARK    3  A    between atoms: C_10  and  N_11
REMARK    4  A    between atoms: N_11  and  C_12
REMARK    5  A    between atoms: C_15  and  C_16
REMARK    6  A    between atoms: C_25  and  C_26
REMARK                            x       y       z     vdW  Elec       q    Type
REMARK                         _______ _______ _______ _____ _____    ______ ____
ROOT
ATOM      1  C   UNL     1      47.720   4.598  16.763  0.00  0.00    +0.000 C 
ATOM      2  C   UNL     1      47.138   3.277  17.221  0.00  0.00    +0.000 C 
ATOM      3  C   UNL     1      48.611   3.376  17.014  0.00  0.00    +0.000 C 
ENDROOT
BRANCH   1  12
ATOM      4  C   UNL     1      52.102   6.816  20.093  0.00  0.00    +0.000 C 
ATOM      5  C   UNL     1      52.285   8.151  19.374  0.00  0.00    +0.000 C 
ATOM      6  C   UNL     1      50.976   8.952  19.176  0.00  0.00    +0.000 C 
ATOM      7  N   UNL     1      50.168   8.411  18.083  0.00  0.00    +0.000 N 
ATOM      8  C   UNL     1      49.150   7.543  18.412  0.00  0.00    +0.000 A 
ATOM      9  N   UNL     1      48.527   7.632  19.596  0.00  0.00    +0.000 NA
ATOM     10  C   UNL     1      47.526   6.766  19.839  0.00  0.00    +0.000 A 
ATOM     11  C   UNL     1      47.147   5.779  18.961  0.00  0.00    +0.000 A 
ATOM     12  C   UNL     1      47.864   5.717  17.789  0.00  0.00    +0.000 A 
ATOM     13  N   UNL     1      48.816   6.625  17.506  0.00  0.00    +0.000 NA
ATOM     14  C   UNL     1      50.915   8.153  16.842  0.00  0.00    +0.000 C 
ATOM     15  C   UNL     1      52.202   7.348  17.113  0.00  0.00    +0.000 C 
ATOM     16  C   UNL     1      53.061   7.273  15.854  0.00  0.00    +0.000 C 
ATOM     17  O   UNL     1      53.001   7.972  18.136  0.00  0.00    +0.000 OA
ENDBRANCH   1  12
BRANCH   1  18
ATOM     18  N   UNL     1      47.781   5.059  15.359  0.00  0.00    +0.000 N 
ATOM     19  H   UNL     1      48.084   6.030  15.265  0.00  0.00    +0.000 HD
BRANCH  18  20
ATOM     20  C   UNL     1      46.862   4.686  14.368  0.00  0.00    +0.000 A 
ATOM     21  C   UNL     1      46.082   5.675  13.755  0.00  0.00    +0.000 A 
ATOM     22  C   UNL     1      45.240   5.353  12.692  0.00  0.00    +0.000 A 
ATOM     23  C   UNL     1      45.215   4.036  12.259  0.00  0.00    +0.000 A 
ATOM     24  N   UNL     1      45.967   3.042  12.811  0.00  0.00    +0.000 NA
ATOM     25  C   UNL     1      46.773   3.403  13.834  0.00  0.00    +0.000 A 
BRANCH  23  26
ATOM     26  C   UNL     1      44.338   3.624  11.118  0.00  0.00    +0.000 C 
ATOM     27  N   UNL     1      44.722   2.466  10.502  0.00  0.00    +0.000 N 
ATOM     28  O   UNL     1      43.353   4.262  10.760  0.00  0.00    +0.000 OA
ATOM     29  H   UNL     1      45.547   1.974  10.838  0.00  0.00    +0.000 HD
ATOM     30  H   UNL     1      44.193   2.101   9.721  0.00  0.00    +0.000 HD
ENDBRANCH  23  26
ENDBRANCH  18  20
ENDBRANCH   1  18
TORSDOF 4
ENDMDL
MODEL 8
REMARK VINA RESULT:    -5.999      3.340      7.596
REMARK INTER + INTRA:          -7.274
REMARK INTER:                  -7.328
REMARK INTRA:                   0.054
REMARK UNBOUND:                 0.127
REMARK  Name = 
REMARK  6 active torsions:
REMARK  status: ('A' for Active; 'I' for Inactive)
REMARK    1  A    between atoms: C_1  and  C_2
REMARK    2  A    between atoms: C_9  and  C_10
REMARK    3  A    between atoms: C_10  and  N_11
REMARK    4  A    between atoms: N_11  and  C_12
REMARK    5  A    between atoms: C_15  and  C_16
REMARK    6  A    between atoms: C_25  and  C_26
REMARK                            x       y       z     vdW  Elec       q    Type
REMARK                         _______ _______ _______ _____ _____    ______ ____
ROOT
ATOM      1  C   UNL     1      48.944   8.886  13.522  0.00  0.00    +0.000 C 
ATOM      2  C   UNL     1      50.073   9.465  12.695  0.00  0.00    +0.000 C 
ATOM      3  C   UNL     1      49.911   7.985  12.747  0.00  0.00    +0.000 C 
ENDROOT
BRANCH   1  12
ATOM      4  C   UNL     1      45.630   5.531   9.920  0.00  0.00    +0.000 C 
ATOM      5  C   UNL     1      44.641   4.993  10.952  0.00  0.00    +0.000 C 
ATOM      6  C   UNL     1      43.979   6.084  11.827  0.00  0.00    +0.000 C 
ATOM      7  N   UNL     1      44.885   6.569  12.867  0.00  0.00    +0.000 N 
ATOM      8  C   UNL     1      45.588   7.726  12.613  0.00  0.00    +0.000 A 
ATOM      9  N   UNL     1      45.087   8.670  11.802  0.00  0.00    +0.000 NA
ATOM     10  C   UNL     1      45.819   9.784  11.618  0.00  0.00    +0.000 A 
ATOM     11  C   UNL     1      47.059   9.978  12.177  0.00  0.00    +0.000 A 
ATOM     12  C   UNL     1      47.530   8.946  12.955  0.00  0.00    +0.000 A 
ATOM     13  N   UNL     1      46.774   7.861  13.205  0.00  0.00    +0.000 NA
ATOM     14  C   UNL     1      45.563   5.508  13.630  0.00  0.00    +0.000 C 
ATOM     15  C   UNL     1      46.203   4.462  12.695  0.00  0.00    +0.000 C 
ATOM     16  C   UNL     1      46.715   3.270  13.499  0.00  0.00    +0.000 C 
ATOM     17  O   UNL     1      45.244   3.954  11.748  0.00  0.00    +0.000 OA
ENDBRANCH   1  12
BRANCH   1  18
ATOM     18  N   UNL     1      48.996   8.644  14.980  0.00  0.00    +0.000 N 
ATOM     19  H   UNL     1      49.319   9.453  15.513  0.00  0.00    +0.000 HD
BRANCH  18  20
ATOM     20  C   UNL     1      49.382   7.429  15.562  0.00  0.00    +0.000 A 
ATOM     21  C   UNL     1      50.595   7.364  16.261  0.00  0.00    +0.000 A 
ATOM     22  C   UNL     1      50.955   6.203  16.944  0.00  0.00    +0.000 A 
ATOM     23  C   UNL     1      50.073   5.133  16.917  0.00  0.00    +0.000 A 
ATOM     24  N   UNL     1      48.875   5.154  16.267  0.00  0.00    +0.000 NA
ATOM     25  C   UNL     1      48.566   6.302  15.625  0.00  0.00    +0.000 A 
BRANCH  23  26
ATOM     26  C   UNL     1      50.396   3.860  17.636  0.00  0.00    +0.000 C 
ATOM     27  N   UNL     1      50.517   3.993  18.991  0.00  0.00    +0.000 N 
ATOM     28  O   UNL     1      50.537   2.782  17.067  0.00  0.00    +0.000 OA
ATOM     29  H   UNL     1      50.389   4.910  19.414  0.00  0.00    +0.000 HD
ATOM     30  H   UNL     1      50.731   3.190  19.568  0.00  0.00    +0.000 HD
ENDBRANCH  23  26
ENDBRANCH  18  20
ENDBRANCH   1  18
TORSDOF 4
ENDMDL
