MODEL 1
REMARK VINA RESULT:    -8.420      0.000      0.000
REMARK INTER + INTRA:         -11.350
REMARK INTER:                 -10.881
REMARK INTRA:                  -0.469
REMARK UNBOUND:                -0.469
REMARK  Name = 
REMARK  5 active torsions:
REMARK  status: ('A' for Active; 'I' for Inactive)
REMARK    1  A    between atoms: C_2  and  C_4
REMARK    2  A    between atoms: C_8  and  O_9
REMARK    3  A    between atoms: O_9  and  C_10
REMARK    4  A    between atoms: C_10  and  C_11
REMARK    5  A    between atoms: C_15  and  N_16
REMARK                            x       y       z     vdW  Elec       q    Type
REMARK                         _______ _______ _______ _____ _____    ______ ____
ROOT
ATOM      1  C   UNL     1      43.595   4.247  11.025  0.00  0.00    +0.000 C 
ENDROOT
BRANCH   1   2
ATOM      2  C   UNL     1      44.745   4.426  11.985  0.00  0.00    +0.000 A 
ATOM      3  C   UNL     1      45.227   3.324  12.684  0.00  0.00    +0.000 A 
ATOM      4  N   UNL     1      46.302   3.381  13.487  0.00  0.00    +0.000 NA
ATOM      5  C   UNL     1      46.864   4.610  13.584  0.00  0.00    +0.000 A 
ATOM      6  C   UNL     1      46.399   5.755  12.924  0.00  0.00    +0.000 A 
ATOM      7  N   UNL     1      45.319   5.657  12.113  0.00  0.00    +0.000 NA
BRANCH   6   8
ATOM      8  N   UNL     1      47.014   6.972  13.110  0.00  0.00    +0.000 N 
ATOM      9  C   UNL     1      46.223   8.201  13.206  0.00  0.00    +0.000 C 
ATOM     10  C   UNL     1      46.594   9.191  12.096  0.00  0.00    +0.000 C 
ATOM     11  O   UNL     1      48.016   9.404  12.026  0.00  0.00    +0.000 OA
ATOM     12  C   UNL     1      48.685   8.166  11.749  0.00  0.00    +0.000 C 
ATOM     13  C   UNL     1      48.448   7.134  12.863  0.00  0.00    +0.000 C 
ENDBRANCH   6   8
ENDBRANCH   1   2
BRANCH   1  14
ATOM     14  O   UNL     1      43.758   3.036  10.286  0.00  0.00    +0.000 OA
BRANCH  14  19
ATOM     15  C   UNL     1      46.357   2.117   7.806  0.00  0.00    +0.000 A 
ATOM     16  C   UNL     1      46.554   3.392   7.292  0.00  0.00    +0.000 A 
ATOM     17  N   UNL     1      45.860   4.476   7.709  0.00  0.00    +0.000 NA
ATOM     18  C   UNL     1      44.956   4.273   8.699  0.00  0.00    +0.000 A 
ATOM     19  C   UNL     1      44.698   3.039   9.293  0.00  0.00    +0.000 A 
ATOM     20  C   UNL     1      45.416   1.940   8.827  0.00  0.00    +0.000 A 
BRANCH  15  22
ATOM     21  N   UNL     1      46.834  -0.259   7.678  0.00  0.00    +0.000 N 
ATOM     22  C   UNL     1      47.176   1.004   7.283  0.00  0.00    +0.000 C 
ATOM     23  O   UNL     1      48.105   1.201   6.512  0.00  0.00    +0.000 OA
ATOM     24  H   UNL     1      47.345  -1.015   7.237  0.00  0.00    +0.000 HD
ATOM     25  H   UNL     1      45.930  -0.479   8.068  0.00  0.00    +0.000 HD
ENDBRANCH  15  22
ENDBRANCH  14  19
ENDBRANCH   1  14
TORSDOF 5
ENDMDL
MODEL 2
REMARK VINA RESULT:    -7.923      1.706      2.423
REMARK INTER + INTRA:         -10.709
REMARK INTER:                 -10.229
REMARK INTRA:                  -0.479
REMARK UNBOUND:                -0.469
REMARK  Name = 
REMARK  5 active torsions:
REMARK  status: ('A' for Active; 'I' for Inactive)
REMARK    1  A    between atoms: C_2  and  C_4
REMARK    2  A    between atoms: C_8  and  O_9
REMARK    3  A    between atoms: O_9  and  C_10
REMARK    4  A    between atoms: C_10  and  C_11
REMARK    5  A    between atoms: C_15  and  N_16
REMARK                            x       y       z     vdW  Elec       q    Type
REMARK                         _______ _______ _______ _____ _____    ______ ____
ROOT
ATOM      1  C   UNL     1      43.793   2.790  11.465  0.00  0.00    +0.000 C 
ENDROOT
BRANCH   1   2
ATOM      2  C   UNL     1      44.392   4.041  12.062  0.00  0.00    +0.000 A 
ATOM      3  C   UNL     1      43.672   5.231  12.012  0.00  0.00    +0.000 A 
ATOM      4  N   UNL     1      44.094   6.364  12.596  0.00  0.00    +0.000 NA
ATOM      5  C   UNL     1      45.294   6.262  13.217  0.00  0.00    +0.000 A 
ATOM      6  C   UNL     1      46.069   5.095  13.269  0.00  0.00    +0.000 A 
ATOM      7  N   UNL     1      45.606   3.968  12.678  0.00  0.00    +0.000 NA
BRANCH   6   8
ATOM      8  N   UNL     1      47.294   5.093  13.894  0.00  0.00    +0.000 N 
ATOM      9  C   UNL     1      47.525   4.271  15.083  0.00  0.00    +0.000 C 
ATOM     10  C   UNL     1      47.911   5.133  16.291  0.00  0.00    +0.000 C 
ATOM     11  O   UNL     1      48.986   6.037  15.978  0.00  0.00    +0.000 OA
ATOM     12  C   UNL     1      48.592   6.921  14.919  0.00  0.00    +0.000 C 
ATOM     13  C   UNL     1      48.274   6.148  13.628  0.00  0.00    +0.000 C 
ENDBRANCH   6   8
ENDBRANCH   1   2
BRANCH   1  14
ATOM     14  O   UNL     1      43.470   3.010  10.092  0.00  0.00    +0.000 OA
BRANCH  14  19
ATOM     15  C   UNL     1      46.294   2.159   7.844  0.00  0.00    +0.000 A 
ATOM     16  C   UNL     1      46.589   3.458   7.450  0.00  0.00    +0.000 A 
ATOM     17  N   UNL     1      45.890   4.538   7.868  0.00  0.00    +0.000 NA
ATOM     18  C   UNL     1      44.876   4.304   8.738  0.00  0.00    +0.000 A 
ATOM     19  C   UNL     1      44.513   3.043   9.208  0.00  0.00    +0.000 A 
ATOM     20  C   UNL     1      45.241   1.951   8.742  0.00  0.00    +0.000 A 
BRANCH  15  22
ATOM     21  N   UNL     1      46.803  -0.211   7.738  0.00  0.00    +0.000 N 
ATOM     22  C   UNL     1      47.128   1.053   7.332  0.00  0.00    +0.000 C 
ATOM     23  O   UNL     1      48.055   1.255   6.558  0.00  0.00    +0.000 OA
ATOM     24  H   UNL     1      47.324  -0.964   7.304  0.00  0.00    +0.000 HD
ATOM     25  H   UNL     1      45.902  -0.440   8.130  0.00  0.00    +0.000 HD
ENDBRANCH  15  22
ENDBRANCH  14  19
ENDBRANCH   1  14
TORSDOF 5
ENDMDL
MODEL 3
REMARK VINA RESULT:    -7.474      2.938      7.274
REMARK INTER + INTRA:         -10.127
REMARK INTER:                  -9.531
REMARK INTRA:                  -0.596
REMARK UNBOUND:                -0.469
REMARK  Name = 
REMARK  5 active torsions:
REMARK  status: ('A' for Active; 'I' for Inactive)
REMARK    1  A    between atoms: C_2  and  C_4
REMARK    2  A    between atoms: C_8  and  O_9
REMARK    3  A    between atoms: O_9  and  C_10
REMARK    4  A    between atoms: C_10  and  C_11
REMARK    5  A    between atoms: C_15  and  N_16
REMARK                            x       y       z     vdW  Elec       q    Type
REMARK                         _______ _______ _______ _____ _____    ______ ____
ROOT
ATOM      1  C   UNL     1      45.718   6.146  12.941  0.00  0.00    +0.000 C 
ENDROOT
BRANCH   1   2
ATOM      2  C   UNL     1      45.007   4.933  12.390  0.00  0.00    +0.000 A 
ATOM      3  C   UNL     1      44.149   4.214  13.215  0.00  0.00    +0.000 A 
ATOM      4  N   UNL     1      43.413   3.179  12.779  0.00  0.00    +0.000 NA
ATOM      5  C   UNL     1      43.595   2.874  11.471  0.00  0.00    +0.000 A 
ATOM      6  C   UNL     1      44.469   3.549  10.608  0.00  0.00    +0.000 A 
ATOM      7  N   UNL     1      45.188   4.595  11.081  0.00  0.00    +0.000 NA
BRANCH   6   8
ATOM      8  N   UNL     1      44.616   3.146   9.301  0.00  0.00    +0.000 N 
ATOM      9  C   UNL     1      44.821   1.733   8.974  0.00  0.00    +0.000 C 
ATOM     10  C   UNL     1      46.157   1.516   8.254  0.00  0.00    +0.000 C 
ATOM     11  O   UNL     1      46.311   2.411   7.137  0.00  0.00    +0.000 OA
ATOM     12  C   UNL     1      46.275   3.772   7.590  0.00  0.00    +0.000 C 
ATOM     13  C   UNL     1      44.928   4.112   8.247  0.00  0.00    +0.000 C 
ENDBRANCH   6   8
ENDBRANCH   1   2
BRANCH   1  14
ATOM     14  O   UNL     1      47.115   5.879  13.068  0.00  0.00    +0.000 OA
BRANCH  14  19
ATOM     15  C   UNL     1      47.796   4.772  16.541  0.00  0.00    +0.000 A 
ATOM     16  C   UNL     1      48.769   5.720  16.829  0.00  0.00    +0.000 A 
ATOM     17  N   UNL     1      49.196   6.642  15.935  0.00  0.00    +0.000 NA
ATOM     18  C   UNL     1      48.600   6.626  14.717  0.00  0.00    +0.000 A 
ATOM     19  C   UNL     1      47.603   5.730  14.337  0.00  0.00    +0.000 A 
ATOM     20  C   UNL     1      47.200   4.782  15.275  0.00  0.00    +0.000 A 
BRANCH  15  22
ATOM     21  N   UNL     1      47.899   4.030  18.849  0.00  0.00    +0.000 N 
ATOM     22  C   UNL     1      47.398   3.817  17.596  0.00  0.00    +0.000 C 
ATOM     23  O   UNL     1      46.634   2.890  17.364  0.00  0.00    +0.000 OA
ATOM     24  H   UNL     1      47.542   3.423  19.578  0.00  0.00    +0.000 HD
ATOM     25  H   UNL     1      48.287   4.916  19.135  0.00  0.00    +0.000 HD
ENDBRANCH  15  22
ENDBRANCH  14  19
ENDBRANCH   1  14
TORSDOF 5
ENDMDL
MODEL 4
REMARK VINA RESULT:    -7.280      1.753      2.131
REMARK INTER + INTRA:          -9.877
REMARK INTER:                  -9.297
REMARK INTRA:                  -0.580
REMARK UNBOUND:                -0.469
REMARK  Name = 
REMARK  5 active torsions:
REMARK  status: ('A' for Active; 'I' for Inactive)
REMARK    1  A    between atoms: C_2  and  C_4
REMARK    2  A    between atoms: C_8  and  O_9
REMARK    3  A    between atoms: O_9  and  C_10
REMARK    4  A    between atoms: C_10  and  C_11
REMARK    5  A    between atoms: C_15  and  N_16
REMARK                            x       y       z     vdW  Elec       q    Type
REMARK                         _______ _______ _______ _____ _____    ______ ____
ROOT
ATOM      1  C   UNL     1      45.051   5.648  10.111  0.00  0.00    +0.000 C 
ENDROOT
BRANCH   1   2
ATOM      2  C   UNL     1      45.597   5.453  11.505  0.00  0.00    +0.000 A 
ATOM      3  C   UNL     1      44.958   4.571  12.369  0.00  0.00    +0.000 A 
ATOM      4  N   UNL     1      45.430   4.275  13.591  0.00  0.00    +0.000 NA
ATOM      5  C   UNL     1      46.569   4.928  13.925  0.00  0.00    +0.000 A 
ATOM      6  C   UNL     1      47.234   5.847  13.101  0.00  0.00    +0.000 A 
ATOM      7  N   UNL     1      46.734   6.113  11.871  0.00  0.00    +0.000 NA
BRANCH   6   8
ATOM      8  N   UNL     1      48.368   6.490  13.538  0.00  0.00    +0.000 N 
ATOM      9  C   UNL     1      48.490   6.925  14.932  0.00  0.00    +0.000 C 
ATOM     10  C   UNL     1      48.671   8.445  15.027  0.00  0.00    +0.000 C 
ATOM     11  O   UNL     1      49.728   8.909  14.167  0.00  0.00    +0.000 OA
ATOM     12  C   UNL     1      49.425   8.591  12.802  0.00  0.00    +0.000 C 
ATOM     13  C   UNL     1      49.316   7.073  12.587  0.00  0.00    +0.000 C 
ENDBRANCH   6   8
ENDBRANCH   1   2
BRANCH   1  14
ATOM     14  O   UNL     1      44.329   4.486   9.702  0.00  0.00    +0.000 OA
BRANCH  14  19
ATOM     15  C   UNL     1      46.507   2.661   7.319  0.00  0.00    +0.000 A 
ATOM     16  C   UNL     1      46.266   1.387   7.818  0.00  0.00    +0.000 A 
ATOM     17  N   UNL     1      45.468   1.145   8.883  0.00  0.00    +0.000 NA
ATOM     18  C   UNL     1      44.868   2.222   9.447  0.00  0.00    +0.000 A 
ATOM     19  C   UNL     1      45.028   3.535   9.011  0.00  0.00    +0.000 A 
ATOM     20  C   UNL     1      45.872   3.751   7.924  0.00  0.00    +0.000 A 
BRANCH  15  22
ATOM     21  N   UNL     1      48.725   2.592   6.338  0.00  0.00    +0.000 N 
ATOM     22  C   UNL     1      47.390   2.811   6.145  0.00  0.00    +0.000 C 
ATOM     23  O   UNL     1      46.944   3.096   5.041  0.00  0.00    +0.000 OA
ATOM     24  H   UNL     1      49.302   2.606   5.505  0.00  0.00    +0.000 HD
ATOM     25  H   UNL     1      49.082   2.092   7.138  0.00  0.00    +0.000 HD
ENDBRANCH  15  22
ENDBRANCH  14  19
ENDBRANCH   1  14
TORSDOF 5
ENDMDL
MODEL 5
REMARK VINA RESULT:    -6.870      2.249      6.930
REMARK INTER + INTRA:          -9.347
REMARK INTER:                  -8.673
REMARK INTRA:                  -0.674
REMARK UNBOUND:                -0.469
REMARK  Name = 
REMARK  5 active torsions:
REMARK  status: ('A' for Active; 'I' for Inactive)
REMARK    1  A    between atoms: C_2  and  C_4
REMARK    2  A    between atoms: C_8  and  O_9
REMARK    3  A    between atoms: O_9  and  C_10
REMARK    4  A    between atoms: C_10  and  C_11
REMARK    5  A    between atoms: C_15  and  N_16
REMARK                            x       y       z     vdW  Elec       q    Type
REMARK                         _______ _______ _______ _____ _____    ______ ____
ROOT
ATOM      1  C   UNL     1      46.452   5.608  13.141  0.00  0.00    +0.000 C 
ENDROOT
BRANCH   1   2
ATOM      2  C   UNL     1      45.464   4.648  12.523  0.00  0.00    +0.000 A 
ATOM      3  C   UNL     1      44.431   4.139  13.302  0.00  0.00    +0.000 A 
ATOM      4  N   UNL     1      43.462   3.352  12.807  0.00  0.00    +0.000 NA
ATOM      5  C   UNL     1      43.589   3.070  11.487  0.00  0.00    +0.000 A 
ATOM      6  C   UNL     1      44.627   3.535  10.668  0.00  0.00    +0.000 A 
ATOM      7  N   UNL     1      45.581   4.335  11.200  0.00  0.00    +0.000 NA
BRANCH   6   8
ATOM      8  N   UNL     1      44.694   3.168   9.344  0.00  0.00    +0.000 N 
ATOM      9  C   UNL     1      44.866   1.764   8.966  0.00  0.00    +0.000 C 
ATOM     10  C   UNL     1      46.156   1.556   8.164  0.00  0.00    +0.000 C 
ATOM     11  O   UNL     1      46.254   2.481   7.066  0.00  0.00    +0.000 OA
ATOM     12  C   UNL     1      46.259   3.828   7.558  0.00  0.00    +0.000 C 
ATOM     13  C   UNL     1      44.955   4.162   8.301  0.00  0.00    +0.000 C 
ENDBRANCH   6   8
ENDBRANCH   1   2
BRANCH   1  14
ATOM     14  O   UNL     1      47.040   6.425  12.128  0.00  0.00    +0.000 OA
BRANCH  14  19
ATOM     15  C   UNL     1      45.003   9.500  11.744  0.00  0.00    +0.000 A 
ATOM     16  C   UNL     1      46.044  10.407  11.886  0.00  0.00    +0.000 A 
ATOM     17  N   UNL     1      47.325  10.038  12.122  0.00  0.00    +0.000 NA
ATOM     18  C   UNL     1      47.568   8.705  12.189  0.00  0.00    +0.000 A 
ATOM     19  C   UNL     1      46.598   7.716  12.041  0.00  0.00    +0.000 A 
ATOM     20  C   UNL     1      45.287   8.132  11.818  0.00  0.00    +0.000 A 
BRANCH  15  22
ATOM     21  N   UNL     1      42.818   9.228  10.723  0.00  0.00    +0.000 N 
ATOM     22  C   UNL     1      43.643  10.013  11.480  0.00  0.00    +0.000 C 
ATOM     23  O   UNL     1      43.261  11.082  11.938  0.00  0.00    +0.000 OA
ATOM     24  H   UNL     1      41.862   9.549  10.631  0.00  0.00    +0.000 HD
ATOM     25  H   UNL     1      42.991   8.245  10.574  0.00  0.00    +0.000 HD
ENDBRANCH  15  22
ENDBRANCH  14  19
ENDBRANCH   1  14
TORSDOF 5
ENDMDL
MODEL 6
REMARK VINA RESULT:    -6.869      2.236      6.900
REMARK INTER + INTRA:          -9.347
REMARK INTER:                  -8.687
REMARK INTRA:                  -0.660
REMARK UNBOUND:                -0.469
REMARK  Name = 
REMARK  5 active torsions:
REMARK  status: ('A' for Active; 'I' for Inactive)
REMARK    1  A    between atoms: C_2  and  C_4
REMARK    2  A    between atoms: C_8  and  O_9
REMARK    3  A    between atoms: O_9  and  C_10
REMARK    4  A    between atoms: C_10  and  C_11
REMARK    5  A    between atoms: C_15  and  N_16
REMARK                            x       y       z     vdW  Elec       q    Type
REMARK                         _______ _______ _______ _____ _____    ______ ____
ROOT
ATOM      1  C   UNL     1      45.175   6.721  12.588  0.00  0.00    +0.000 C 
ENDROOT
BRANCH   1   2
ATOM      2  C   UNL     1      44.750   5.329  12.187  0.00  0.00    +0.000 A 
ATOM      3  C   UNL     1      44.152   4.502  13.131  0.00  0.00    +0.000 A 
ATOM      4  N   UNL     1      43.666   3.285  12.834  0.00  0.00    +0.000 NA
ATOM      5  C   UNL     1      43.831   2.918  11.540  0.00  0.00    +0.000 A 
ATOM      6  C   UNL     1      44.452   3.704  10.559  0.00  0.00    +0.000 A 
ATOM      7  N   UNL     1      44.921   4.929  10.894  0.00  0.00    +0.000 NA
BRANCH   6   8
ATOM      8  N   UNL     1      44.607   3.233   9.276  0.00  0.00    +0.000 N 
ATOM      9  C   UNL     1      44.765   1.799   9.021  0.00  0.00    +0.000 C 
ATOM     10  C   UNL     1      46.105   1.499   8.337  0.00  0.00    +0.000 C 
ATOM     11  O   UNL     1      46.311   2.333   7.183  0.00  0.00    +0.000 OA
ATOM     12  C   UNL     1      46.319   3.715   7.570  0.00  0.00    +0.000 C 
ATOM     13  C   UNL     1      44.974   4.136   8.184  0.00  0.00    +0.000 C 
ENDBRANCH   6   8
ENDBRANCH   1   2
BRANCH   1  14
ATOM     14  O   UNL     1      46.350   7.100  11.871  0.00  0.00    +0.000 OA
BRANCH  14  19
ATOM     15  C   UNL     1      48.980   6.949  14.482  0.00  0.00    +0.000 A 
ATOM     16  C   UNL     1      49.934   7.691  13.798  0.00  0.00    +0.000 A 
ATOM     17  N   UNL     1      49.741   8.183  12.552  0.00  0.00    +0.000 NA
ATOM     18  C   UNL     1      48.532   7.943  11.987  0.00  0.00    +0.000 A 
ATOM     19  C   UNL     1      47.503   7.227  12.596  0.00  0.00    +0.000 A 
ATOM     20  C   UNL     1      47.742   6.718  13.870  0.00  0.00    +0.000 A 
BRANCH  15  22
ATOM     21  N   UNL     1      48.244   6.321  16.707  0.00  0.00    +0.000 N 
ATOM     22  C   UNL     1      49.293   6.467  15.842  0.00  0.00    +0.000 C 
ATOM     23  O   UNL     1      50.437   6.187  16.175  0.00  0.00    +0.000 OA
ATOM     24  H   UNL     1      48.463   5.900  17.603  0.00  0.00    +0.000 HD
ATOM     25  H   UNL     1      47.286   6.267  16.394  0.00  0.00    +0.000 HD
ENDBRANCH  15  22
ENDBRANCH  14  19
ENDBRANCH   1  14
TORSDOF 5
ENDMDL
MODEL 7
REMARK VINA RESULT:    -6.820      3.694      7.918
REMARK INTER + INTRA:          -9.283
REMARK INTER:                  -8.820
REMARK INTRA:                  -0.463
REMARK UNBOUND:                -0.469
REMARK  Name = 
REMARK  5 active torsions:
REMARK  status: ('A' for Active; 'I' for Inactive)
REMARK    1  A    between atoms: C_2  and  C_4
REMARK    2  A    between atoms: C_8  and  O_9
REMARK    3  A    between atoms: O_9  and  C_10
REMARK    4  A    between atoms: C_10  and  C_11
REMARK    5  A    between atoms: C_15  and  N_16
REMARK                            x       y       z     vdW  Elec       q    Type
REMARK                         _______ _______ _______ _____ _____    ______ ____
ROOT
ATOM      1  C   UNL     1      46.739   4.430  13.755  0.00  0.00    +0.000 C 
ENDROOT
BRANCH   1   2
ATOM      2  C   UNL     1      45.547   4.475  12.830  0.00  0.00    +0.000 A 
ATOM      3  C   UNL     1      44.385   5.113  13.248  0.00  0.00    +0.000 A 
ATOM      4  N   UNL     1      43.313   5.274  12.454  0.00  0.00    +0.000 NA
ATOM      5  C   UNL     1      43.448   4.739  11.217  0.00  0.00    +0.000 A 
ATOM      6  C   UNL     1      44.588   4.063  10.758  0.00  0.00    +0.000 A 
ATOM      7  N   UNL     1      45.652   3.929  11.584  0.00  0.00    +0.000 NA
BRANCH   6   8
ATOM      8  N   UNL     1      44.622   3.521   9.495  0.00  0.00    +0.000 N 
ATOM      9  C   UNL     1      44.625   2.069   9.305  0.00  0.00    +0.000 C 
ATOM     10  C   UNL     1      45.887   1.606   8.568  0.00  0.00    +0.000 C 
ATOM     11  O   UNL     1      46.107   2.361   7.363  0.00  0.00    +0.000 OA
ATOM     12  C   UNL     1      46.270   3.751   7.677  0.00  0.00    +0.000 C 
ATOM     13  C   UNL     1      45.010   4.331   8.339  0.00  0.00    +0.000 C 
ENDBRANCH   6   8
ENDBRANCH   1   2
BRANCH   1  14
ATOM     14  O   UNL     1      46.322   4.075  15.073  0.00  0.00    +0.000 OA
BRANCH  14  19
ATOM     15  C   UNL     1      48.616   3.810  17.975  0.00  0.00    +0.000 A 
ATOM     16  C   UNL     1      49.384   2.763  17.484  0.00  0.00    +0.000 A 
ATOM     17  N   UNL     1      49.148   2.162  16.295  0.00  0.00    +0.000 NA
ATOM     18  C   UNL     1      48.118   2.654  15.562  0.00  0.00    +0.000 A 
ATOM     19  C   UNL     1      47.302   3.712  15.956  0.00  0.00    +0.000 A 
ATOM     20  C   UNL     1      47.561   4.295  17.194  0.00  0.00    +0.000 A 
BRANCH  15  22
ATOM     21  N   UNL     1      48.535   3.739  20.399  0.00  0.00    +0.000 N 
ATOM     22  C   UNL     1      48.968   4.399  19.284  0.00  0.00    +0.000 C 
ATOM     23  O   UNL     1      49.638   5.419  19.367  0.00  0.00    +0.000 OA
ATOM     24  H   UNL     1      48.864   4.103  21.286  0.00  0.00    +0.000 HD
ATOM     25  H   UNL     1      48.237   2.775  20.378  0.00  0.00    +0.000 HD
ENDBRANCH  15  22
ENDBRANCH  14  19
ENDBRANCH   1  14
TORSDOF 5
ENDMDL
MODEL 8
REMARK VINA RESULT:    -6.767      3.267      5.222
REMARK INTER + INTRA:          -9.215
REMARK INTER:                  -8.579
REMARK INTRA:                  -0.636
REMARK UNBOUND:                -0.469
REMARK  Name = 
REMARK  5 active torsions:
REMARK  status: ('A' for Active; 'I' for Inactive)
REMARK    1  A    between atoms: C_2  and  C_4
REMARK    2  A    between atoms: C_8  and  O_9
REMARK    3  A    between atoms: O_9  and  C_10
REMARK    4  A    between atoms: C_10  and  C_11
REMARK    5  A    between atoms: C_15  and  N_16
REMARK                            x       y       z     vdW  Elec       q    Type
REMARK                         _______ _______ _______ _____ _____    ______ ____
ROOT
ATOM      1  C   UNL     1      47.089   6.540  12.153  0.00  0.00    +0.000 C 
ENDROOT
BRANCH   1   2
ATOM      2  C   UNL     1      48.069   6.638  13.297  0.00  0.00    +0.000 A 
ATOM      3  C   UNL     1      49.156   7.498  13.190  0.00  0.00    +0.000 A 
ATOM      4  N   UNL     1      50.022   7.709  14.195  0.00  0.00    +0.000 NA
ATOM      5  C   UNL     1      49.766   6.992  15.315  0.00  0.00    +0.000 A 
ATOM      6  C   UNL     1      48.701   6.091  15.461  0.00  0.00    +0.000 A 
ATOM      7  N   UNL     1      47.842   5.912  14.429  0.00  0.00    +0.000 NA
BRANCH   6   8
ATOM      8  N   UNL     1      48.539   5.378  16.626  0.00  0.00    +0.000 N 
ATOM      9  C   UNL     1      49.632   5.270  17.594  0.00  0.00    +0.000 C 
ATOM     10  C   UNL     1      50.045   3.809  17.809  0.00  0.00    +0.000 C 
ATOM     11  O   UNL     1      48.910   2.974  18.102  0.00  0.00    +0.000 OA
ATOM     12  C   UNL     1      47.980   3.009  17.010  0.00  0.00    +0.000 C 
ATOM     13  C   UNL     1      47.436   4.427  16.777  0.00  0.00    +0.000 C 
ENDBRANCH   6   8
ENDBRANCH   1   2
BRANCH   1  14
ATOM     14  O   UNL     1      45.775   6.295  12.654  0.00  0.00    +0.000 OA
BRANCH  14  19
ATOM     15  C   UNL     1      44.467   3.482  10.622  0.00  0.00    +0.000 A 
ATOM     16  C   UNL     1      43.727   2.879  11.631  0.00  0.00    +0.000 A 
ATOM     17  N   UNL     1      43.682   3.346  12.900  0.00  0.00    +0.000 NA
ATOM     18  C   UNL     1      44.387   4.477  13.155  0.00  0.00    +0.000 A 
ATOM     19  C   UNL     1      45.144   5.166  12.210  0.00  0.00    +0.000 A 
ATOM     20  C   UNL     1      45.183   4.648  10.918  0.00  0.00    +0.000 A 
BRANCH  15  22
ATOM     21  N   UNL     1      44.213   3.745   8.224  0.00  0.00    +0.000 N 
ATOM     22  C   UNL     1      44.437   2.893   9.268  0.00  0.00    +0.000 C 
ATOM     23  O   UNL     1      44.630   1.698   9.085  0.00  0.00    +0.000 OA
ATOM     24  H   UNL     1      44.290   3.341   7.297  0.00  0.00    +0.000 HD
ATOM     25  H   UNL     1      44.333   4.744   8.303  0.00  0.00    +0.000 HD
ENDBRANCH  15  22
ENDBRANCH  14  19
ENDBRANCH   1  14
TORSDOF 5
ENDMDL
MODEL 9
REMARK VINA RESULT:    -6.482      3.896      5.352
REMARK INTER + INTRA:          -8.847
REMARK INTER:                  -8.406
REMARK INTRA:                  -0.441
REMARK UNBOUND:                -0.469
REMARK  Name = 
REMARK  5 active torsions:
REMARK  status: ('A' for Active; 'I' for Inactive)
REMARK    1  A    between atoms: C_2  and  C_4
REMARK    2  A    between atoms: C_8  and  O_9
REMARK    3  A    between atoms: O_9  and  C_10
REMARK    4  A    between atoms: C_10  and  C_11
REMARK    5  A    between atoms: C_15  and  N_16
REMARK                            x       y       z     vdW  Elec       q    Type
REMARK                         _______ _______ _______ _____ _____    ______ ____
ROOT
ATOM      1  C   UNL     1      47.489   6.341  13.120  0.00  0.00    +0.000 C 
ENDROOT
BRANCH   1   2
ATOM      2  C   UNL     1      47.616   5.450  14.332  0.00  0.00    +0.000 A 
ATOM      3  C   UNL     1      47.162   4.137  14.262  0.00  0.00    +0.000 A 
ATOM      4  N   UNL     1      47.319   3.256  15.264  0.00  0.00    +0.000 NA
ATOM      5  C   UNL     1      47.932   3.759  16.362  0.00  0.00    +0.000 A 
ATOM      6  C   UNL     1      48.380   5.081  16.491  0.00  0.00    +0.000 A 
ATOM      7  N   UNL     1      48.215   5.939  15.456  0.00  0.00    +0.000 NA
BRANCH   6   8
ATOM      8  N   UNL     1      48.962   5.515  17.660  0.00  0.00    +0.000 N 
ATOM      9  C   UNL     1      50.419   5.589  17.786  0.00  0.00    +0.000 C 
ATOM     10  C   UNL     1      50.927   4.686  18.916  0.00  0.00    +0.000 C 
ATOM     11  O   UNL     1      50.214   4.919  20.144  0.00  0.00    +0.000 OA
ATOM     12  C   UNL     1      48.818   4.644  19.961  0.00  0.00    +0.000 C 
ATOM     13  C   UNL     1      48.195   5.572  18.905  0.00  0.00    +0.000 C 
ENDBRANCH   6   8
ENDBRANCH   1   2
BRANCH   1  14
ATOM     14  O   UNL     1      46.129   6.737  12.944  0.00  0.00    +0.000 OA
BRANCH  14  19
ATOM     15  C   UNL     1      44.814   4.782  10.080  0.00  0.00    +0.000 A 
ATOM     16  C   UNL     1      43.581   4.476  10.641  0.00  0.00    +0.000 A 
ATOM     17  N   UNL     1      43.215   4.858  11.886  0.00  0.00    +0.000 NA
ATOM     18  C   UNL     1      44.114   5.600  12.580  0.00  0.00    +0.000 A 
ATOM     19  C   UNL     1      45.367   5.976  12.101  0.00  0.00    +0.000 A 
ATOM     20  C   UNL     1      45.719   5.550  10.822  0.00  0.00    +0.000 A 
BRANCH  15  22
ATOM     21  N   UNL     1      44.294   3.352   8.190  0.00  0.00    +0.000 N 
ATOM     22  C   UNL     1      45.107   4.321   8.707  0.00  0.00    +0.000 C 
ATOM     23  O   UNL     1      46.021   4.803   8.052  0.00  0.00    +0.000 OA
ATOM     24  H   UNL     1      44.449   3.116   7.217  0.00  0.00    +0.000 HD
ATOM     25  H   UNL     1      43.386   3.143   8.576  0.00  0.00    +0.000 HD
ENDBRANCH  15  22
ENDBRANCH  14  19
ENDBRANCH   1  14
TORSDOF 5
ENDMDL
