MODEL 1
REMARK VINA RESULT:    -8.203      0.000      0.000
REMARK INTER + INTRA:         -12.267
REMARK INTER:                 -11.320
REMARK INTRA:                  -0.948
REMARK UNBOUND:                -0.948
REMARK  Name = 
REMARK  7 active torsions:
REMARK  status: ('A' for Active; 'I' for Inactive)
REMARK    1  A    between atoms: N_1  and  C_2
REMARK    2  A    between atoms: C_2  and  C_3
REMARK    3  A    between atoms: C_2  and  C_19
REMARK    4  A    between atoms: C_3  and  C_4
REMARK    5  A    between atoms: C_7  and  C_8
REMARK    6  A    between atoms: C_8  and  N_9
REMARK    7  A    between atoms: C_10  and  C_12
REMARK                            x       y       z     vdW  Elec       q    Type
REMARK                         _______ _______ _______ _____ _____    ______ ____
ROOT
ATOM      1  C   UNL     1      46.638   4.958  14.120  0.00  0.00    +0.000 A 
ATOM      2  C   UNL     1      46.204   5.947  13.242  0.00  0.00    +0.000 A 
ATOM      3  C   UNL     1      45.469   5.576  12.116  0.00  0.00    +0.000 A 
ATOM      4  C   UNL     1      45.174   4.229  11.893  0.00  0.00    +0.000 A 
ATOM      5  C   UNL     1      45.659   3.312  12.815  0.00  0.00    +0.000 A 
ATOM      6  N   UNL     1      46.382   3.642  13.911  0.00  0.00    +0.000 NA
ENDROOT
BRANCH   1   7
ATOM      7  C   UNL     1      47.416   5.313  15.368  0.00  0.00    +0.000 C 
BRANCH   7   8
ATOM      8  C   UNL     1      47.778   4.100  16.256  0.00  0.00    +0.000 C 
BRANCH   8   9
ATOM      9  C   UNL     1      49.031   4.330  17.082  0.00  0.00    +0.000 A 
ATOM     10  C   UNL     1      49.355   5.510  17.738  0.00  0.00    +0.000 A 
ATOM     11  S   UNL     1      50.844   5.444  18.567  0.00  0.00    +0.000 S 
ATOM     12  C   UNL     1      51.112   3.840  18.074  0.00  0.00    +0.000 A 
ATOM     13  N   UNL     1      52.234   3.168  18.447  0.00  0.00    +0.000 NA
ATOM     14  C   UNL     1      52.300   1.959  17.999  0.00  0.00    +0.000 A 
ATOM     15  N   UNL     1      51.353   1.363  17.201  0.00  0.00    +0.000 N 
ATOM     16  C   UNL     1      50.223   2.014  16.762  0.00  0.00    +0.000 A 
ATOM     17  O   UNL     1      49.434   1.487  15.985  0.00  0.00    +0.000 OA
ATOM     18  C   UNL     1      50.086   3.366  17.278  0.00  0.00    +0.000 A 
ATOM     19  H   UNL     1      51.482   0.421  16.865  0.00  0.00    +0.000 HD
ENDBRANCH   8   9
BRANCH   8  20
ATOM     20  N   UNL     1      46.681   3.697  17.155  0.00  0.00    +0.000 NA
ATOM     21  H   UNL     1      45.978   3.208  16.603  0.00  0.00    +0.000 HD
ATOM     22  H   UNL     1      46.193   4.561  17.423  0.00  0.00    +0.000 HD
ENDBRANCH   8  20
ENDBRANCH   7   8
ENDBRANCH   1   7
BRANCH   4  23
ATOM     23  C   UNL     1      44.363   3.776  10.718  0.00  0.00    +0.000 C 
BRANCH  23  24
ATOM     24  N   UNL     1      45.109   2.947   9.808  0.00  0.00    +0.000 N 
ATOM     25  C   UNL     1      45.688   3.494   8.686  0.00  0.00    +0.000 C 
ATOM     26  O   UNL     1      45.603   4.681   8.394  0.00  0.00    +0.000 OA
ATOM     27  H   UNL     1      45.226   1.951   9.954  0.00  0.00    +0.000 HD
BRANCH  25  28
ATOM     28  C   UNL     1      46.415   2.522   7.866  0.00  0.00    +0.000 A 
ATOM     29  C   UNL     1      47.217   2.809   6.778  0.00  0.00    +0.000 A 
ATOM     30  N   UNL     1      47.680   1.604   6.334  0.00  0.00    +0.000 N 
ATOM     31  C   UNL     1      47.156   0.637   7.147  0.00  0.00    +0.000 A 
ATOM     32  N   UNL     1      46.391   1.152   8.083  0.00  0.00    +0.000 NA
ATOM     33  H   UNL     1      48.296   1.449   5.547  0.00  0.00    +0.000 HD
ENDBRANCH  25  28
ENDBRANCH  23  24
ENDBRANCH   4  23
TORSDOF 7
ENDMDL
MODEL 2
REMARK VINA RESULT:    -7.494      1.460      1.933
REMARK INTER + INTRA:         -11.290
REMARK INTER:                 -10.408
REMARK INTRA:                  -0.882
REMARK UNBOUND:                -0.948
REMARK  Name = 
REMARK  7 active torsions:
REMARK  status: ('A' for Active; 'I' for Inactive)
REMARK    1  A    between atoms: N_1  and  C_2
REMARK    2  A    between atoms: C_2  and  C_3
REMARK    3  A    between atoms: C_2  and  C_19
REMARK    4  A    between atoms: C_3  and  C_4
REMARK    5  A    between atoms: C_7  and  C_8
REMARK    6  A    between atoms: C_8  and  N_9
REMARK    7  A    between atoms: C_10  and  C_12
REMARK                            x       y       z     vdW  Elec       q    Type
REMARK                         _______ _______ _______ _____ _____    ______ ____
ROOT
ATOM      1  C   UNL     1      47.986   6.255  14.776  0.00  0.00    +0.000 A 
ATOM      2  C   UNL     1      47.883   7.414  14.013  0.00  0.00    +0.000 A 
ATOM      3  C   UNL     1      47.019   7.427  12.918  0.00  0.00    +0.000 A 
ATOM      4  C   UNL     1      46.269   6.290  12.612  0.00  0.00    +0.000 A 
ATOM      5  C   UNL     1      46.446   5.176  13.420  0.00  0.00    +0.000 A 
ATOM      6  N   UNL     1      47.284   5.131  14.483  0.00  0.00    +0.000 NA
ENDROOT
BRANCH   1   7
ATOM      7  C   UNL     1      48.890   6.199  15.987  0.00  0.00    +0.000 C 
BRANCH   7   8
ATOM      8  C   UNL     1      48.882   4.839  16.723  0.00  0.00    +0.000 C 
BRANCH   8   9
ATOM      9  C   UNL     1      50.204   4.531  17.404  0.00  0.00    +0.000 A 
ATOM     10  C   UNL     1      50.999   5.455  18.069  0.00  0.00    +0.000 A 
ATOM     11  S   UNL     1      52.430   4.787  18.712  0.00  0.00    +0.000 S 
ATOM     12  C   UNL     1      52.042   3.242  18.119  0.00  0.00    +0.000 A 
ATOM     13  N   UNL     1      52.870   2.182  18.326  0.00  0.00    +0.000 NA
ATOM     14  C   UNL     1      52.445   1.073  17.819  0.00  0.00    +0.000 A 
ATOM     15  N   UNL     1      51.274   0.928  17.113  0.00  0.00    +0.000 N 
ATOM     16  C   UNL     1      50.426   1.977  16.842  0.00  0.00    +0.000 A 
ATOM     17  O   UNL     1      49.430   1.838  16.141  0.00  0.00    +0.000 OA
ATOM     18  C   UNL     1      50.845   3.239  17.430  0.00  0.00    +0.000 A 
ATOM     19  H   UNL     1      51.016   0.035  16.722  0.00  0.00    +0.000 HD
ENDBRANCH   8   9
BRANCH   8  20
ATOM     20  N   UNL     1      47.797   4.727  17.715  0.00  0.00    +0.000 NA
ATOM     21  H   UNL     1      47.514   3.750  17.772  0.00  0.00    +0.000 HD
ATOM     22  H   UNL     1      46.972   5.174  17.293  0.00  0.00    +0.000 HD
ENDBRANCH   8  20
ENDBRANCH   7   8
ENDBRANCH   1   7
BRANCH   4  23
ATOM     23  C   UNL     1      45.303   6.257  11.467  0.00  0.00    +0.000 C 
BRANCH  23  24
ATOM     24  N   UNL     1      45.748   5.424  10.382  0.00  0.00    +0.000 N 
ATOM     25  C   UNL     1      44.903   4.486   9.835  0.00  0.00    +0.000 C 
ATOM     26  O   UNL     1      43.757   4.299  10.228  0.00  0.00    +0.000 OA
ATOM     27  H   UNL     1      46.682   5.492   9.993  0.00  0.00    +0.000 HD
BRANCH  25  28
ATOM     28  C   UNL     1      45.501   3.723   8.737  0.00  0.00    +0.000 A 
ATOM     29  C   UNL     1      45.618   2.348   8.666  0.00  0.00    +0.000 A 
ATOM     30  N   UNL     1      46.234   2.092   7.474  0.00  0.00    +0.000 N 
ATOM     31  C   UNL     1      46.471   3.295   6.867  0.00  0.00    +0.000 A 
ATOM     32  N   UNL     1      46.042   4.300   7.596  0.00  0.00    +0.000 NA
ATOM     33  H   UNL     1      46.474   1.182   7.105  0.00  0.00    +0.000 HD
ENDBRANCH  25  28
ENDBRANCH  23  24
ENDBRANCH   4  23
TORSDOF 7
ENDMDL
MODEL 3
REMARK VINA RESULT:    -7.487      1.574      2.154
REMARK INTER + INTRA:         -11.279
REMARK INTER:                 -10.757
REMARK INTRA:                  -0.522
REMARK UNBOUND:                -0.948
REMARK  Name = 
REMARK  7 active torsions:
REMARK  status: ('A' for Active; 'I' for Inactive)
REMARK    1  A    between atoms: N_1  and  C_2
REMARK    2  A    between atoms: C_2  and  C_3
REMARK    3  A    between atoms: C_2  and  C_19
REMARK    4  A    between atoms: C_3  and  C_4
REMARK    5  A    between atoms: C_7  and  C_8
REMARK    6  A    between atoms: C_8  and  N_9
REMARK    7  A    between atoms: C_10  and  C_12
REMARK                            x       y       z     vdW  Elec       q    Type
REMARK                         _______ _______ _______ _____ _____    ______ ____
ROOT
ATOM      1  C   UNL     1      46.614   4.597  14.086  0.00  0.00    +0.000 A 
ATOM      2  C   UNL     1      46.034   5.711  13.485  0.00  0.00    +0.000 A 
ATOM      3  C   UNL     1      45.227   5.529  12.362  0.00  0.00    +0.000 A 
ATOM      4  C   UNL     1      45.006   4.242  11.867  0.00  0.00    +0.000 A 
ATOM      5  C   UNL     1      45.635   3.193  12.523  0.00  0.00    +0.000 A 
ATOM      6  N   UNL     1      46.431   3.340  13.608  0.00  0.00    +0.000 NA
ENDROOT
BRANCH   1   7
ATOM      7  C   UNL     1      47.476   4.741  15.320  0.00  0.00    +0.000 C 
BRANCH   7   8
ATOM      8  C   UNL     1      47.482   3.495  16.238  0.00  0.00    +0.000 C 
BRANCH   8   9
ATOM      9  C   UNL     1      48.860   3.183  16.793  0.00  0.00    +0.000 A 
ATOM     10  C   UNL     1      49.571   2.013  16.566  0.00  0.00    +0.000 A 
ATOM     11  S   UNL     1      51.085   1.970  17.349  0.00  0.00    +0.000 S 
ATOM     12  C   UNL     1      50.841   3.510  18.026  0.00  0.00    +0.000 A 
ATOM     13  N   UNL     1      51.781   4.083  18.826  0.00  0.00    +0.000 NA
ATOM     14  C   UNL     1      51.458   5.253  19.266  0.00  0.00    +0.000 A 
ATOM     15  N   UNL     1      50.276   5.899  18.990  0.00  0.00    +0.000 N 
ATOM     16  C   UNL     1      49.279   5.345  18.221  0.00  0.00    +0.000 A 
ATOM     17  O   UNL     1      48.202   5.907  18.056  0.00  0.00    +0.000 OA
ATOM     18  C   UNL     1      49.617   4.043  17.670  0.00  0.00    +0.000 A 
ATOM     19  H   UNL     1      50.079   6.804  19.390  0.00  0.00    +0.000 HD
ENDBRANCH   8   9
BRANCH   8  20
ATOM     20  N   UNL     1      46.528   3.600  17.357  0.00  0.00    +0.000 NA
ATOM     21  H   UNL     1      46.807   2.938  18.079  0.00  0.00    +0.000 HD
ATOM     22  H   UNL     1      45.642   3.202  17.020  0.00  0.00    +0.000 HD
ENDBRANCH   8  20
ENDBRANCH   7   8
ENDBRANCH   1   7
BRANCH   4  23
ATOM     23  C   UNL     1      44.125   3.984  10.683  0.00  0.00    +0.000 C 
BRANCH  23  24
ATOM     24  N   UNL     1      44.811   3.323   9.605  0.00  0.00    +0.000 N 
ATOM     25  C   UNL     1      45.528   4.054   8.686  0.00  0.00    +0.000 C 
ATOM     26  O   UNL     1      45.620   5.276   8.719  0.00  0.00    +0.000 OA
ATOM     27  H   UNL     1      44.787   2.317   9.483  0.00  0.00    +0.000 HD
BRANCH  25  28
ATOM     28  C   UNL     1      46.172   3.236   7.656  0.00  0.00    +0.000 A 
ATOM     29  C   UNL     1      46.524   1.905   7.772  0.00  0.00    +0.000 A 
ATOM     30  N   UNL     1      47.089   1.568   6.575  0.00  0.00    +0.000 N 
ATOM     31  C   UNL     1      47.066   2.681   5.781  0.00  0.00    +0.000 A 
ATOM     32  N   UNL     1      46.519   3.705   6.397  0.00  0.00    +0.000 NA
ATOM     33  H   UNL     1      47.459   0.663   6.319  0.00  0.00    +0.000 HD
ENDBRANCH  25  28
ENDBRANCH  23  24
ENDBRANCH   4  23
TORSDOF 7
ENDMDL
MODEL 4
REMARK VINA RESULT:    -7.449      4.740      5.395
REMARK INTER + INTRA:         -11.227
REMARK INTER:                 -10.393
REMARK INTRA:                  -0.834
REMARK UNBOUND:                -0.948
REMARK  Name = 
REMARK  7 active torsions:
REMARK  status: ('A' for Active; 'I' for Inactive)
REMARK    1  A    between atoms: N_1  and  C_2
REMARK    2  A    between atoms: C_2  and  C_3
REMARK    3  A    between atoms: C_2  and  C_19
REMARK    4  A    between atoms: C_3  and  C_4
REMARK    5  A    between atoms: C_7  and  C_8
REMARK    6  A    between atoms: C_8  and  N_9
REMARK    7  A    between atoms: C_10  and  C_12
REMARK                            x       y       z     vdW  Elec       q    Type
REMARK                         _______ _______ _______ _____ _____    ______ ____
ROOT
ATOM      1  C   UNL     1      45.045   7.061  12.317  0.00  0.00    +0.000 A 
ATOM      2  C   UNL     1      43.933   6.965  11.485  0.00  0.00    +0.000 A 
ATOM      3  C   UNL     1      43.550   5.709  11.013  0.00  0.00    +0.000 A 
ATOM      4  C   UNL     1      44.276   4.576  11.385  0.00  0.00    +0.000 A 
ATOM      5  C   UNL     1      45.378   4.770  12.207  0.00  0.00    +0.000 A 
ATOM      6  N   UNL     1      45.778   5.976  12.673  0.00  0.00    +0.000 NA
ENDROOT
BRANCH   1   7
ATOM      7  C   UNL     1      45.484   8.396  12.875  0.00  0.00    +0.000 C 
BRANCH   7   8
ATOM      8  C   UNL     1      46.941   8.419  13.393  0.00  0.00    +0.000 C 
BRANCH   8   9
ATOM      9  C   UNL     1      47.863   9.249  12.518  0.00  0.00    +0.000 A 
ATOM     10  C   UNL     1      47.561  10.495  11.988  0.00  0.00    +0.000 A 
ATOM     11  S   UNL     1      48.811  11.153  11.033  0.00  0.00    +0.000 S 
ATOM     12  C   UNL     1      49.798   9.793  11.287  0.00  0.00    +0.000 A 
ATOM     13  N   UNL     1      51.038   9.710  10.733  0.00  0.00    +0.000 NA
ATOM     14  C   UNL     1      51.670   8.620  11.013  0.00  0.00    +0.000 A 
ATOM     15  N   UNL     1      51.173   7.599  11.787  0.00  0.00    +0.000 N 
ATOM     16  C   UNL     1      49.911   7.617  12.334  0.00  0.00    +0.000 A 
ATOM     17  O   UNL     1      49.460   6.659  12.953  0.00  0.00    +0.000 OA
ATOM     18  C   UNL     1      49.177   8.845  12.079  0.00  0.00    +0.000 A 
ATOM     19  H   UNL     1      51.714   6.762  11.944  0.00  0.00    +0.000 HD
ENDBRANCH   8   9
BRANCH   8  20
ATOM     20  N   UNL     1      47.049   8.894  14.785  0.00  0.00    +0.000 NA
ATOM     21  H   UNL     1      46.908   9.903  14.792  0.00  0.00    +0.000 HD
ATOM     22  H   UNL     1      48.040   8.806  15.045  0.00  0.00    +0.000 HD
ENDBRANCH   8  20
ENDBRANCH   7   8
ENDBRANCH   1   7
BRANCH   4  23
ATOM     23  C   UNL     1      43.893   3.200  10.933  0.00  0.00    +0.000 C 
BRANCH  23  24
ATOM     24  N   UNL     1      44.898   2.580  10.111  0.00  0.00    +0.000 N 
ATOM     25  C   UNL     1      45.041   2.947   8.792  0.00  0.00    +0.000 C 
ATOM     26  O   UNL     1      44.341   3.793   8.248  0.00  0.00    +0.000 OA
ATOM     27  H   UNL     1      45.519   1.860  10.464  0.00  0.00    +0.000 HD
BRANCH  25  28
ATOM     28  C   UNL     1      46.109   2.229   8.093  0.00  0.00    +0.000 A 
ATOM     29  C   UNL     1      47.082   2.791   7.289  0.00  0.00    +0.000 A 
ATOM     30  N   UNL     1      47.851   1.748   6.858  0.00  0.00    +0.000 N 
ATOM     31  C   UNL     1      47.334   0.604   7.400  0.00  0.00    +0.000 A 
ATOM     32  N   UNL     1      46.286   0.853   8.152  0.00  0.00    +0.000 NA
ATOM     33  H   UNL     1      48.655   1.807   6.248  0.00  0.00    +0.000 HD
ENDBRANCH  25  28
ENDBRANCH  23  24
ENDBRANCH   4  23
TORSDOF 7
ENDMDL
MODEL 5
REMARK VINA RESULT:    -7.213      2.694      8.828
REMARK INTER + INTRA:         -10.902
REMARK INTER:                 -10.109
REMARK INTRA:                  -0.793
REMARK UNBOUND:                -0.948
REMARK  Name = 
REMARK  7 active torsions:
REMARK  status: ('A' for Active; 'I' for Inactive)
REMARK    1  A    between atoms: N_1  and  C_2
REMARK    2  A    between atoms: C_2  and  C_3
REMARK    3  A    between atoms: C_2  and  C_19
REMARK    4  A    between atoms: C_3  and  C_4
REMARK    5  A    between atoms: C_7  and  C_8
REMARK    6  A    between atoms: C_8  and  N_9
REMARK    7  A    between atoms: C_10  and  C_12
REMARK                            x       y       z     vdW  Elec       q    Type
REMARK                         _______ _______ _______ _____ _____    ______ ____
ROOT
ATOM      1  C   UNL     1      47.488   6.091  13.569  0.00  0.00    +0.000 A 
ATOM      2  C   UNL     1      48.285   7.039  14.203  0.00  0.00    +0.000 A 
ATOM      3  C   UNL     1      48.694   6.807  15.516  0.00  0.00    +0.000 A 
ATOM      4  C   UNL     1      48.310   5.633  16.166  0.00  0.00    +0.000 A 
ATOM      5  C   UNL     1      47.504   4.751  15.460  0.00  0.00    +0.000 A 
ATOM      6  N   UNL     1      47.084   4.953  14.189  0.00  0.00    +0.000 NA
ENDROOT
BRANCH   1   7
ATOM      7  C   UNL     1      47.041   6.285  12.137  0.00  0.00    +0.000 C 
BRANCH   7   8
ATOM      8  C   UNL     1      45.508   6.402  11.962  0.00  0.00    +0.000 C 
BRANCH   8   9
ATOM      9  C   UNL     1      44.848   5.069  11.659  0.00  0.00    +0.000 A 
ATOM     10  C   UNL     1      44.118   4.310  12.563  0.00  0.00    +0.000 A 
ATOM     11  S   UNL     1      43.521   2.854  11.908  0.00  0.00    +0.000 S 
ATOM     12  C   UNL     1      44.222   3.181  10.394  0.00  0.00    +0.000 A 
ATOM     13  N   UNL     1      44.089   2.313   9.355  0.00  0.00    +0.000 NA
ATOM     14  C   UNL     1      44.674   2.695   8.270  0.00  0.00    +0.000 A 
ATOM     15  N   UNL     1      45.391   3.859   8.130  0.00  0.00    +0.000 N 
ATOM     16  C   UNL     1      45.589   4.748   9.161  0.00  0.00    +0.000 A 
ATOM     17  O   UNL     1      46.300   5.739   9.034  0.00  0.00    +0.000 OA
ATOM     18  C   UNL     1      44.912   4.379  10.393  0.00  0.00    +0.000 A 
ATOM     19  H   UNL     1      45.844   4.083   7.257  0.00  0.00    +0.000 HD
ENDBRANCH   8   9
BRANCH   8  20
ATOM     20  N   UNL     1      44.841   7.012  13.126  0.00  0.00    +0.000 NA
ATOM     21  H   UNL     1      44.817   8.022  12.990  0.00  0.00    +0.000 HD
ATOM     22  H   UNL     1      45.488   6.909  13.918  0.00  0.00    +0.000 HD
ENDBRANCH   8  20
ENDBRANCH   7   8
ENDBRANCH   1   7
BRANCH   4  23
ATOM     23  C   UNL     1      48.745   5.318  17.565  0.00  0.00    +0.000 C 
BRANCH  23  24
ATOM     24  N   UNL     1      49.497   4.095  17.656  0.00  0.00    +0.000 N 
ATOM     25  C   UNL     1      50.862   4.104  17.477  0.00  0.00    +0.000 C 
ATOM     26  O   UNL     1      51.503   5.119  17.229  0.00  0.00    +0.000 OA
ATOM     27  H   UNL     1      49.058   3.200  17.845  0.00  0.00    +0.000 HD
BRANCH  25  28
ATOM     28  C   UNL     1      51.481   2.783  17.606  0.00  0.00    +0.000 A 
ATOM     29  C   UNL     1      50.892   1.571  17.300  0.00  0.00    +0.000 A 
ATOM     30  N   UNL     1      51.836   0.623  17.576  0.00  0.00    +0.000 N 
ATOM     31  C   UNL     1      52.949   1.272  18.034  0.00  0.00    +0.000 A 
ATOM     32  N   UNL     1      52.775   2.574  18.065  0.00  0.00    +0.000 NA
ATOM     33  H   UNL     1      51.734  -0.376  17.465  0.00  0.00    +0.000 HD
ENDBRANCH  25  28
ENDBRANCH  23  24
ENDBRANCH   4  23
TORSDOF 7
ENDMDL
MODEL 6
REMARK VINA RESULT:    -6.993      4.913      7.993
REMARK INTER + INTRA:         -10.598
REMARK INTER:                  -9.770
REMARK INTRA:                  -0.828
REMARK UNBOUND:                -0.948
REMARK  Name = 
REMARK  7 active torsions:
REMARK  status: ('A' for Active; 'I' for Inactive)
REMARK    1  A    between atoms: N_1  and  C_2
REMARK    2  A    between atoms: C_2  and  C_3
REMARK    3  A    between atoms: C_2  and  C_19
REMARK    4  A    between atoms: C_3  and  C_4
REMARK    5  A    between atoms: C_7  and  C_8
REMARK    6  A    between atoms: C_8  and  N_9
REMARK    7  A    between atoms: C_10  and  C_12
REMARK                            x       y       z     vdW  Elec       q    Type
REMARK                         _______ _______ _______ _____ _____    ______ ____
ROOT
ATOM      1  C   UNL     1      46.726   7.352  12.603  0.00  0.00    +0.000 A 
ATOM      2  C   UNL     1      47.084   8.623  12.164  0.00  0.00    +0.000 A 
ATOM      3  C   UNL     1      48.437   8.948  12.072  0.00  0.00    +0.000 A 
ATOM      4  C   UNL     1      49.404   7.999  12.409  0.00  0.00    +0.000 A 
ATOM      5  C   UNL     1      48.954   6.763  12.849  0.00  0.00    +0.000 A 
ATOM      6  N   UNL     1      47.648   6.421  12.957  0.00  0.00    +0.000 NA
ENDROOT
BRANCH   1   7
ATOM      7  C   UNL     1      45.273   6.942  12.695  0.00  0.00    +0.000 C 
BRANCH   7   8
ATOM      8  C   UNL     1      44.627   6.583  11.336  0.00  0.00    +0.000 C 
BRANCH   8   9
ATOM      9  C   UNL     1      44.290   5.108  11.216  0.00  0.00    +0.000 A 
ATOM     10  C   UNL     1      43.560   4.373  12.140  0.00  0.00    +0.000 A 
ATOM     11  S   UNL     1      43.372   2.733  11.714  0.00  0.00    +0.000 S 
ATOM     12  C   UNL     1      44.266   2.944  10.283  0.00  0.00    +0.000 A 
ATOM     13  N   UNL     1      44.487   1.905   9.433  0.00  0.00    +0.000 NA
ATOM     14  C   UNL     1      45.180   2.216   8.389  0.00  0.00    +0.000 A 
ATOM     15  N   UNL     1      45.684   3.467   8.122  0.00  0.00    +0.000 N 
ATOM     16  C   UNL     1      45.522   4.538   8.970  0.00  0.00    +0.000 A 
ATOM     17  O   UNL     1      46.049   5.623   8.749  0.00  0.00    +0.000 OA
ATOM     18  C   UNL     1      44.712   4.244  10.140  0.00  0.00    +0.000 A 
ATOM     19  H   UNL     1      46.240   3.632   7.297  0.00  0.00    +0.000 HD
ENDBRANCH   8   9
BRANCH   8  20
ATOM     20  N   UNL     1      43.416   7.374  11.047  0.00  0.00    +0.000 NA
ATOM     21  H   UNL     1      43.419   8.196  11.650  0.00  0.00    +0.000 HD
ATOM     22  H   UNL     1      42.622   6.832  11.412  0.00  0.00    +0.000 HD
ENDBRANCH   8  20
ENDBRANCH   7   8
ENDBRANCH   1   7
BRANCH   4  23
ATOM     23  C   UNL     1      50.871   8.284  12.301  0.00  0.00    +0.000 C 
BRANCH  23  24
ATOM     24  N   UNL     1      51.549   7.397  11.392  0.00  0.00    +0.000 N 
ATOM     25  C   UNL     1      52.121   7.888  10.240  0.00  0.00    +0.000 C 
ATOM     26  O   UNL     1      52.086   9.070   9.921  0.00  0.00    +0.000 OA
ATOM     27  H   UNL     1      51.622   6.400  11.560  0.00  0.00    +0.000 HD
BRANCH  25  28
ATOM     28  C   UNL     1      52.776   6.862   9.426  0.00  0.00    +0.000 A 
ATOM     29  C   UNL     1      53.458   5.757   9.897  0.00  0.00    +0.000 A 
ATOM     30  N   UNL     1      53.892   5.091   8.786  0.00  0.00    +0.000 N 
ATOM     31  C   UNL     1      53.472   5.797   7.693  0.00  0.00    +0.000 A 
ATOM     32  N   UNL     1      52.794   6.868   8.037  0.00  0.00    +0.000 NA
ATOM     33  H   UNL     1      54.429   4.235   8.770  0.00  0.00    +0.000 HD
ENDBRANCH  25  28
ENDBRANCH  23  24
ENDBRANCH   4  23
TORSDOF 7
ENDMDL
MODEL 7
REMARK VINA RESULT:    -6.672      2.808      3.738
REMARK INTER + INTRA:         -10.155
REMARK INTER:                  -9.421
REMARK INTRA:                  -0.734
REMARK UNBOUND:                -0.948
REMARK  Name = 
REMARK  7 active torsions:
REMARK  status: ('A' for Active; 'I' for Inactive)
REMARK    1  A    between atoms: N_1  and  C_2
REMARK    2  A    between atoms: C_2  and  C_3
REMARK    3  A    between atoms: C_2  and  C_19
REMARK    4  A    between atoms: C_3  and  C_4
REMARK    5  A    between atoms: C_7  and  C_8
REMARK    6  A    between atoms: C_8  and  N_9
REMARK    7  A    between atoms: C_10  and  C_12
REMARK                            x       y       z     vdW  Elec       q    Type
REMARK                         _______ _______ _______ _____ _____    ______ ____
ROOT
ATOM      1  C   UNL     1      46.817   4.658  14.141  0.00  0.00    +0.000 A 
ATOM      2  C   UNL     1      46.766   5.867  13.454  0.00  0.00    +0.000 A 
ATOM      3  C   UNL     1      46.055   5.933  12.256  0.00  0.00    +0.000 A 
ATOM      4  C   UNL     1      45.402   4.798  11.773  0.00  0.00    +0.000 A 
ATOM      5  C   UNL     1      45.517   3.633  12.519  0.00  0.00    +0.000 A 
ATOM      6  N   UNL     1      46.208   3.536  13.679  0.00  0.00    +0.000 NA
ENDROOT
BRANCH   1   7
ATOM      7  C   UNL     1      47.554   4.542  15.457  0.00  0.00    +0.000 C 
BRANCH   7   8
ATOM      8  C   UNL     1      48.160   5.872  15.964  0.00  0.00    +0.000 C 
BRANCH   8   9
ATOM      9  C   UNL     1      48.274   5.927  17.477  0.00  0.00    +0.000 A 
ATOM     10  C   UNL     1      48.275   4.827  18.322  0.00  0.00    +0.000 A 
ATOM     11  S   UNL     1      48.403   5.234  19.973  0.00  0.00    +0.000 S 
ATOM     12  C   UNL     1      48.455   6.895  19.617  0.00  0.00    +0.000 A 
ATOM     13  N   UNL     1      48.562   7.823  20.607  0.00  0.00    +0.000 NA
ATOM     14  C   UNL     1      48.589   9.043  20.186  0.00  0.00    +0.000 A 
ATOM     15  N   UNL     1      48.508   9.423  18.868  0.00  0.00    +0.000 N 
ATOM     16  C   UNL     1      48.357   8.526  17.836  0.00  0.00    +0.000 A 
ATOM     17  O   UNL     1      48.205   8.894  16.676  0.00  0.00    +0.000 OA
ATOM     18  C   UNL     1      48.363   7.136  18.260  0.00  0.00    +0.000 A 
ATOM     19  H   UNL     1      48.510  10.399  18.612  0.00  0.00    +0.000 HD
ENDBRANCH   8   9
BRANCH   8  20
ATOM     20  N   UNL     1      49.480   6.164  15.375  0.00  0.00    +0.000 NA
ATOM     21  H   UNL     1      49.608   5.563  14.562  0.00  0.00    +0.000 HD
ATOM     22  H   UNL     1      50.179   5.800  16.034  0.00  0.00    +0.000 HD
ENDBRANCH   8  20
ENDBRANCH   7   8
ENDBRANCH   1   7
BRANCH   4  23
ATOM     23  C   UNL     1      44.598   4.818  10.509  0.00  0.00    +0.000 C 
BRANCH  23  24
ATOM     24  N   UNL     1      45.336   4.346   9.367  0.00  0.00    +0.000 N 
ATOM     25  C   UNL     1      45.204   3.043   8.945  0.00  0.00    +0.000 C 
ATOM     26  O   UNL     1      44.480   2.224   9.500  0.00  0.00    +0.000 OA
ATOM     27  H   UNL     1      45.970   4.942   8.847  0.00  0.00    +0.000 HD
BRANCH  25  28
ATOM     28  C   UNL     1      46.016   2.720   7.769  0.00  0.00    +0.000 A 
ATOM     29  C   UNL     1      46.742   1.562   7.570  0.00  0.00    +0.000 A 
ATOM     30  N   UNL     1      47.332   1.702   6.347  0.00  0.00    +0.000 N 
ATOM     31  C   UNL     1      46.957   2.919   5.847  0.00  0.00    +0.000 A 
ATOM     32  N   UNL     1      46.163   3.560   6.674  0.00  0.00    +0.000 NA
ATOM     33  H   UNL     1      47.937   1.033   5.891  0.00  0.00    +0.000 HD
ENDBRANCH  25  28
ENDBRANCH  23  24
ENDBRANCH   4  23
TORSDOF 7
ENDMDL
MODEL 8
REMARK VINA RESULT:    -6.607      3.675      8.919
REMARK INTER + INTRA:         -10.065
REMARK INTER:                  -9.213
REMARK INTRA:                  -0.852
REMARK UNBOUND:                -0.948
REMARK  Name = 
REMARK  7 active torsions:
REMARK  status: ('A' for Active; 'I' for Inactive)
REMARK    1  A    between atoms: N_1  and  C_2
REMARK    2  A    between atoms: C_2  and  C_3
REMARK    3  A    between atoms: C_2  and  C_19
REMARK    4  A    between atoms: C_3  and  C_4
REMARK    5  A    between atoms: C_7  and  C_8
REMARK    6  A    between atoms: C_8  and  N_9
REMARK    7  A    between atoms: C_10  and  C_12
REMARK                            x       y       z     vdW  Elec       q    Type
REMARK                         _______ _______ _______ _____ _____    ______ ____
ROOT
ATOM      1  C   UNL     1      49.034   6.690  15.990  0.00  0.00    +0.000 A 
ATOM      2  C   UNL     1      49.824   7.507  16.794  0.00  0.00    +0.000 A 
ATOM      3  C   UNL     1      50.466   6.948  17.899  0.00  0.00    +0.000 A 
ATOM      4  C   UNL     1      50.316   5.588  18.175  0.00  0.00    +0.000 A 
ATOM      5  C   UNL     1      49.500   4.854  17.325  0.00  0.00    +0.000 A 
ATOM      6  N   UNL     1      48.857   5.370  16.252  0.00  0.00    +0.000 NA
ENDROOT
BRANCH   1   7
ATOM      7  C   UNL     1      48.339   7.243  14.766  0.00  0.00    +0.000 C 
BRANCH   7   8
ATOM      8  C   UNL     1      48.355   6.295  13.544  0.00  0.00    +0.000 C 
BRANCH   8   9
ATOM      9  C   UNL     1      47.026   6.258  12.811  0.00  0.00    +0.000 A 
ATOM     10  C   UNL     1      46.417   7.344  12.198  0.00  0.00    +0.000 A 
ATOM     11  S   UNL     1      44.919   6.969  11.473  0.00  0.00    +0.000 S 
ATOM     12  C   UNL     1      45.028   5.344  11.959  0.00  0.00    +0.000 A 
ATOM     13  N   UNL     1      44.047   4.452  11.655  0.00  0.00    +0.000 NA
ATOM     14  C   UNL     1      44.266   3.256  12.088  0.00  0.00    +0.000 A 
ATOM     15  N   UNL     1      45.371   2.871  12.809  0.00  0.00    +0.000 N 
ATOM     16  C   UNL     1      46.369   3.744  13.178  0.00  0.00    +0.000 A 
ATOM     17  O   UNL     1      47.304   3.394  13.889  0.00  0.00    +0.000 OA
ATOM     18  C   UNL     1      46.184   5.094  12.675  0.00  0.00    +0.000 A 
ATOM     19  H   UNL     1      45.466   1.922  13.139  0.00  0.00    +0.000 HD
ENDBRANCH   8   9
BRANCH   8  20
ATOM     20  N   UNL     1      49.423   6.616  12.580  0.00  0.00    +0.000 NA
ATOM     21  H   UNL     1      50.163   5.922  12.677  0.00  0.00    +0.000 HD
ATOM     22  H   UNL     1      49.876   7.473  12.924  0.00  0.00    +0.000 HD
ENDBRANCH   8  20
ENDBRANCH   7   8
ENDBRANCH   1   7
BRANCH   4  23
ATOM     23  C   UNL     1      51.006   4.928  19.329  0.00  0.00    +0.000 C 
BRANCH  23  24
ATOM     24  N   UNL     1      51.470   3.601  19.023  0.00  0.00    +0.000 N 
ATOM     25  C   UNL     1      52.755   3.400  18.575  0.00  0.00    +0.000 C 
ATOM     26  O   UNL     1      53.560   4.309  18.406  0.00  0.00    +0.000 OA
ATOM     27  H   UNL     1      50.877   2.784  19.118  0.00  0.00    +0.000 HD
BRANCH  25  28
ATOM     28  C   UNL     1      53.074   1.995  18.312  0.00  0.00    +0.000 A 
ATOM     29  C   UNL     1      52.381   1.142  17.475  0.00  0.00    +0.000 A 
ATOM     30  N   UNL     1      53.036  -0.054  17.544  0.00  0.00    +0.000 N 
ATOM     31  C   UNL     1      54.087   0.101  18.405  0.00  0.00    +0.000 A 
ATOM     32  N   UNL     1      54.144   1.322  18.886  0.00  0.00    +0.000 NA
ATOM     33  H   UNL     1      52.790  -0.903  17.052  0.00  0.00    +0.000 HD
ENDBRANCH  25  28
ENDBRANCH  23  24
ENDBRANCH   4  23
TORSDOF 7
ENDMDL
MODEL 9
REMARK VINA RESULT:    -6.186      2.706      3.564
REMARK INTER + INTRA:          -9.484
REMARK INTER:                  -8.338
REMARK INTRA:                  -1.146
REMARK UNBOUND:                -0.948
REMARK  Name = 
REMARK  7 active torsions:
REMARK  status: ('A' for Active; 'I' for Inactive)
REMARK    1  A    between atoms: N_1  and  C_2
REMARK    2  A    between atoms: C_2  and  C_3
REMARK    3  A    between atoms: C_2  and  C_19
REMARK    4  A    between atoms: C_3  and  C_4
REMARK    5  A    between atoms: C_7  and  C_8
REMARK    6  A    between atoms: C_8  and  N_9
REMARK    7  A    between atoms: C_10  and  C_12
REMARK                            x       y       z     vdW  Elec       q    Type
REMARK                         _______ _______ _______ _____ _____    ______ ____
ROOT
ATOM      1  C   UNL     1      48.486   7.736  14.010  0.00  0.00    +0.000 A 
ATOM      2  C   UNL     1      47.446   8.644  14.183  0.00  0.00    +0.000 A 
ATOM      3  C   UNL     1      46.332   8.561  13.347  0.00  0.00    +0.000 A 
ATOM      4  C   UNL     1      46.274   7.571  12.364  0.00  0.00    +0.000 A 
ATOM      5  C   UNL     1      47.363   6.718  12.257  0.00  0.00    +0.000 A 
ATOM      6  N   UNL     1      48.460   6.780  13.047  0.00  0.00    +0.000 NA
ENDROOT
BRANCH   1   7
ATOM      7  C   UNL     1      49.703   7.768  14.908  0.00  0.00    +0.000 C 
BRANCH   7   8
ATOM      8  C   UNL     1      49.778   6.598  15.918  0.00  0.00    +0.000 C 
BRANCH   8   9
ATOM      9  C   UNL     1      49.753   7.066  17.362  0.00  0.00    +0.000 A 
ATOM     10  C   UNL     1      49.488   8.362  17.782  0.00  0.00    +0.000 A 
ATOM     11  S   UNL     1      49.552   8.558  19.475  0.00  0.00    +0.000 S 
ATOM     12  C   UNL     1      49.945   6.920  19.706  0.00  0.00    +0.000 A 
ATOM     13  N   UNL     1      50.143   6.414  20.953  0.00  0.00    +0.000 NA
ATOM     14  C   UNL     1      50.433   5.156  20.973  0.00  0.00    +0.000 A 
ATOM     15  N   UNL     1      50.556   4.359  19.860  0.00  0.00    +0.000 N 
ATOM     16  C   UNL     1      50.406   4.833  18.577  0.00  0.00    +0.000 A 
ATOM     17  O   UNL     1      50.601   4.121  17.598  0.00  0.00    +0.000 OA
ATOM     18  C   UNL     1      50.037   6.237  18.508  0.00  0.00    +0.000 A 
ATOM     19  H   UNL     1      50.811   3.387  19.949  0.00  0.00    +0.000 HD
ENDBRANCH   8   9
BRANCH   8  20
ATOM     20  N   UNL     1      48.713   5.599  15.721  0.00  0.00    +0.000 NA
ATOM     21  H   UNL     1      49.135   4.749  15.348  0.00  0.00    +0.000 HD
ATOM     22  H   UNL     1      48.146   5.931  14.930  0.00  0.00    +0.000 HD
ENDBRANCH   8  20
ENDBRANCH   7   8
ENDBRANCH   1   7
BRANCH   4  23
ATOM     23  C   UNL     1      45.090   7.417  11.458  0.00  0.00    +0.000 C 
BRANCH  23  24
ATOM     24  N   UNL     1      45.203   6.286  10.576  0.00  0.00    +0.000 N 
ATOM     25  C   UNL     1      44.335   5.224  10.692  0.00  0.00    +0.000 C 
ATOM     26  O   UNL     1      43.444   5.171  11.532  0.00  0.00    +0.000 OA
ATOM     27  H   UNL     1      45.915   6.228   9.856  0.00  0.00    +0.000 HD
BRANCH  25  28
ATOM     28  C   UNL     1      44.577   4.156   9.720  0.00  0.00    +0.000 A 
ATOM     29  C   UNL     1      44.459   2.799   9.950  0.00  0.00    +0.000 A 
ATOM     30  N   UNL     1      44.779   2.196   8.767  0.00  0.00    +0.000 N 
ATOM     31  C   UNL     1      45.078   3.183   7.870  0.00  0.00    +0.000 A 
ATOM     32  N   UNL     1      44.966   4.377   8.405  0.00  0.00    +0.000 NA
ATOM     33  H   UNL     1      44.795   1.202   8.585  0.00  0.00    +0.000 HD
ENDBRANCH  25  28
ENDBRANCH  23  24
ENDBRANCH   4  23
TORSDOF 7
ENDMDL
