MODEL 1
REMARK VINA RESULT:    -8.340      0.000      0.000
REMARK INTER + INTRA:         -11.921
REMARK INTER:                 -11.265
REMARK INTRA:                  -0.656
REMARK UNBOUND:                -0.656
REMARK  Name = 
REMARK  7 active torsions:
REMARK  status: ('A' for Active; 'I' for Inactive)
REMARK    1  A    between atoms: C_1  and  C_2
REMARK    2  A    between atoms: C_2  and  C_3
REMARK    3  A    between atoms: C_6  and  C_7
REMARK    4  A    between atoms: C_7  and  C_8
REMARK    5  A    between atoms: C_11  and  C_12
REMARK    6  A    between atoms: C_12  and  N_13
REMARK    7  A    between atoms: C_14  and  C_16
REMARK                            x       y       z     vdW  Elec       q    Type
REMARK                         _______ _______ _______ _____ _____    ______ ____
ROOT
ATOM      1  C   UNL     1      44.604   5.614  11.255  0.00  0.00    +0.000 A 
ATOM      2  C   UNL     1      45.745   5.065  11.857  0.00  0.00    +0.000 A 
ATOM      3  C   UNL     1      46.623   5.866  12.591  0.00  0.00    +0.000 A 
ATOM      4  C   UNL     1      46.393   7.241  12.719  0.00  0.00    +0.000 A 
ATOM      5  C   UNL     1      45.296   7.803  12.052  0.00  0.00    +0.000 A 
ATOM      6  C   UNL     1      44.401   6.997  11.340  0.00  0.00    +0.000 A 
ENDROOT
BRANCH   1   7
ATOM      7  C   UNL     1      43.600   4.715  10.567  0.00  0.00    +0.000 C 
BRANCH   7  11
ATOM      8  C   UNL     1      46.448   2.658   7.976  0.00  0.00    +0.000 C 
ATOM      9  C   UNL     1      45.321   1.809   8.582  0.00  0.00    +0.000 C 
ATOM     10  C   UNL     1      44.632   2.508   9.749  0.00  0.00    +0.000 C 
ATOM     11  C   UNL     1      44.171   3.924   9.366  0.00  0.00    +0.000 C 
ATOM     12  C   UNL     1      45.353   4.692   8.749  0.00  0.00    +0.000 C 
ATOM     13  N   UNL     1      45.938   3.985   7.606  0.00  0.00    +0.000 NA
ATOM     14  H   UNL     1      46.702   4.548   7.230  0.00  0.00    +0.000 HD
BRANCH   8  16
ATOM     15  C   UNL     1      47.059   2.757   5.477  0.00  0.00    +0.000 C 
ATOM     16  C   UNL     1      47.032   1.926   6.752  0.00  0.00    +0.000 C 
ENDBRANCH   8  16
ENDBRANCH   7  11
ENDBRANCH   1   7
BRANCH   4  17
ATOM     17  C   UNL     1      47.312   8.101  13.548  0.00  0.00    +0.000 C 
BRANCH  17  18
ATOM     18  N   UNL     1      47.664   7.462  14.791  0.00  0.00    +0.000 N 
ATOM     19  C   UNL     1      48.895   6.879  14.958  0.00  0.00    +0.000 C 
ATOM     20  O   UNL     1      49.755   6.914  14.082  0.00  0.00    +0.000 OA
ATOM     21  H   UNL     1      46.906   7.230  15.425  0.00  0.00    +0.000 HD
BRANCH  19  22
ATOM     22  C   UNL     1      49.162   6.261  16.263  0.00  0.00    +0.000 A 
ATOM     23  C   UNL     1      50.149   6.792  17.083  0.00  0.00    +0.000 A 
ATOM     24  S   UNL     1      50.318   5.974  18.569  0.00  0.00    +0.000 S 
ATOM     25  C   UNL     1      49.112   4.852  18.148  0.00  0.00    +0.000 A 
ATOM     26  N   UNL     1      48.781   3.833  18.991  0.00  0.00    +0.000 NA
ATOM     27  C   UNL     1      47.869   3.037  18.534  0.00  0.00    +0.000 A 
ATOM     28  N   UNL     1      47.253   3.177  17.317  0.00  0.00    +0.000 N 
ATOM     29  C   UNL     1      47.526   4.210  16.451  0.00  0.00    +0.000 A 
ATOM     30  O   UNL     1      46.914   4.339  15.399  0.00  0.00    +0.000 OA
ATOM     31  C   UNL     1      48.563   5.117  16.907  0.00  0.00    +0.000 A 
ATOM     32  H   UNL     1      46.534   2.533  17.027  0.00  0.00    +0.000 HD
ENDBRANCH  19  22
ENDBRANCH  17  18
ENDBRANCH   4  17
TORSDOF 6
ENDMDL
MODEL 2
REMARK VINA RESULT:    -8.263      1.582      1.988
REMARK INTER + INTRA:         -11.818
REMARK INTER:                 -11.290
REMARK INTRA:                  -0.528
REMARK UNBOUND:                -0.656
REMARK  Name = 
REMARK  7 active torsions:
REMARK  status: ('A' for Active; 'I' for Inactive)
REMARK    1  A    between atoms: C_1  and  C_2
REMARK    2  A    between atoms: C_2  and  C_3
REMARK    3  A    between atoms: C_6  and  C_7
REMARK    4  A    between atoms: C_7  and  C_8
REMARK    5  A    between atoms: C_11  and  C_12
REMARK    6  A    between atoms: C_12  and  N_13
REMARK    7  A    between atoms: C_14  and  C_16
REMARK                            x       y       z     vdW  Elec       q    Type
REMARK                         _______ _______ _______ _____ _____    ______ ____
ROOT
ATOM      1  C   UNL     1      44.952   5.287  11.573  0.00  0.00    +0.000 A 
ATOM      2  C   UNL     1      45.514   6.546  11.320  0.00  0.00    +0.000 A 
ATOM      3  C   UNL     1      46.617   6.998  12.050  0.00  0.00    +0.000 A 
ATOM      4  C   UNL     1      47.166   6.210  13.068  0.00  0.00    +0.000 A 
ATOM      5  C   UNL     1      46.556   4.985  13.373  0.00  0.00    +0.000 A 
ATOM      6  C   UNL     1      45.469   4.521  12.623  0.00  0.00    +0.000 A 
ENDROOT
BRANCH   1   7
ATOM      7  C   UNL     1      43.838   4.763  10.693  0.00  0.00    +0.000 C 
BRANCH   7  11
ATOM      8  C   UNL     1      46.489   2.668   7.930  0.00  0.00    +0.000 C 
ATOM      9  C   UNL     1      45.378   1.838   8.589  0.00  0.00    +0.000 C 
ATOM     10  C   UNL     1      44.771   2.541   9.800  0.00  0.00    +0.000 C 
ATOM     11  C   UNL     1      44.323   3.971   9.455  0.00  0.00    +0.000 C 
ATOM     12  C   UNL     1      45.487   4.718   8.780  0.00  0.00    +0.000 C 
ATOM     13  N   UNL     1      45.991   4.010   7.601  0.00  0.00    +0.000 NA
ATOM     14  H   UNL     1      46.746   4.559   7.188  0.00  0.00    +0.000 HD
BRANCH   8  16
ATOM     15  C   UNL     1      46.997   2.789   5.408  0.00  0.00    +0.000 C 
ATOM     16  C   UNL     1      46.988   1.935   6.669  0.00  0.00    +0.000 C 
ENDBRANCH   8  16
ENDBRANCH   7  11
ENDBRANCH   1   7
BRANCH   4  17
ATOM     17  C   UNL     1      48.383   6.672  13.827  0.00  0.00    +0.000 C 
BRANCH  17  18
ATOM     18  N   UNL     1      48.099   6.864  15.226  0.00  0.00    +0.000 N 
ATOM     19  C   UNL     1      49.047   6.590  16.180  0.00  0.00    +0.000 C 
ATOM     20  O   UNL     1      50.178   6.215  15.884  0.00  0.00    +0.000 OA
ATOM     21  H   UNL     1      47.124   6.952  15.495  0.00  0.00    +0.000 HD
BRANCH  19  22
ATOM     22  C   UNL     1      48.665   6.827  17.578  0.00  0.00    +0.000 A 
ATOM     23  C   UNL     1      48.341   8.112  17.992  0.00  0.00    +0.000 A 
ATOM     24  S   UNL     1      47.899   8.212  19.636  0.00  0.00    +0.000 S 
ATOM     25  C   UNL     1      48.173   6.550  19.864  0.00  0.00    +0.000 A 
ATOM     26  N   UNL     1      48.008   5.977  21.089  0.00  0.00    +0.000 NA
ATOM     27  C   UNL     1      48.278   4.712  21.128  0.00  0.00    +0.000 A 
ATOM     28  N   UNL     1      48.685   3.970  20.050  0.00  0.00    +0.000 N 
ATOM     29  C   UNL     1      48.828   4.496  18.787  0.00  0.00    +0.000 A 
ATOM     30  O   UNL     1      49.135   3.792  17.834  0.00  0.00    +0.000 OA
ATOM     31  C   UNL     1      48.563   5.920  18.696  0.00  0.00    +0.000 A 
ATOM     32  H   UNL     1      48.861   2.981  20.142  0.00  0.00    +0.000 HD
ENDBRANCH  19  22
ENDBRANCH  17  18
ENDBRANCH   4  17
TORSDOF 6
ENDMDL
MODEL 3
REMARK VINA RESULT:    -8.027      1.872      2.238
REMARK INTER + INTRA:         -11.499
REMARK INTER:                 -10.650
REMARK INTRA:                  -0.848
REMARK UNBOUND:                -0.656
REMARK  Name = 
REMARK  7 active torsions:
REMARK  status: ('A' for Active; 'I' for Inactive)
REMARK    1  A    between atoms: C_1  and  C_2
REMARK    2  A    between atoms: C_2  and  C_3
REMARK    3  A    between atoms: C_6  and  C_7
REMARK    4  A    between atoms: C_7  and  C_8
REMARK    5  A    between atoms: C_11  and  C_12
REMARK    6  A    between atoms: C_12  and  N_13
REMARK    7  A    between atoms: C_14  and  C_16
REMARK                            x       y       z     vdW  Elec       q    Type
REMARK                         _______ _______ _______ _____ _____    ______ ____
ROOT
ATOM      1  C   UNL     1      45.006   5.494  11.440  0.00  0.00    +0.000 A 
ATOM      2  C   UNL     1      45.792   4.748  12.329  0.00  0.00    +0.000 A 
ATOM      3  C   UNL     1      46.757   5.370  13.126  0.00  0.00    +0.000 A 
ATOM      4  C   UNL     1      46.975   6.749  13.033  0.00  0.00    +0.000 A 
ATOM      5  C   UNL     1      46.244   7.482  12.088  0.00  0.00    +0.000 A 
ATOM      6  C   UNL     1      45.259   6.865  11.310  0.00  0.00    +0.000 A 
ENDROOT
BRANCH   1   7
ATOM      7  C   UNL     1      43.884   4.827  10.674  0.00  0.00    +0.000 C 
BRANCH   7  11
ATOM      8  C   UNL     1      46.475   2.652   7.915  0.00  0.00    +0.000 C 
ATOM      9  C   UNL     1      45.329   1.860   8.562  0.00  0.00    +0.000 C 
ATOM     10  C   UNL     1      44.741   2.578   9.773  0.00  0.00    +0.000 C 
ATOM     11  C   UNL     1      44.348   4.025   9.434  0.00  0.00    +0.000 C 
ATOM     12  C   UNL     1      45.543   4.732   8.771  0.00  0.00    +0.000 C 
ATOM     13  N   UNL     1      46.029   4.013   7.590  0.00  0.00    +0.000 NA
ATOM     14  H   UNL     1      46.806   4.536   7.186  0.00  0.00    +0.000 HD
BRANCH   8  16
ATOM     15  C   UNL     1      46.993   2.766   5.395  0.00  0.00    +0.000 C 
ATOM     16  C   UNL     1      46.954   1.908   6.653  0.00  0.00    +0.000 C 
ENDBRANCH   8  16
ENDBRANCH   7  11
ENDBRANCH   1   7
BRANCH   4  17
ATOM     17  C   UNL     1      47.982   7.430  13.924  0.00  0.00    +0.000 C 
BRANCH  17  18
ATOM     18  N   UNL     1      47.918   6.938  15.276  0.00  0.00    +0.000 N 
ATOM     19  C   UNL     1      49.051   6.516  15.925  0.00  0.00    +0.000 C 
ATOM     20  O   UNL     1      50.161   6.580  15.403  0.00  0.00    +0.000 OA
ATOM     21  H   UNL     1      47.005   6.672  15.631  0.00  0.00    +0.000 HD
BRANCH  19  22
ATOM     22  C   UNL     1      48.885   6.040  17.304  0.00  0.00    +0.000 A 
ATOM     23  C   UNL     1      49.214   4.728  17.620  0.00  0.00    +0.000 A 
ATOM     24  S   UNL     1      48.983   4.341  19.264  0.00  0.00    +0.000 S 
ATOM     25  C   UNL     1      48.390   5.898  19.601  0.00  0.00    +0.000 A 
ATOM     26  N   UNL     1      47.969   6.229  20.855  0.00  0.00    +0.000 NA
ATOM     27  C   UNL     1      47.515   7.435  20.965  0.00  0.00    +0.000 A 
ATOM     28  N   UNL     1      47.455   8.341  19.937  0.00  0.00    +0.000 N 
ATOM     29  C   UNL     1      47.904   8.065  18.666  0.00  0.00    +0.000 A 
ATOM     30  O   UNL     1      47.892   8.917  17.787  0.00  0.00    +0.000 OA
ATOM     31  C   UNL     1      48.398   6.713  18.484  0.00  0.00    +0.000 A 
ATOM     32  H   UNL     1      47.108   9.274  20.093  0.00  0.00    +0.000 HD
ENDBRANCH  19  22
ENDBRANCH  17  18
ENDBRANCH   4  17
TORSDOF 6
ENDMDL
MODEL 4
REMARK VINA RESULT:    -7.543      1.668      2.360
REMARK INTER + INTRA:         -10.845
REMARK INTER:                 -10.231
REMARK INTRA:                  -0.614
REMARK UNBOUND:                -0.656
REMARK  Name = 
REMARK  7 active torsions:
REMARK  status: ('A' for Active; 'I' for Inactive)
REMARK    1  A    between atoms: C_1  and  C_2
REMARK    2  A    between atoms: C_2  and  C_3
REMARK    3  A    between atoms: C_6  and  C_7
REMARK    4  A    between atoms: C_7  and  C_8
REMARK    5  A    between atoms: C_11  and  C_12
REMARK    6  A    between atoms: C_12  and  N_13
REMARK    7  A    between atoms: C_14  and  C_16
REMARK                            x       y       z     vdW  Elec       q    Type
REMARK                         _______ _______ _______ _____ _____    ______ ____
ROOT
ATOM      1  C   UNL     1      44.800   5.453  11.374  0.00  0.00    +0.000 A 
ATOM      2  C   UNL     1      45.662   4.727  12.208  0.00  0.00    +0.000 A 
ATOM      3  C   UNL     1      46.580   5.382  13.034  0.00  0.00    +0.000 A 
ATOM      4  C   UNL     1      46.674   6.779  13.024  0.00  0.00    +0.000 A 
ATOM      5  C   UNL     1      45.867   7.500  12.133  0.00  0.00    +0.000 A 
ATOM      6  C   UNL     1      44.929   6.846  11.327  0.00  0.00    +0.000 A 
ENDROOT
BRANCH   1   7
ATOM      7  C   UNL     1      43.731   4.736  10.578  0.00  0.00    +0.000 C 
BRANCH   7  11
ATOM      8  C   UNL     1      46.491   2.658   7.911  0.00  0.00    +0.000 C 
ATOM      9  C   UNL     1      45.360   1.823   8.528  0.00  0.00    +0.000 C 
ATOM     10  C   UNL     1      44.706   2.520   9.716  0.00  0.00    +0.000 C 
ATOM     11  C   UNL     1      44.265   3.949   9.358  0.00  0.00    +0.000 C 
ATOM     12  C   UNL     1      45.450   4.702   8.728  0.00  0.00    +0.000 C 
ATOM     13  N   UNL     1      46.000   3.998   7.566  0.00  0.00    +0.000 NA
ATOM     14  H   UNL     1      46.767   4.551   7.182  0.00  0.00    +0.000 HD
BRANCH   8  16
ATOM     15  C   UNL     1      47.020   2.762   5.393  0.00  0.00    +0.000 C 
ATOM     16  C   UNL     1      47.039   1.929   6.668  0.00  0.00    +0.000 C 
ENDBRANCH   8  16
ENDBRANCH   7  11
ENDBRANCH   1   7
BRANCH   4  17
ATOM     17  C   UNL     1      47.629   7.491  13.946  0.00  0.00    +0.000 C 
BRANCH  17  18
ATOM     18  N   UNL     1      48.131   6.617  14.974  0.00  0.00    +0.000 N 
ATOM     19  C   UNL     1      48.925   7.101  15.985  0.00  0.00    +0.000 C 
ATOM     20  O   UNL     1      49.201   8.294  16.078  0.00  0.00    +0.000 OA
ATOM     21  H   UNL     1      48.104   5.619  14.791  0.00  0.00    +0.000 HD
BRANCH  19  22
ATOM     22  C   UNL     1      49.380   6.133  16.990  0.00  0.00    +0.000 A 
ATOM     23  C   UNL     1      48.451   5.510  17.812  0.00  0.00    +0.000 A 
ATOM     24  S   UNL     1      49.140   4.400  18.907  0.00  0.00    +0.000 S 
ATOM     25  C   UNL     1      50.709   4.749  18.354  0.00  0.00    +0.000 A 
ATOM     26  N   UNL     1      51.797   4.147  18.914  0.00  0.00    +0.000 NA
ATOM     27  C   UNL     1      52.930   4.526  18.418  0.00  0.00    +0.000 A 
ATOM     28  N   UNL     1      53.071   5.441  17.408  0.00  0.00    +0.000 N 
ATOM     29  C   UNL     1      52.001   6.045  16.787  0.00  0.00    +0.000 A 
ATOM     30  O   UNL     1      52.161   6.813  15.847  0.00  0.00    +0.000 OA
ATOM     31  C   UNL     1      50.707   5.674  17.326  0.00  0.00    +0.000 A 
ATOM     32  H   UNL     1      53.983   5.680  17.052  0.00  0.00    +0.000 HD
ENDBRANCH  19  22
ENDBRANCH  17  18
ENDBRANCH   4  17
TORSDOF 6
ENDMDL
MODEL 5
REMARK VINA RESULT:    -7.505      2.181      3.892
REMARK INTER + INTRA:         -10.793
REMARK INTER:                 -10.050
REMARK INTRA:                  -0.743
REMARK UNBOUND:                -0.656
REMARK  Name = 
REMARK  7 active torsions:
REMARK  status: ('A' for Active; 'I' for Inactive)
REMARK    1  A    between atoms: C_1  and  C_2
REMARK    2  A    between atoms: C_2  and  C_3
REMARK    3  A    between atoms: C_6  and  C_7
REMARK    4  A    between atoms: C_7  and  C_8
REMARK    5  A    between atoms: C_11  and  C_12
REMARK    6  A    between atoms: C_12  and  N_13
REMARK    7  A    between atoms: C_14  and  C_16
REMARK                            x       y       z     vdW  Elec       q    Type
REMARK                         _______ _______ _______ _____ _____    ______ ____
ROOT
ATOM      1  C   UNL     1      44.800   4.479  11.369  0.00  0.00    +0.000 A 
ATOM      2  C   UNL     1      45.255   3.378  12.107  0.00  0.00    +0.000 A 
ATOM      3  C   UNL     1      46.026   3.558  13.259  0.00  0.00    +0.000 A 
ATOM      4  C   UNL     1      46.380   4.844  13.684  0.00  0.00    +0.000 A 
ATOM      5  C   UNL     1      45.990   5.940  12.902  0.00  0.00    +0.000 A 
ATOM      6  C   UNL     1      45.195   5.761  11.765  0.00  0.00    +0.000 A 
ENDROOT
BRANCH   1   7
ATOM      7  C   UNL     1      43.865   4.272  10.196  0.00  0.00    +0.000 C 
BRANCH   7  11
ATOM      8  C   UNL     1      46.895   2.492   7.607  0.00  0.00    +0.000 C 
ATOM      9  C   UNL     1      45.820   1.550   8.167  0.00  0.00    +0.000 C 
ATOM     10  C   UNL     1      45.063   2.166   9.339  0.00  0.00    +0.000 C 
ATOM     11  C   UNL     1      44.511   3.557   8.986  0.00  0.00    +0.000 C 
ATOM     12  C   UNL     1      45.647   4.422   8.412  0.00  0.00    +0.000 C 
ATOM     13  N   UNL     1      46.300   3.790   7.262  0.00  0.00    +0.000 NA
ATOM     14  H   UNL     1      47.029   4.415   6.916  0.00  0.00    +0.000 HD
BRANCH   8  16
ATOM     15  C   UNL     1      47.468   2.669   5.102  0.00  0.00    +0.000 C 
ATOM     16  C   UNL     1      47.550   1.837   6.375  0.00  0.00    +0.000 C 
ENDBRANCH   8  16
ENDBRANCH   7  11
ENDBRANCH   1   7
BRANCH   4  17
ATOM     17  C   UNL     1      47.172   5.045  14.950  0.00  0.00    +0.000 C 
BRANCH  17  18
ATOM     18  N   UNL     1      47.906   6.284  14.930  0.00  0.00    +0.000 N 
ATOM     19  C   UNL     1      49.058   6.432  15.661  0.00  0.00    +0.000 C 
ATOM     20  O   UNL     1      49.530   5.510  16.322  0.00  0.00    +0.000 OA
ATOM     21  H   UNL     1      47.422   7.106  14.581  0.00  0.00    +0.000 HD
BRANCH  19  22
ATOM     22  C   UNL     1      49.739   7.729  15.568  0.00  0.00    +0.000 A 
ATOM     23  C   UNL     1      50.112   8.392  16.730  0.00  0.00    +0.000 A 
ATOM     24  S   UNL     1      50.910   9.872  16.449  0.00  0.00    +0.000 S 
ATOM     25  C   UNL     1      50.740   9.702  14.765  0.00  0.00    +0.000 A 
ATOM     26  N   UNL     1      51.193  10.669  13.918  0.00  0.00    +0.000 NA
ATOM     27  C   UNL     1      50.974  10.426  12.666  0.00  0.00    +0.000 A 
ATOM     28  N   UNL     1      50.355   9.300  12.188  0.00  0.00    +0.000 N 
ATOM     29  C   UNL     1      49.917   8.281  13.003  0.00  0.00    +0.000 A 
ATOM     30  O   UNL     1      49.422   7.262  12.539  0.00  0.00    +0.000 OA
ATOM     31  C   UNL     1      50.115   8.519  14.420  0.00  0.00    +0.000 A 
ATOM     32  H   UNL     1      50.231   9.161  11.197  0.00  0.00    +0.000 HD
ENDBRANCH  19  22
ENDBRANCH  17  18
ENDBRANCH   4  17
TORSDOF 6
ENDMDL
MODEL 6
REMARK VINA RESULT:    -7.287      2.581      3.281
REMARK INTER + INTRA:         -10.499
REMARK INTER:                  -9.847
REMARK INTRA:                  -0.652
REMARK UNBOUND:                -0.656
REMARK  Name = 
REMARK  7 active torsions:
REMARK  status: ('A' for Active; 'I' for Inactive)
REMARK    1  A    between atoms: C_1  and  C_2
REMARK    2  A    between atoms: C_2  and  C_3
REMARK    3  A    between atoms: C_6  and  C_7
REMARK    4  A    between atoms: C_7  and  C_8
REMARK    5  A    between atoms: C_11  and  C_12
REMARK    6  A    between atoms: C_12  and  N_13
REMARK    7  A    between atoms: C_14  and  C_16
REMARK                            x       y       z     vdW  Elec       q    Type
REMARK                         _______ _______ _______ _____ _____    ______ ____
ROOT
ATOM      1  C   UNL     1      45.166   4.747  11.575  0.00  0.00    +0.000 A 
ATOM      2  C   UNL     1      45.355   3.610  12.372  0.00  0.00    +0.000 A 
ATOM      3  C   UNL     1      46.183   3.654  13.497  0.00  0.00    +0.000 A 
ATOM      4  C   UNL     1      46.860   4.831  13.836  0.00  0.00    +0.000 A 
ATOM      5  C   UNL     1      46.732   5.945  12.995  0.00  0.00    +0.000 A 
ATOM      6  C   UNL     1      45.881   5.910  11.885  0.00  0.00    +0.000 A 
ENDROOT
BRANCH   1   7
ATOM      7  C   UNL     1      44.173   4.717  10.433  0.00  0.00    +0.000 C 
BRANCH   7  11
ATOM      8  C   UNL     1      46.867   2.735   7.630  0.00  0.00    +0.000 C 
ATOM      9  C   UNL     1      45.731   1.886   8.219  0.00  0.00    +0.000 C 
ATOM     10  C   UNL     1      45.103   2.533   9.449  0.00  0.00    +0.000 C 
ATOM     11  C   UNL     1      44.679   3.984   9.168  0.00  0.00    +0.000 C 
ATOM     12  C   UNL     1      45.867   4.750   8.560  0.00  0.00    +0.000 C 
ATOM     13  N   UNL     1      46.393   4.097   7.358  0.00  0.00    +0.000 NA
ATOM     14  H   UNL     1      47.163   4.657   6.992  0.00  0.00    +0.000 HD
BRANCH   8  16
ATOM     15  C   UNL     1      46.999   2.777   5.058  0.00  0.00    +0.000 C 
ATOM     16  C   UNL     1      47.388   2.061   6.345  0.00  0.00    +0.000 C 
ENDBRANCH   8  16
ENDBRANCH   7  11
ENDBRANCH   1   7
BRANCH   4  17
ATOM     17  C   UNL     1      47.716   4.897  15.074  0.00  0.00    +0.000 C 
BRANCH  17  18
ATOM     18  N   UNL     1      47.817   6.241  15.583  0.00  0.00    +0.000 N 
ATOM     19  C   UNL     1      48.995   6.706  16.114  0.00  0.00    +0.000 C 
ATOM     20  O   UNL     1      50.012   6.018  16.139  0.00  0.00    +0.000 OA
ATOM     21  H   UNL     1      46.950   6.733  15.774  0.00  0.00    +0.000 HD
BRANCH  19  22
ATOM     22  C   UNL     1      49.000   8.092  16.598  0.00  0.00    +0.000 A 
ATOM     23  C   UNL     1      49.677   9.067  15.878  0.00  0.00    +0.000 A 
ATOM     24  S   UNL     1      49.568  10.625  16.562  0.00  0.00    +0.000 S 
ATOM     25  C   UNL     1      48.653  10.041  17.871  0.00  0.00    +0.000 A 
ATOM     26  N   UNL     1      48.249  10.878  18.869  0.00  0.00    +0.000 NA
ATOM     27  C   UNL     1      47.587  10.299  19.817  0.00  0.00    +0.000 A 
ATOM     28  N   UNL     1      47.282   8.962  19.849  0.00  0.00    +0.000 N 
ATOM     29  C   UNL     1      47.635   8.088  18.847  0.00  0.00    +0.000 A 
ATOM     30  O   UNL     1      47.295   6.912  18.878  0.00  0.00    +0.000 OA
ATOM     31  C   UNL     1      48.405   8.685  17.772  0.00  0.00    +0.000 A 
ATOM     32  H   UNL     1      46.744   8.575  20.608  0.00  0.00    +0.000 HD
ENDBRANCH  19  22
ENDBRANCH  17  18
ENDBRANCH   4  17
TORSDOF 6
ENDMDL
MODEL 7
REMARK VINA RESULT:    -7.231      4.892      9.474
REMARK INTER + INTRA:         -10.423
REMARK INTER:                  -9.725
REMARK INTRA:                  -0.698
REMARK UNBOUND:                -0.656
REMARK  Name = 
REMARK  7 active torsions:
REMARK  status: ('A' for Active; 'I' for Inactive)
REMARK    1  A    between atoms: C_1  and  C_2
REMARK    2  A    between atoms: C_2  and  C_3
REMARK    3  A    between atoms: C_6  and  C_7
REMARK    4  A    between atoms: C_7  and  C_8
REMARK    5  A    between atoms: C_11  and  C_12
REMARK    6  A    between atoms: C_12  and  N_13
REMARK    7  A    between atoms: C_14  and  C_16
REMARK                            x       y       z     vdW  Elec       q    Type
REMARK                         _______ _______ _______ _____ _____    ______ ____
ROOT
ATOM      1  C   UNL     1      51.669   2.933  17.587  0.00  0.00    +0.000 A 
ATOM      2  C   UNL     1      51.127   4.222  17.695  0.00  0.00    +0.000 A 
ATOM      3  C   UNL     1      49.760   4.442  17.510  0.00  0.00    +0.000 A 
ATOM      4  C   UNL     1      48.906   3.380  17.188  0.00  0.00    +0.000 A 
ATOM      5  C   UNL     1      49.460   2.106  17.003  0.00  0.00    +0.000 A 
ATOM      6  C   UNL     1      50.824   1.881  17.216  0.00  0.00    +0.000 A 
ENDROOT
BRANCH   1   7
ATOM      7  C   UNL     1      53.127   2.693  17.910  0.00  0.00    +0.000 C 
BRANCH   7  11
ATOM      8  C   UNL     1      55.398  -1.034  17.854  0.00  0.00    +0.000 C 
ATOM      9  C   UNL     1      55.066  -0.444  19.232  0.00  0.00    +0.000 C 
ATOM     10  C   UNL     1      54.629   1.015  19.148  0.00  0.00    +0.000 C 
ATOM     11  C   UNL     1      53.495   1.206  18.128  0.00  0.00    +0.000 C 
ATOM     12  C   UNL     1      53.903   0.566  16.790  0.00  0.00    +0.000 C 
ATOM     13  N   UNL     1      54.267  -0.846  16.937  0.00  0.00    +0.000 NA
ATOM     14  H   UNL     1      54.510  -1.218  16.019  0.00  0.00    +0.000 HD
BRANCH   8  16
ATOM     15  C   UNL     1      55.015  -3.447  17.040  0.00  0.00    +0.000 C 
ATOM     16  C   UNL     1      55.742  -2.529  18.013  0.00  0.00    +0.000 C 
ENDBRANCH   8  16
ENDBRANCH   7  11
ENDBRANCH   1   7
BRANCH   4  17
ATOM     17  C   UNL     1      47.424   3.604  17.033  0.00  0.00    +0.000 C 
BRANCH  17  18
ATOM     18  N   UNL     1      47.135   4.580  16.014  0.00  0.00    +0.000 N 
ATOM     19  C   UNL     1      47.135   4.232  14.686  0.00  0.00    +0.000 C 
ATOM     20  O   UNL     1      47.337   3.078  14.317  0.00  0.00    +0.000 OA
ATOM     21  H   UNL     1      47.190   5.558  16.278  0.00  0.00    +0.000 HD
BRANCH  19  22
ATOM     22  C   UNL     1      46.821   5.295  13.724  0.00  0.00    +0.000 A 
ATOM     23  C   UNL     1      47.762   6.282  13.461  0.00  0.00    +0.000 A 
ATOM     24  S   UNL     1      47.250   7.427  12.306  0.00  0.00    +0.000 S 
ATOM     25  C   UNL     1      45.734   6.672  12.153  0.00  0.00    +0.000 A 
ATOM     26  N   UNL     1      44.780   7.183  11.326  0.00  0.00    +0.000 NA
ATOM     27  C   UNL     1      43.665   6.528  11.327  0.00  0.00    +0.000 A 
ATOM     28  N   UNL     1      43.425   5.402  12.072  0.00  0.00    +0.000 N 
ATOM     29  C   UNL     1      44.370   4.828  12.891  0.00  0.00    +0.000 A 
ATOM     30  O   UNL     1      44.142   3.789  13.496  0.00  0.00    +0.000 OA
ATOM     31  C   UNL     1      45.631   5.543  12.946  0.00  0.00    +0.000 A 
ATOM     32  H   UNL     1      42.539   4.924  12.014  0.00  0.00    +0.000 HD
ENDBRANCH  19  22
ENDBRANCH  17  18
ENDBRANCH   4  17
TORSDOF 6
ENDMDL
MODEL 8
REMARK VINA RESULT:    -6.906      3.954      8.562
REMARK INTER + INTRA:          -9.985
REMARK INTER:                  -8.878
REMARK INTRA:                  -1.107
REMARK UNBOUND:                -0.656
REMARK  Name = 
REMARK  7 active torsions:
REMARK  status: ('A' for Active; 'I' for Inactive)
REMARK    1  A    between atoms: C_1  and  C_2
REMARK    2  A    between atoms: C_2  and  C_3
REMARK    3  A    between atoms: C_6  and  C_7
REMARK    4  A    between atoms: C_7  and  C_8
REMARK    5  A    between atoms: C_11  and  C_12
REMARK    6  A    between atoms: C_12  and  N_13
REMARK    7  A    between atoms: C_14  and  C_16
REMARK                            x       y       z     vdW  Elec       q    Type
REMARK                         _______ _______ _______ _____ _____    ______ ____
ROOT
ATOM      1  C   UNL     1      50.272   5.144  17.334  0.00  0.00    +0.000 A 
ATOM      2  C   UNL     1      50.996   6.127  16.645  0.00  0.00    +0.000 A 
ATOM      3  C   UNL     1      50.365   6.965  15.721  0.00  0.00    +0.000 A 
ATOM      4  C   UNL     1      49.000   6.821  15.448  0.00  0.00    +0.000 A 
ATOM      5  C   UNL     1      48.293   5.788  16.079  0.00  0.00    +0.000 A 
ATOM      6  C   UNL     1      48.918   4.967  17.024  0.00  0.00    +0.000 A 
ENDROOT
BRANCH   1   7
ATOM      7  C   UNL     1      50.942   4.328  18.418  0.00  0.00    +0.000 C 
BRANCH   7  11
ATOM      8  C   UNL     1      53.649   0.906  18.296  0.00  0.00    +0.000 C 
ATOM      9  C   UNL     1      52.484   0.905  17.297  0.00  0.00    +0.000 C 
ATOM     10  C   UNL     1      51.400   1.913  17.669  0.00  0.00    +0.000 C 
ATOM     11  C   UNL     1      51.989   3.315  17.897  0.00  0.00    +0.000 C 
ATOM     12  C   UNL     1      53.161   3.217  18.889  0.00  0.00    +0.000 C 
ATOM     13  N   UNL     1      54.185   2.266  18.448  0.00  0.00    +0.000 NA
ATOM     14  H   UNL     1      54.940   2.257  19.133  0.00  0.00    +0.000 HD
BRANCH   8  16
ATOM     15  C   UNL     1      54.680  -0.375  16.314  0.00  0.00    +0.000 C 
ATOM     16  C   UNL     1      54.738  -0.068  17.805  0.00  0.00    +0.000 C 
ENDBRANCH   8  16
ENDBRANCH   7  11
ENDBRANCH   1   7
BRANCH   4  17
ATOM     17  C   UNL     1      48.306   7.752  14.488  0.00  0.00    +0.000 C 
BRANCH  17  18
ATOM     18  N   UNL     1      47.084   7.183  13.980  0.00  0.00    +0.000 N 
ATOM     19  C   UNL     1      46.884   7.033  12.630  0.00  0.00    +0.000 C 
ATOM     20  O   UNL     1      47.746   7.336  11.810  0.00  0.00    +0.000 OA
ATOM     21  H   UNL     1      46.292   7.141  14.614  0.00  0.00    +0.000 HD
BRANCH  19  22
ATOM     22  C   UNL     1      45.610   6.435  12.212  0.00  0.00    +0.000 A 
ATOM     23  C   UNL     1      44.627   7.240  11.651  0.00  0.00    +0.000 A 
ATOM     24  S   UNL     1      43.220   6.389  11.201  0.00  0.00    +0.000 S 
ATOM     25  C   UNL     1      43.856   4.924  11.786  0.00  0.00    +0.000 A 
ATOM     26  N   UNL     1      43.125   3.776  11.735  0.00  0.00    +0.000 NA
ATOM     27  C   UNL     1      43.717   2.742  12.239  0.00  0.00    +0.000 A 
ATOM     28  N   UNL     1      44.978   2.754  12.778  0.00  0.00    +0.000 N 
ATOM     29  C   UNL     1      45.767   3.880  12.816  0.00  0.00    +0.000 A 
ATOM     30  O   UNL     1      46.911   3.841  13.250  0.00  0.00    +0.000 OA
ATOM     31  C   UNL     1      45.136   5.074  12.286  0.00  0.00    +0.000 A 
ATOM     32  H   UNL     1      45.392   1.909  13.138  0.00  0.00    +0.000 HD
ENDBRANCH  19  22
ENDBRANCH  17  18
ENDBRANCH   4  17
TORSDOF 6
ENDMDL
MODEL 9
REMARK VINA RESULT:    -6.808      5.041      7.383
REMARK INTER + INTRA:          -9.852
REMARK INTER:                  -8.845
REMARK INTRA:                  -1.006
REMARK UNBOUND:                -0.656
REMARK  Name = 
REMARK  7 active torsions:
REMARK  status: ('A' for Active; 'I' for Inactive)
REMARK    1  A    between atoms: C_1  and  C_2
REMARK    2  A    between atoms: C_2  and  C_3
REMARK    3  A    between atoms: C_6  and  C_7
REMARK    4  A    between atoms: C_7  and  C_8
REMARK    5  A    between atoms: C_11  and  C_12
REMARK    6  A    between atoms: C_12  and  N_13
REMARK    7  A    between atoms: C_14  and  C_16
REMARK                            x       y       z     vdW  Elec       q    Type
REMARK                         _______ _______ _______ _____ _____    ______ ____
ROOT
ATOM      1  C   UNL     1      50.826   8.619  11.172  0.00  0.00    +0.000 A 
ATOM      2  C   UNL     1      50.185   7.393  11.392  0.00  0.00    +0.000 A 
ATOM      3  C   UNL     1      48.936   7.339  12.017  0.00  0.00    +0.000 A 
ATOM      4  C   UNL     1      48.312   8.512  12.459  0.00  0.00    +0.000 A 
ATOM      5  C   UNL     1      48.988   9.730  12.310  0.00  0.00    +0.000 A 
ATOM      6  C   UNL     1      50.226   9.786  11.659  0.00  0.00    +0.000 A 
ENDROOT
BRANCH   1   7
ATOM      7  C   UNL     1      52.119   8.671  10.387  0.00  0.00    +0.000 C 
BRANCH   7  11
ATOM      8  C   UNL     1      54.447   5.696   8.200  0.00  0.00    +0.000 C 
ATOM      9  C   UNL     1      54.307   5.491   9.715  0.00  0.00    +0.000 C 
ATOM     10  C   UNL     1      53.827   6.751  10.428  0.00  0.00    +0.000 C 
ATOM     11  C   UNL     1      52.550   7.313   9.782  0.00  0.00    +0.000 C 
ATOM     12  C   UNL     1      52.773   7.463   8.267  0.00  0.00    +0.000 C 
ATOM     13  N   UNL     1      53.188   6.206   7.639  0.00  0.00    +0.000 NA
ATOM     14  H   UNL     1      53.303   6.362   6.638  0.00  0.00    +0.000 HD
BRANCH   8  16
ATOM     15  C   UNL     1      54.198   4.106   6.189  0.00  0.00    +0.000 C 
ATOM     16  C   UNL     1      54.847   4.360   7.543  0.00  0.00    +0.000 C 
ENDBRANCH   8  16
ENDBRANCH   7  11
ENDBRANCH   1   7
BRANCH   4  17
ATOM     17  C   UNL     1      46.945   8.464  13.091  0.00  0.00    +0.000 C 
BRANCH  17  18
ATOM     18  N   UNL     1      46.312   7.184  12.899  0.00  0.00    +0.000 N 
ATOM     19  C   UNL     1      45.302   7.028  11.983  0.00  0.00    +0.000 C 
ATOM     20  O   UNL     1      44.929   7.952  11.265  0.00  0.00    +0.000 OA
ATOM     21  H   UNL     1      46.447   6.486  13.624  0.00  0.00    +0.000 HD
BRANCH  19  22
ATOM     22  C   UNL     1      44.727   5.684  11.855  0.00  0.00    +0.000 A 
ATOM     23  C   UNL     1      44.008   5.143  12.913  0.00  0.00    +0.000 A 
ATOM     24  S   UNL     1      43.390   3.586  12.597  0.00  0.00    +0.000 S 
ATOM     25  C   UNL     1      44.102   3.561  11.053  0.00  0.00    +0.000 A 
ATOM     26  N   UNL     1      43.982   2.468  10.247  0.00  0.00    +0.000 NA
ATOM     27  C   UNL     1      44.596   2.572   9.113  0.00  0.00    +0.000 A 
ATOM     28  N   UNL     1      45.307   3.673   8.710  0.00  0.00    +0.000 N 
ATOM     29  C   UNL     1      45.423   4.812   9.473  0.00  0.00    +0.000 A 
ATOM     30  O   UNL     1      46.014   5.800   9.058  0.00  0.00    +0.000 OA
ATOM     31  C   UNL     1      44.773   4.735  10.768  0.00  0.00    +0.000 A 
ATOM     32  H   UNL     1      45.747   3.699   7.804  0.00  0.00    +0.000 HD
ENDBRANCH  19  22
ENDBRANCH  17  18
ENDBRANCH   4  17
TORSDOF 6
ENDMDL
