MODEL 1
REMARK VINA RESULT:    -8.052      0.000      0.000
REMARK INTER + INTRA:         -12.996
REMARK INTER:                 -11.817
REMARK INTRA:                  -1.179
REMARK UNBOUND:                -1.179
REMARK  Name = 
REMARK  9 active torsions:
REMARK  status: ('A' for Active; 'I' for Inactive)
REMARK    1  A    between atoms: C_1  and  O_2
REMARK    2  A    between atoms: O_2  and  C_3
REMARK    3  A    between atoms: C_10  and  C_11
REMARK    4  A    between atoms: N_13  and  C_14
REMARK    5  A    between atoms: C_14  and  C_15
REMARK    6  A    between atoms: C_18  and  C_19
REMARK    7  A    between atoms: C_19  and  N_20
REMARK    8  A    between atoms: N_20  and  C_21
REMARK    9  A    between atoms: C_21  and  C_22
REMARK                            x       y       z     vdW  Elec       q    Type
REMARK                         _______ _______ _______ _____ _____    ______ ____
ROOT
ATOM      1  C   UNL     1      47.427   3.310  14.877  0.00  0.00    +0.000 C 
ENDROOT
BRANCH   1   2
ATOM      2  C   UNL     1      46.752   3.975  13.706  0.00  0.00    +0.000 A 
ATOM      3  C   UNL     1      47.026   5.311  13.385  0.00  0.00    +0.000 A 
ATOM      4  C   UNL     1      46.439   5.909  12.265  0.00  0.00    +0.000 A 
ATOM      5  C   UNL     1      45.560   5.186  11.443  0.00  0.00    +0.000 A 
ATOM      6  C   UNL     1      45.248   3.866  11.797  0.00  0.00    +0.000 A 
ATOM      7  C   UNL     1      45.833   3.270  12.919  0.00  0.00    +0.000 A 
BRANCH   5   8
ATOM      8  C   UNL     1      44.966   5.817  10.202  0.00  0.00    +0.000 C 
BRANCH   8   9
ATOM      9  N   UNL     1      45.603   5.305   8.988  0.00  0.00    +0.000 NA
ATOM     10  H   UNL     1      46.575   5.080   9.195  0.00  0.00    +0.000 HD
BRANCH   9  11
ATOM     11  C   UNL     1      44.928   4.105   8.496  0.00  0.00    +0.000 C 
BRANCH  11  12
ATOM     12  C   UNL     1      45.920   3.104   7.953  0.00  0.00    +0.000 A 
ATOM     13  C   UNL     1      45.853   1.754   8.307  0.00  0.00    +0.000 A 
ATOM     14  C   UNL     1      46.785   0.876   7.770  0.00  0.00    +0.000 A 
ATOM     15  N   UNL     1      47.764   1.245   6.917  0.00  0.00    +0.000 NA
ATOM     16  C   UNL     1      47.815   2.554   6.587  0.00  0.00    +0.000 A 
ATOM     17  C   UNL     1      46.927   3.504   7.068  0.00  0.00    +0.000 A 
ENDBRANCH  11  12
ENDBRANCH   9  11
ENDBRANCH   8   9
ENDBRANCH   5   8
ENDBRANCH   1   2
BRANCH   1  20
ATOM     18  C   UNL     1      47.354   4.145  17.181  0.00  0.00    +0.000 C 
ATOM     19  O   UNL     1      46.602   3.230  17.512  0.00  0.00    +0.000 OA
ATOM     20  N   UNL     1      47.798   4.263  15.891  0.00  0.00    +0.000 N 
ATOM     21  H   UNL     1      48.376   5.046  15.618  0.00  0.00    +0.000 HD
BRANCH  18  29
ATOM     22  C   UNL     1      50.475   5.260  18.145  0.00  0.00    +0.000 A 
ATOM     23  N   UNL     1      51.541   5.813  18.761  0.00  0.00    +0.000 NA
ATOM     24  C   UNL     1      51.318   6.682  19.749  0.00  0.00    +0.000 A 
ATOM     25  N   UNL     1      50.138   7.088  20.207  0.00  0.00    +0.000 NA
ATOM     26  C   UNL     1      49.103   6.505  19.579  0.00  0.00    +0.000 A 
ATOM     27  S   UNL     1      47.519   6.916  20.030  0.00  0.00    +0.000 S 
ATOM     28  C   UNL     1      46.865   5.835  18.896  0.00  0.00    +0.000 A 
ATOM     29  C   UNL     1      47.820   5.143  18.159  0.00  0.00    +0.000 A 
ATOM     30  C   UNL     1      49.163   5.569  18.550  0.00  0.00    +0.000 A 
BRANCH  22  32
ATOM     31  C   UNL     1      50.895   3.045  17.479  0.00  0.00    +0.000 C 
ATOM     32  O   UNL     1      50.701   4.403  17.086  0.00  0.00    +0.000 OA
ENDBRANCH  22  32
ENDBRANCH  18  29
ENDBRANCH   1  20
TORSDOF 8
ENDMDL
MODEL 2
REMARK VINA RESULT:    -7.993      1.823      2.530
REMARK INTER + INTRA:         -12.910
REMARK INTER:                 -11.723
REMARK INTRA:                  -1.187
REMARK UNBOUND:                -1.179
REMARK  Name = 
REMARK  9 active torsions:
REMARK  status: ('A' for Active; 'I' for Inactive)
REMARK    1  A    between atoms: C_1  and  O_2
REMARK    2  A    between atoms: O_2  and  C_3
REMARK    3  A    between atoms: C_10  and  C_11
REMARK    4  A    between atoms: N_13  and  C_14
REMARK    5  A    between atoms: C_14  and  C_15
REMARK    6  A    between atoms: C_18  and  C_19
REMARK    7  A    between atoms: C_19  and  N_20
REMARK    8  A    between atoms: N_20  and  C_21
REMARK    9  A    between atoms: C_21  and  C_22
REMARK                            x       y       z     vdW  Elec       q    Type
REMARK                         _______ _______ _______ _____ _____    ______ ____
ROOT
ATOM      1  C   UNL     1      47.994   6.735  13.293  0.00  0.00    +0.000 C 
ENDROOT
BRANCH   1   2
ATOM      2  C   UNL     1      46.821   5.996  12.701  0.00  0.00    +0.000 A 
ATOM      3  C   UNL     1      46.392   6.263  11.395  0.00  0.00    +0.000 A 
ATOM      4  C   UNL     1      45.338   5.537  10.830  0.00  0.00    +0.000 A 
ATOM      5  C   UNL     1      44.686   4.532  11.560  0.00  0.00    +0.000 A 
ATOM      6  C   UNL     1      45.083   4.304  12.885  0.00  0.00    +0.000 A 
ATOM      7  C   UNL     1      46.136   5.032  13.450  0.00  0.00    +0.000 A 
BRANCH   5   8
ATOM      8  C   UNL     1      43.580   3.712  10.931  0.00  0.00    +0.000 C 
BRANCH   8   9
ATOM      9  N   UNL     1      43.853   3.447   9.517  0.00  0.00    +0.000 NA
ATOM     10  H   UNL     1      44.419   4.207   9.142  0.00  0.00    +0.000 HD
BRANCH   9  11
ATOM     11  C   UNL     1      44.570   2.185   9.339  0.00  0.00    +0.000 C 
BRANCH  11  12
ATOM     12  C   UNL     1      45.692   2.331   8.338  0.00  0.00    +0.000 A 
ATOM     13  C   UNL     1      45.984   3.566   7.755  0.00  0.00    +0.000 A 
ATOM     14  C   UNL     1      47.033   3.645   6.848  0.00  0.00    +0.000 A 
ATOM     15  N   UNL     1      47.799   2.594   6.489  0.00  0.00    +0.000 NA
ATOM     16  C   UNL     1      47.501   1.406   7.062  0.00  0.00    +0.000 A 
ATOM     17  C   UNL     1      46.477   1.230   7.979  0.00  0.00    +0.000 A 
ENDBRANCH  11  12
ENDBRANCH   9  11
ENDBRANCH   8   9
ENDBRANCH   5   8
ENDBRANCH   1   2
BRANCH   1  20
ATOM     18  C   UNL     1      49.079   6.871  15.488  0.00  0.00    +0.000 C 
ATOM     19  O   UNL     1      50.186   6.947  14.959  0.00  0.00    +0.000 OA
ATOM     20  N   UNL     1      47.942   6.751  14.733  0.00  0.00    +0.000 N 
ATOM     21  H   UNL     1      47.041   6.639  15.176  0.00  0.00    +0.000 HD
BRANCH  18  29
ATOM     22  C   UNL     1      48.950   4.462  17.957  0.00  0.00    +0.000 A 
ATOM     23  N   UNL     1      48.789   3.751  19.092  0.00  0.00    +0.000 NA
ATOM     24  C   UNL     1      48.561   4.417  20.226  0.00  0.00    +0.000 A 
ATOM     25  N   UNL     1      48.480   5.735  20.378  0.00  0.00    +0.000 NA
ATOM     26  C   UNL     1      48.631   6.407  19.225  0.00  0.00    +0.000 A 
ATOM     27  S   UNL     1      48.568   8.103  19.234  0.00  0.00    +0.000 S 
ATOM     28  C   UNL     1      48.797   8.169  17.554  0.00  0.00    +0.000 A 
ATOM     29  C   UNL     1      48.924   6.922  16.951  0.00  0.00    +0.000 A 
ATOM     30  C   UNL     1      48.853   5.866  17.960  0.00  0.00    +0.000 A 
BRANCH  22  32
ATOM     31  C   UNL     1      48.521   2.557  16.648  0.00  0.00    +0.000 C 
ATOM     32  O   UNL     1      49.241   3.780  16.792  0.00  0.00    +0.000 OA
ENDBRANCH  22  32
ENDBRANCH  18  29
ENDBRANCH   1  20
TORSDOF 8
ENDMDL
MODEL 3
REMARK VINA RESULT:    -7.742      2.001      2.878
REMARK INTER + INTRA:         -12.541
REMARK INTER:                 -11.612
REMARK INTRA:                  -0.929
REMARK UNBOUND:                -1.179
REMARK  Name = 
REMARK  9 active torsions:
REMARK  status: ('A' for Active; 'I' for Inactive)
REMARK    1  A    between atoms: C_1  and  O_2
REMARK    2  A    between atoms: O_2  and  C_3
REMARK    3  A    between atoms: C_10  and  C_11
REMARK    4  A    between atoms: N_13  and  C_14
REMARK    5  A    between atoms: C_14  and  C_15
REMARK    6  A    between atoms: C_18  and  C_19
REMARK    7  A    between atoms: C_19  and  N_20
REMARK    8  A    between atoms: N_20  and  C_21
REMARK    9  A    between atoms: C_21  and  C_22
REMARK                            x       y       z     vdW  Elec       q    Type
REMARK                         _______ _______ _______ _____ _____    ______ ____
ROOT
ATOM      1  C   UNL     1      48.111   6.526  13.756  0.00  0.00    +0.000 C 
ENDROOT
BRANCH   1   2
ATOM      2  C   UNL     1      46.955   6.004  12.942  0.00  0.00    +0.000 A 
ATOM      3  C   UNL     1      46.446   6.741  11.865  0.00  0.00    +0.000 A 
ATOM      4  C   UNL     1      45.409   6.229  11.079  0.00  0.00    +0.000 A 
ATOM      5  C   UNL     1      44.853   4.970  11.355  0.00  0.00    +0.000 A 
ATOM      6  C   UNL     1      45.329   4.259  12.465  0.00  0.00    +0.000 A 
ATOM      7  C   UNL     1      46.365   4.773  13.253  0.00  0.00    +0.000 A 
BRANCH   5   8
ATOM      8  C   UNL     1      43.767   4.394  10.472  0.00  0.00    +0.000 C 
BRANCH   8   9
ATOM      9  N   UNL     1      44.276   3.297   9.649  0.00  0.00    +0.000 NA
ATOM     10  H   UNL     1      43.535   2.608   9.522  0.00  0.00    +0.000 HD
BRANCH   9  11
ATOM     11  C   UNL     1      44.716   3.771   8.338  0.00  0.00    +0.000 C 
BRANCH  11  12
ATOM     12  C   UNL     1      45.819   2.901   7.784  0.00  0.00    +0.000 A 
ATOM     13  C   UNL     1      45.982   1.581   8.212  0.00  0.00    +0.000 A 
ATOM     14  C   UNL     1      47.006   0.822   7.661  0.00  0.00    +0.000 A 
ATOM     15  N   UNL     1      47.865   1.281   6.727  0.00  0.00    +0.000 NA
ATOM     16  C   UNL     1      47.694   2.560   6.326  0.00  0.00    +0.000 A 
ATOM     17  C   UNL     1      46.699   3.393   6.814  0.00  0.00    +0.000 A 
ENDBRANCH  11  12
ENDBRANCH   9  11
ENDBRANCH   8   9
ENDBRANCH   5   8
ENDBRANCH   1   2
BRANCH   1  20
ATOM     18  C   UNL     1      49.029   6.266  16.015  0.00  0.00    +0.000 C 
ATOM     19  O   UNL     1      50.152   6.570  15.616  0.00  0.00    +0.000 OA
ATOM     20  N   UNL     1      47.966   6.209  15.154  0.00  0.00    +0.000 N 
ATOM     21  H   UNL     1      47.057   5.910  15.480  0.00  0.00    +0.000 HD
BRANCH  18  29
ATOM     22  C   UNL     1      48.140   8.195  18.736  0.00  0.00    +0.000 A 
ATOM     23  N   UNL     1      47.881   8.702  19.959  0.00  0.00    +0.000 NA
ATOM     24  C   UNL     1      47.873   7.865  20.999  0.00  0.00    +0.000 A 
ATOM     25  N   UNL     1      48.085   6.554  20.974  0.00  0.00    +0.000 NA
ATOM     26  C   UNL     1      48.352   6.089  19.742  0.00  0.00    +0.000 A 
ATOM     27  S   UNL     1      48.638   4.431  19.521  0.00  0.00    +0.000 S 
ATOM     28  C   UNL     1      48.896   4.648  17.858  0.00  0.00    +0.000 A 
ATOM     29  C   UNL     1      48.776   5.967  17.434  0.00  0.00    +0.000 A 
ATOM     30  C   UNL     1      48.421   6.827  18.562  0.00  0.00    +0.000 A 
BRANCH  22  32
ATOM     31  C   UNL     1      47.702  10.378  17.982  0.00  0.00    +0.000 C 
ATOM     32  O   UNL     1      48.096   9.047  17.650  0.00  0.00    +0.000 OA
ENDBRANCH  22  32
ENDBRANCH  18  29
ENDBRANCH   1  20
TORSDOF 8
ENDMDL
MODEL 4
REMARK VINA RESULT:    -7.666      2.864      3.377
REMARK INTER + INTRA:         -12.430
REMARK INTER:                 -11.028
REMARK INTRA:                  -1.402
REMARK UNBOUND:                -1.179
REMARK  Name = 
REMARK  9 active torsions:
REMARK  status: ('A' for Active; 'I' for Inactive)
REMARK    1  A    between atoms: C_1  and  O_2
REMARK    2  A    between atoms: O_2  and  C_3
REMARK    3  A    between atoms: C_10  and  C_11
REMARK    4  A    between atoms: N_13  and  C_14
REMARK    5  A    between atoms: C_14  and  C_15
REMARK    6  A    between atoms: C_18  and  C_19
REMARK    7  A    between atoms: C_19  and  N_20
REMARK    8  A    between atoms: N_20  and  C_21
REMARK    9  A    between atoms: C_21  and  C_22
REMARK                            x       y       z     vdW  Elec       q    Type
REMARK                         _______ _______ _______ _____ _____    ______ ____
ROOT
ATOM      1  C   UNL     1      47.133   4.320  14.922  0.00  0.00    +0.000 C 
ENDROOT
BRANCH   1   2
ATOM      2  C   UNL     1      46.311   4.384  13.661  0.00  0.00    +0.000 A 
ATOM      3  C   UNL     1      46.002   3.219  12.947  0.00  0.00    +0.000 A 
ATOM      4  C   UNL     1      45.192   3.276  11.807  0.00  0.00    +0.000 A 
ATOM      5  C   UNL     1      44.679   4.501  11.352  0.00  0.00    +0.000 A 
ATOM      6  C   UNL     1      45.034   5.670  12.038  0.00  0.00    +0.000 A 
ATOM      7  C   UNL     1      45.845   5.613  13.176  0.00  0.00    +0.000 A 
BRANCH   5   8
ATOM      8  C   UNL     1      43.762   4.555  10.149  0.00  0.00    +0.000 C 
BRANCH   8   9
ATOM      9  N   UNL     1      44.193   3.620   9.109  0.00  0.00    +0.000 NA
ATOM     10  H   UNL     1      43.391   3.386   8.523  0.00  0.00    +0.000 HD
BRANCH   9  11
ATOM     11  C   UNL     1      45.244   4.197   8.272  0.00  0.00    +0.000 C 
BRANCH  11  12
ATOM     12  C   UNL     1      46.110   3.121   7.663  0.00  0.00    +0.000 A 
ATOM     13  C   UNL     1      46.155   1.834   8.208  0.00  0.00    +0.000 A 
ATOM     14  C   UNL     1      46.961   0.881   7.601  0.00  0.00    +0.000 A 
ATOM     15  N   UNL     1      47.714   1.116   6.507  0.00  0.00    +0.000 NA
ATOM     16  C   UNL     1      47.661   2.366   5.995  0.00  0.00    +0.000 A 
ATOM     17  C   UNL     1      46.884   3.383   6.527  0.00  0.00    +0.000 A 
ENDBRANCH  11  12
ENDBRANCH   9  11
ENDBRANCH   8   9
ENDBRANCH   5   8
ENDBRANCH   1   2
BRANCH   1  20
ATOM     18  C   UNL     1      48.597   5.810  16.205  0.00  0.00    +0.000 C 
ATOM     19  O   UNL     1      49.245   4.851  16.621  0.00  0.00    +0.000 OA
ATOM     20  N   UNL     1      47.527   5.631  15.369  0.00  0.00    +0.000 N 
ATOM     21  H   UNL     1      46.970   6.421  15.072  0.00  0.00    +0.000 HD
BRANCH  18  29
ATOM     22  C   UNL     1      49.001   8.730  14.409  0.00  0.00    +0.000 A 
ATOM     23  N   UNL     1      49.297   9.969  13.964  0.00  0.00    +0.000 NA
ATOM     24  C   UNL     1      49.695  10.881  14.854  0.00  0.00    +0.000 A 
ATOM     25  N   UNL     1      49.829  10.714  16.165  0.00  0.00    +0.000 NA
ATOM     26  C   UNL     1      49.539   9.466  16.568  0.00  0.00    +0.000 A 
ATOM     27  S   UNL     1      49.645   9.077  18.217  0.00  0.00    +0.000 S 
ATOM     28  C   UNL     1      49.190   7.470  17.917  0.00  0.00    +0.000 A 
ATOM     29  C   UNL     1      48.951   7.191  16.575  0.00  0.00    +0.000 A 
ATOM     30  C   UNL     1      49.133   8.398  15.771  0.00  0.00    +0.000 A 
BRANCH  22  32
ATOM     31  C   UNL     1      49.387   7.632  12.366  0.00  0.00    +0.000 C 
ATOM     32  O   UNL     1      48.537   7.800  13.500  0.00  0.00    +0.000 OA
ENDBRANCH  22  32
ENDBRANCH  18  29
ENDBRANCH   1  20
TORSDOF 8
ENDMDL
MODEL 5
REMARK VINA RESULT:    -7.603      2.342      3.170
REMARK INTER + INTRA:         -12.338
REMARK INTER:                 -11.242
REMARK INTRA:                  -1.096
REMARK UNBOUND:                -1.179
REMARK  Name = 
REMARK  9 active torsions:
REMARK  status: ('A' for Active; 'I' for Inactive)
REMARK    1  A    between atoms: C_1  and  O_2
REMARK    2  A    between atoms: O_2  and  C_3
REMARK    3  A    between atoms: C_10  and  C_11
REMARK    4  A    between atoms: N_13  and  C_14
REMARK    5  A    between atoms: C_14  and  C_15
REMARK    6  A    between atoms: C_18  and  C_19
REMARK    7  A    between atoms: C_19  and  N_20
REMARK    8  A    between atoms: N_20  and  C_21
REMARK    9  A    between atoms: C_21  and  C_22
REMARK                            x       y       z     vdW  Elec       q    Type
REMARK                         _______ _______ _______ _____ _____    ______ ____
ROOT
ATOM      1  C   UNL     1      46.976   7.415  13.283  0.00  0.00    +0.000 C 
ENDROOT
BRANCH   1   2
ATOM      2  C   UNL     1      46.107   6.303  12.753  0.00  0.00    +0.000 A 
ATOM      3  C   UNL     1      45.021   6.581  11.913  0.00  0.00    +0.000 A 
ATOM      4  C   UNL     1      44.250   5.543  11.380  0.00  0.00    +0.000 A 
ATOM      5  C   UNL     1      44.543   4.204  11.679  0.00  0.00    +0.000 A 
ATOM      6  C   UNL     1      45.597   3.932  12.562  0.00  0.00    +0.000 A 
ATOM      7  C   UNL     1      46.367   4.971  13.097  0.00  0.00    +0.000 A 
BRANCH   5   8
ATOM      8  C   UNL     1      43.741   3.080  11.061  0.00  0.00    +0.000 C 
BRANCH   8   9
ATOM      9  N   UNL     1      44.518   2.365  10.047  0.00  0.00    +0.000 NA
ATOM     10  H   UNL     1      44.030   1.505   9.802  0.00  0.00    +0.000 HD
BRANCH   9  11
ATOM     11  C   UNL     1      44.696   3.173   8.841  0.00  0.00    +0.000 C 
BRANCH  11  12
ATOM     12  C   UNL     1      45.781   2.605   7.958  0.00  0.00    +0.000 A 
ATOM     13  C   UNL     1      46.300   1.327   8.181  0.00  0.00    +0.000 A 
ATOM     14  C   UNL     1      47.290   0.851   7.332  0.00  0.00    +0.000 A 
ATOM     15  N   UNL     1      47.789   1.549   6.290  0.00  0.00    +0.000 NA
ATOM     16  C   UNL     1      47.276   2.783   6.090  0.00  0.00    +0.000 A 
ATOM     17  C   UNL     1      46.285   3.343   6.881  0.00  0.00    +0.000 A 
ENDBRANCH  11  12
ENDBRANCH   9  11
ENDBRANCH   8   9
ENDBRANCH   5   8
ENDBRANCH   1   2
BRANCH   1  20
ATOM     18  C   UNL     1      48.811   7.672  14.888  0.00  0.00    +0.000 C 
ATOM     19  O   UNL     1      48.479   8.835  15.113  0.00  0.00    +0.000 OA
ATOM     20  N   UNL     1      48.126   6.904  13.985  0.00  0.00    +0.000 N 
ATOM     21  H   UNL     1      48.435   5.967  13.770  0.00  0.00    +0.000 HD
BRANCH  18  29
ATOM     22  C   UNL     1      49.080   5.139  17.217  0.00  0.00    +0.000 A 
ATOM     23  N   UNL     1      49.468   4.263  18.167  0.00  0.00    +0.000 NA
ATOM     24  C   UNL     1      50.764   4.204  18.480  0.00  0.00    +0.000 A 
ATOM     25  N   UNL     1      51.749   4.918  17.945  0.00  0.00    +0.000 NA
ATOM     26  C   UNL     1      51.322   5.788  17.015  0.00  0.00    +0.000 A 
ATOM     27  S   UNL     1      52.450   6.776  16.219  0.00  0.00    +0.000 S 
ATOM     28  C   UNL     1      51.226   7.525  15.313  0.00  0.00    +0.000 A 
ATOM     29  C   UNL     1      49.948   7.052  15.589  0.00  0.00    +0.000 A 
ATOM     30  C   UNL     1      50.011   5.988  16.590  0.00  0.00    +0.000 A 
BRANCH  22  32
ATOM     31  C   UNL     1      47.239   3.893  16.450  0.00  0.00    +0.000 C 
ATOM     32  O   UNL     1      47.748   5.164  16.853  0.00  0.00    +0.000 OA
ENDBRANCH  22  32
ENDBRANCH  18  29
ENDBRANCH   1  20
TORSDOF 8
ENDMDL
MODEL 6
REMARK VINA RESULT:    -7.565      2.089      2.677
REMARK INTER + INTRA:         -12.282
REMARK INTER:                 -11.177
REMARK INTRA:                  -1.104
REMARK UNBOUND:                -1.179
REMARK  Name = 
REMARK  9 active torsions:
REMARK  status: ('A' for Active; 'I' for Inactive)
REMARK    1  A    between atoms: C_1  and  O_2
REMARK    2  A    between atoms: O_2  and  C_3
REMARK    3  A    between atoms: C_10  and  C_11
REMARK    4  A    between atoms: N_13  and  C_14
REMARK    5  A    between atoms: C_14  and  C_15
REMARK    6  A    between atoms: C_18  and  C_19
REMARK    7  A    between atoms: C_19  and  N_20
REMARK    8  A    between atoms: N_20  and  C_21
REMARK    9  A    between atoms: C_21  and  C_22
REMARK                            x       y       z     vdW  Elec       q    Type
REMARK                         _______ _______ _______ _____ _____    ______ ____
ROOT
ATOM      1  C   UNL     1      47.184   4.219  14.876  0.00  0.00    +0.000 C 
ENDROOT
BRANCH   1   2
ATOM      2  C   UNL     1      46.328   4.339  13.642  0.00  0.00    +0.000 A 
ATOM      3  C   UNL     1      45.978   3.204  12.899  0.00  0.00    +0.000 A 
ATOM      4  C   UNL     1      45.139   3.314  11.785  0.00  0.00    +0.000 A 
ATOM      5  C   UNL     1      44.636   4.561  11.385  0.00  0.00    +0.000 A 
ATOM      6  C   UNL     1      45.032   5.701  12.099  0.00  0.00    +0.000 A 
ATOM      7  C   UNL     1      45.873   5.591  13.212  0.00  0.00    +0.000 A 
BRANCH   5   8
ATOM      8  C   UNL     1      43.687   4.672  10.211  0.00  0.00    +0.000 C 
BRANCH   8   9
ATOM      9  N   UNL     1      44.080   3.775   9.123  0.00  0.00    +0.000 NA
ATOM     10  H   UNL     1      43.300   3.685   8.473  0.00  0.00    +0.000 HD
BRANCH   9  11
ATOM     11  C   UNL     1      45.246   4.284   8.404  0.00  0.00    +0.000 C 
BRANCH  11  12
ATOM     12  C   UNL     1      46.031   3.161   7.770  0.00  0.00    +0.000 A 
ATOM     13  C   UNL     1      46.034   1.878   8.324  0.00  0.00    +0.000 A 
ATOM     14  C   UNL     1      46.765   0.880   7.694  0.00  0.00    +0.000 A 
ATOM     15  N   UNL     1      47.481   1.068   6.566  0.00  0.00    +0.000 NA
ATOM     16  C   UNL     1      47.468   2.316   6.045  0.00  0.00    +0.000 A 
ATOM     17  C   UNL     1      46.767   3.374   6.599  0.00  0.00    +0.000 A 
ENDBRANCH  11  12
ENDBRANCH   9  11
ENDBRANCH   8   9
ENDBRANCH   5   8
ENDBRANCH   1   2
BRANCH   1  20
ATOM     18  C   UNL     1      48.536   5.705  16.281  0.00  0.00    +0.000 C 
ATOM     19  O   UNL     1      49.304   4.784  16.554  0.00  0.00    +0.000 OA
ATOM     20  N   UNL     1      47.454   5.505  15.466  0.00  0.00    +0.000 N 
ATOM     21  H   UNL     1      46.801   6.255  15.287  0.00  0.00    +0.000 HD
BRANCH  18  29
ATOM     22  C   UNL     1      47.823   7.248  19.286  0.00  0.00    +0.000 A 
ATOM     23  N   UNL     1      47.598   8.109  20.300  0.00  0.00    +0.000 NA
ATOM     24  C   UNL     1      47.976   9.379  20.145  0.00  0.00    +0.000 A 
ATOM     25  N   UNL     1      48.572   9.913  19.085  0.00  0.00    +0.000 NA
ATOM     26  C   UNL     1      48.766   9.030  18.091  0.00  0.00    +0.000 A 
ATOM     27  S   UNL     1      49.527   9.538  16.662  0.00  0.00    +0.000 S 
ATOM     28  C   UNL     1      49.379   7.992  15.977  0.00  0.00    +0.000 A 
ATOM     29  C   UNL     1      48.755   7.065  16.804  0.00  0.00    +0.000 A 
ATOM     30  C   UNL     1      48.414   7.682  18.084  0.00  0.00    +0.000 A 
BRANCH  22  32
ATOM     31  C   UNL     1      48.505   5.147  20.089  0.00  0.00    +0.000 C 
ATOM     32  O   UNL     1      47.483   5.922  19.463  0.00  0.00    +0.000 OA
ENDBRANCH  22  32
ENDBRANCH  18  29
ENDBRANCH   1  20
TORSDOF 8
ENDMDL
MODEL 7
REMARK VINA RESULT:    -7.336      2.850      3.678
REMARK INTER + INTRA:         -11.946
REMARK INTER:                 -10.729
REMARK INTRA:                  -1.217
REMARK UNBOUND:                -1.179
REMARK  Name = 
REMARK  9 active torsions:
REMARK  status: ('A' for Active; 'I' for Inactive)
REMARK    1  A    between atoms: C_1  and  O_2
REMARK    2  A    between atoms: O_2  and  C_3
REMARK    3  A    between atoms: C_10  and  C_11
REMARK    4  A    between atoms: N_13  and  C_14
REMARK    5  A    between atoms: C_14  and  C_15
REMARK    6  A    between atoms: C_18  and  C_19
REMARK    7  A    between atoms: C_19  and  N_20
REMARK    8  A    between atoms: N_20  and  C_21
REMARK    9  A    between atoms: C_21  and  C_22
REMARK                            x       y       z     vdW  Elec       q    Type
REMARK                         _______ _______ _______ _____ _____    ______ ____
ROOT
ATOM      1  C   UNL     1      45.488   8.364  12.266  0.00  0.00    +0.000 C 
ENDROOT
BRANCH   1   2
ATOM      2  C   UNL     1      45.038   6.964  11.935  0.00  0.00    +0.000 A 
ATOM      3  C   UNL     1      45.884   5.869  12.154  0.00  0.00    +0.000 A 
ATOM      4  C   UNL     1      45.443   4.567  11.896  0.00  0.00    +0.000 A 
ATOM      5  C   UNL     1      44.148   4.331  11.407  0.00  0.00    +0.000 A 
ATOM      6  C   UNL     1      43.324   5.432  11.139  0.00  0.00    +0.000 A 
ATOM      7  C   UNL     1      43.767   6.735  11.395  0.00  0.00    +0.000 A 
BRANCH   5   8
ATOM      8  C   UNL     1      43.654   2.918  11.178  0.00  0.00    +0.000 C 
BRANCH   8   9
ATOM      9  N   UNL     1      44.568   2.169  10.314  0.00  0.00    +0.000 NA
ATOM     10  H   UNL     1      44.386   1.172  10.428  0.00  0.00    +0.000 HD
BRANCH   9  11
ATOM     11  C   UNL     1      44.391   2.528   8.908  0.00  0.00    +0.000 C 
BRANCH  11  12
ATOM     12  C   UNL     1      45.704   2.480   8.163  0.00  0.00    +0.000 A 
ATOM     13  C   UNL     1      46.396   1.277   7.997  0.00  0.00    +0.000 A 
ATOM     14  C   UNL     1      47.594   1.289   7.294  0.00  0.00    +0.000 A 
ATOM     15  N   UNL     1      48.140   2.397   6.753  0.00  0.00    +0.000 NA
ATOM     16  C   UNL     1      47.457   3.552   6.925  0.00  0.00    +0.000 A 
ATOM     17  C   UNL     1      46.254   3.640   7.607  0.00  0.00    +0.000 A 
ENDBRANCH  11  12
ENDBRANCH   9  11
ENDBRANCH   8   9
ENDBRANCH   5   8
ENDBRANCH   1   2
BRANCH   1  20
ATOM     18  C   UNL     1      47.643   8.511  13.427  0.00  0.00    +0.000 C 
ATOM     19  O   UNL     1      48.241   8.563  12.354  0.00  0.00    +0.000 OA
ATOM     20  N   UNL     1      46.279   8.399  13.470  0.00  0.00    +0.000 N 
ATOM     21  H   UNL     1      45.800   8.307  14.355  0.00  0.00    +0.000 HD
BRANCH  18  29
ATOM     22  C   UNL     1      48.538   6.163  15.793  0.00  0.00    +0.000 A 
ATOM     23  N   UNL     1      48.936   5.493  16.894  0.00  0.00    +0.000 NA
ATOM     24  C   UNL     1      49.514   6.184  17.879  0.00  0.00    +0.000 A 
ATOM     25  N   UNL     1      49.761   7.489  17.903  0.00  0.00    +0.000 NA
ATOM     26  C   UNL     1      49.338   8.123  16.796  0.00  0.00    +0.000 A 
ATOM     27  S   UNL     1      49.583   9.797  16.651  0.00  0.00    +0.000 S 
ATOM     28  C   UNL     1      48.819   9.826  15.136  0.00  0.00    +0.000 A 
ATOM     29  C   UNL     1      48.363   8.583  14.709  0.00  0.00    +0.000 A 
ATOM     30  C   UNL     1      48.702   7.557  15.694  0.00  0.00    +0.000 A 
BRANCH  22  32
ATOM     31  C   UNL     1      47.214   4.323  15.171  0.00  0.00    +0.000 C 
ATOM     32  O   UNL     1      47.990   5.444  14.750  0.00  0.00    +0.000 OA
ENDBRANCH  22  32
ENDBRANCH  18  29
ENDBRANCH   1  20
TORSDOF 8
ENDMDL
MODEL 8
REMARK VINA RESULT:    -7.020      4.071      5.297
REMARK INTER + INTRA:         -11.481
REMARK INTER:                 -10.167
REMARK INTRA:                  -1.314
REMARK UNBOUND:                -1.179
REMARK  Name = 
REMARK  9 active torsions:
REMARK  status: ('A' for Active; 'I' for Inactive)
REMARK    1  A    between atoms: C_1  and  O_2
REMARK    2  A    between atoms: O_2  and  C_3
REMARK    3  A    between atoms: C_10  and  C_11
REMARK    4  A    between atoms: N_13  and  C_14
REMARK    5  A    between atoms: C_14  and  C_15
REMARK    6  A    between atoms: C_18  and  C_19
REMARK    7  A    between atoms: C_19  and  N_20
REMARK    8  A    between atoms: N_20  and  C_21
REMARK    9  A    between atoms: C_21  and  C_22
REMARK                            x       y       z     vdW  Elec       q    Type
REMARK                         _______ _______ _______ _____ _____    ______ ____
ROOT
ATOM      1  C   UNL     1      47.612   5.767  14.210  0.00  0.00    +0.000 C 
ENDROOT
BRANCH   1   2
ATOM      2  C   UNL     1      46.548   5.458  13.189  0.00  0.00    +0.000 A 
ATOM      3  C   UNL     1      46.047   6.462  12.350  0.00  0.00    +0.000 A 
ATOM      4  C   UNL     1      45.099   6.160  11.367  0.00  0.00    +0.000 A 
ATOM      5  C   UNL     1      44.625   4.848  11.206  0.00  0.00    +0.000 A 
ATOM      6  C   UNL     1      45.088   3.858  12.082  0.00  0.00    +0.000 A 
ATOM      7  C   UNL     1      46.036   4.161  13.066  0.00  0.00    +0.000 A 
BRANCH   5   8
ATOM      8  C   UNL     1      43.638   4.513  10.108  0.00  0.00    +0.000 C 
BRANCH   8   9
ATOM      9  N   UNL     1      44.206   3.561   9.153  0.00  0.00    +0.000 NA
ATOM     10  H   UNL     1      43.485   3.295   8.483  0.00  0.00    +0.000 HD
BRANCH   9  11
ATOM     11  C   UNL     1      45.339   4.139   8.432  0.00  0.00    +0.000 C 
BRANCH  11  12
ATOM     12  C   UNL     1      46.159   3.067   7.754  0.00  0.00    +0.000 A 
ATOM     13  C   UNL     1      46.154   1.749   8.219  0.00  0.00    +0.000 A 
ATOM     14  C   UNL     1      46.918   0.803   7.551  0.00  0.00    +0.000 A 
ATOM     15  N   UNL     1      47.675   1.073   6.467  0.00  0.00    +0.000 NA
ATOM     16  C   UNL     1      47.670   2.353   6.032  0.00  0.00    +0.000 A 
ATOM     17  C   UNL     1      46.937   3.366   6.630  0.00  0.00    +0.000 A 
ENDBRANCH  11  12
ENDBRANCH   9  11
ENDBRANCH   8   9
ENDBRANCH   5   8
ENDBRANCH   1   2
BRANCH   1  20
ATOM     18  C   UNL     1      49.469   7.343  14.495  0.00  0.00    +0.000 C 
ATOM     19  O   UNL     1      49.369   7.273  15.718  0.00  0.00    +0.000 OA
ATOM     20  N   UNL     1      48.628   6.638  13.676  0.00  0.00    +0.000 N 
ATOM     21  H   UNL     1      48.685   6.740  12.672  0.00  0.00    +0.000 HD
BRANCH  18  29
ATOM     22  C   UNL     1      49.487   9.446  11.757  0.00  0.00    +0.000 A 
ATOM     23  N   UNL     1      49.800  10.244  10.715  0.00  0.00    +0.000 NA
ATOM     24  C   UNL     1      51.063  10.658  10.594  0.00  0.00    +0.000 A 
ATOM     25  N   UNL     1      52.078  10.379  11.405  0.00  0.00    +0.000 NA
ATOM     26  C   UNL     1      51.731   9.572  12.422  0.00  0.00    +0.000 A 
ATOM     27  S   UNL     1      52.902   9.121  13.564  0.00  0.00    +0.000 S 
ATOM     28  C   UNL     1      51.779   8.174  14.414  0.00  0.00    +0.000 A 
ATOM     29  C   UNL     1      50.504   8.174  13.858  0.00  0.00    +0.000 A 
ATOM     30  C   UNL     1      50.470   9.038  12.678  0.00  0.00    +0.000 A 
BRANCH  22  32
ATOM     31  C   UNL     1      47.365  10.031  12.584  0.00  0.00    +0.000 C 
ATOM     32  O   UNL     1      48.171   9.061  11.917  0.00  0.00    +0.000 OA
ENDBRANCH  22  32
ENDBRANCH  18  29
ENDBRANCH   1  20
TORSDOF 8
ENDMDL
MODEL 9
REMARK VINA RESULT:    -6.910      3.924      9.424
REMARK INTER + INTRA:         -11.320
REMARK INTER:                 -10.301
REMARK INTRA:                  -1.019
REMARK UNBOUND:                -1.179
REMARK  Name = 
REMARK  9 active torsions:
REMARK  status: ('A' for Active; 'I' for Inactive)
REMARK    1  A    between atoms: C_1  and  O_2
REMARK    2  A    between atoms: O_2  and  C_3
REMARK    3  A    between atoms: C_10  and  C_11
REMARK    4  A    between atoms: N_13  and  C_14
REMARK    5  A    between atoms: C_14  and  C_15
REMARK    6  A    between atoms: C_18  and  C_19
REMARK    7  A    between atoms: C_19  and  N_20
REMARK    8  A    between atoms: N_20  and  C_21
REMARK    9  A    between atoms: C_21  and  C_22
REMARK                            x       y       z     vdW  Elec       q    Type
REMARK                         _______ _______ _______ _____ _____    ______ ____
ROOT
ATOM      1  C   UNL     1      47.268   3.310  16.745  0.00  0.00    +0.000 C 
ENDROOT
BRANCH   1   2
ATOM      2  C   UNL     1      48.742   3.324  17.058  0.00  0.00    +0.000 A 
ATOM      3  C   UNL     1      49.377   4.505  17.463  0.00  0.00    +0.000 A 
ATOM      4  C   UNL     1      50.733   4.502  17.806  0.00  0.00    +0.000 A 
ATOM      5  C   UNL     1      51.487   3.320  17.745  0.00  0.00    +0.000 A 
ATOM      6  C   UNL     1      50.861   2.152  17.289  0.00  0.00    +0.000 A 
ATOM      7  C   UNL     1      49.505   2.155  16.944  0.00  0.00    +0.000 A 
BRANCH   5   8
ATOM      8  C   UNL     1      52.941   3.307  18.165  0.00  0.00    +0.000 C 
BRANCH   8   9
ATOM      9  N   UNL     1      53.241   2.150  19.010  0.00  0.00    +0.000 NA
ATOM     10  H   UNL     1      52.625   1.381  18.747  0.00  0.00    +0.000 HD
BRANCH   9  11
ATOM     11  C   UNL     1      54.631   1.722  18.857  0.00  0.00    +0.000 C 
BRANCH  11  12
ATOM     12  C   UNL     1      54.718   0.387  18.157  0.00  0.00    +0.000 A 
ATOM     13  C   UNL     1      54.830   0.306  16.766  0.00  0.00    +0.000 A 
ATOM     14  C   UNL     1      54.917  -0.948  16.176  0.00  0.00    +0.000 A 
ATOM     15  N   UNL     1      54.901  -2.108  16.864  0.00  0.00    +0.000 NA
ATOM     16  C   UNL     1      54.790  -2.011  18.208  0.00  0.00    +0.000 A 
ATOM     17  C   UNL     1      54.701  -0.806  18.888  0.00  0.00    +0.000 A 
ENDBRANCH  11  12
ENDBRANCH   9  11
ENDBRANCH   8   9
ENDBRANCH   5   8
ENDBRANCH   1   2
BRANCH   1  20
ATOM     18  C   UNL     1      46.919   4.252  14.508  0.00  0.00    +0.000 C 
ATOM     19  O   UNL     1      47.277   3.198  13.985  0.00  0.00    +0.000 OA
ATOM     20  N   UNL     1      46.898   4.393  15.870  0.00  0.00    +0.000 N 
ATOM     21  H   UNL     1      46.650   5.279  16.290  0.00  0.00    +0.000 HD
BRANCH  18  29
ATOM     22  C   UNL     1      44.092   4.915  12.642  0.00  0.00    +0.000 A 
ATOM     23  N   UNL     1      43.160   5.399  11.794  0.00  0.00    +0.000 NA
ATOM     24  C   UNL     1      43.381   6.586  11.225  0.00  0.00    +0.000 A 
ATOM     25  N   UNL     1      44.434   7.376  11.405  0.00  0.00    +0.000 NA
ATOM     26  C   UNL     1      45.345   6.855  12.244  0.00  0.00    +0.000 A 
ATOM     27  S   UNL     1      46.751   7.736  12.598  0.00  0.00    +0.000 S 
ATOM     28  C   UNL     1      47.331   6.499  13.606  0.00  0.00    +0.000 A 
ATOM     29  C   UNL     1      46.483   5.400  13.695  0.00  0.00    +0.000 A 
ATOM     30  C   UNL     1      45.278   5.628  12.900  0.00  0.00    +0.000 A 
BRANCH  22  32
ATOM     31  C   UNL     1      43.572   2.638  12.377  0.00  0.00    +0.000 C 
ATOM     32  O   UNL     1      43.842   3.714  13.274  0.00  0.00    +0.000 OA
ENDBRANCH  22  32
ENDBRANCH  18  29
ENDBRANCH   1  20
TORSDOF 8
ENDMDL
