MODEL 1
REMARK VINA RESULT:    -6.819      0.000      0.000
REMARK INTER + INTRA:          -9.353
REMARK INTER:                  -9.011
REMARK INTRA:                  -0.342
REMARK UNBOUND:                -0.342
REMARK  Name = 
REMARK  6 active torsions:
REMARK  status: ('A' for Active; 'I' for Inactive)
REMARK    1  A    between atoms: N_1  and  C_2
REMARK    2  A    between atoms: C_2  and  C_3
REMARK    3  A    between atoms: C_6  and  C_7
REMARK    4  A    between atoms: C_7  and  C_8
REMARK    5  A    between atoms: C_8  and  N_9
REMARK    6  A    between atoms: N_9  and  C_10
REMARK                            x       y       z     vdW  Elec       q    Type
REMARK                         _______ _______ _______ _____ _____    ______ ____
ROOT
ATOM      1  C   UNL     1      43.743   4.387   9.932  0.00  0.00    +0.000 C 
ENDROOT
BRANCH   1   5
ATOM      2  C   UNL     1      46.605   2.287   7.640  0.00  0.00    +0.000 A 
ATOM      3  C   UNL     1      46.383   3.646   7.458  0.00  0.00    +0.000 A 
ATOM      4  N   UNL     1      45.478   4.347   8.181  0.00  0.00    +0.000 NA
ATOM      5  C   UNL     1      44.769   3.647   9.104  0.00  0.00    +0.000 A 
ATOM      6  C   UNL     1      45.014   2.294   9.306  0.00  0.00    +0.000 A 
ATOM      7  N   UNL     1      45.922   1.588   8.585  0.00  0.00    +0.000 NA
BRANCH   2   8
ATOM      8  C   UNL     1      47.593   1.550   6.769  0.00  0.00    +0.000 C 
BRANCH   8   9
ATOM      9  N   UNL     1      48.678   2.403   6.278  0.00  0.00    +0.000 NA
ATOM     10  H   UNL     1      48.336   2.939   5.481  0.00  0.00    +0.000 HD
ATOM     11  H   UNL     1      49.415   1.800   5.907  0.00  0.00    +0.000 HD
ENDBRANCH   8   9
ENDBRANCH   2   8
ENDBRANCH   1   5
BRANCH   1  12
ATOM     12  C   UNL     1      43.605   3.764  11.329  0.00  0.00    +0.000 C 
BRANCH  12  13
ATOM     13  N   UNL     1      43.197   4.719  12.369  0.00  0.00    +0.000 NA
ATOM     14  H   UNL     1      42.559   4.269  13.030  0.00  0.00    +0.000 HD
BRANCH  13  15
ATOM     15  C   UNL     1      44.352   5.186  13.132  0.00  0.00    +0.000 C 
ATOM     16  C   UNL     1      45.085   6.423  12.528  0.00  0.00    +0.000 C 
ATOM     17  O   UNL     1      46.287   6.736  13.246  0.00  0.00    +0.000 OA
ATOM     18  C   UNL     1      47.169   5.609  13.228  0.00  0.00    +0.000 C 
ATOM     19  C   UNL     1      46.496   4.381  13.859  0.00  0.00    +0.000 C 
ATOM     20  N   UNL     1      45.239   4.026  13.173  0.00  0.00    +0.000 NA
ATOM     21  H   UNL     1      44.758   3.300  13.698  0.00  0.00    +0.000 HD
ENDBRANCH  13  15
ENDBRANCH  12  13
ENDBRANCH   1  12
TORSDOF 6
ENDMDL
MODEL 2
REMARK VINA RESULT:    -6.546      0.972      1.382
REMARK INTER + INTRA:          -8.992
REMARK INTER:                  -8.625
REMARK INTRA:                  -0.368
REMARK UNBOUND:                -0.342
REMARK  Name = 
REMARK  6 active torsions:
REMARK  status: ('A' for Active; 'I' for Inactive)
REMARK    1  A    between atoms: N_1  and  C_2
REMARK    2  A    between atoms: C_2  and  C_3
REMARK    3  A    between atoms: C_6  and  C_7
REMARK    4  A    between atoms: C_7  and  C_8
REMARK    5  A    between atoms: C_8  and  N_9
REMARK    6  A    between atoms: N_9  and  C_10
REMARK                            x       y       z     vdW  Elec       q    Type
REMARK                         _______ _______ _______ _____ _____    ______ ____
ROOT
ATOM      1  C   UNL     1      43.779   4.484   9.949  0.00  0.00    +0.000 C 
ENDROOT
BRANCH   1   5
ATOM      2  C   UNL     1      46.607   2.263   7.730  0.00  0.00    +0.000 A 
ATOM      3  C   UNL     1      46.450   3.630   7.545  0.00  0.00    +0.000 A 
ATOM      4  N   UNL     1      45.557   4.369   8.245  0.00  0.00    +0.000 NA
ATOM      5  C   UNL     1      44.795   3.701   9.147  0.00  0.00    +0.000 A 
ATOM      6  C   UNL     1      44.974   2.338   9.352  0.00  0.00    +0.000 A 
ATOM      7  N   UNL     1      45.870   1.594   8.654  0.00  0.00    +0.000 NA
BRANCH   2   8
ATOM      8  C   UNL     1      47.585   1.484   6.884  0.00  0.00    +0.000 C 
BRANCH   8   9
ATOM      9  N   UNL     1      48.468   2.341   6.086  0.00  0.00    +0.000 NA
ATOM     10  H   UNL     1      49.263   1.785   5.773  0.00  0.00    +0.000 HD
ATOM     11  H   UNL     1      48.858   3.058   6.701  0.00  0.00    +0.000 HD
ENDBRANCH   8   9
ENDBRANCH   2   8
ENDBRANCH   1   5
BRANCH   1  12
ATOM     12  C   UNL     1      43.511   3.816  11.306  0.00  0.00    +0.000 C 
BRANCH  12  13
ATOM     13  N   UNL     1      43.789   4.682  12.460  0.00  0.00    +0.000 NA
ATOM     14  H   UNL     1      44.000   4.114  13.285  0.00  0.00    +0.000 HD
BRANCH  13  15
ATOM     15  C   UNL     1      44.954   5.529  12.210  0.00  0.00    +0.000 C 
ATOM     16  C   UNL     1      46.273   5.052  12.891  0.00  0.00    +0.000 C 
ATOM     17  O   UNL     1      47.335   6.002  12.723  0.00  0.00    +0.000 OA
ATOM     18  C   UNL     1      46.948   7.264  13.276  0.00  0.00    +0.000 C 
ATOM     19  C   UNL     1      45.674   7.788  12.594  0.00  0.00    +0.000 C 
ATOM     20  N   UNL     1      44.552   6.839  12.716  0.00  0.00    +0.000 NA
ATOM     21  H   UNL     1      43.775   7.156  12.143  0.00  0.00    +0.000 HD
ENDBRANCH  13  15
ENDBRANCH  12  13
ENDBRANCH   1  12
TORSDOF 6
ENDMDL
MODEL 3
REMARK VINA RESULT:    -6.528      2.458      6.079
REMARK INTER + INTRA:          -8.969
REMARK INTER:                  -8.582
REMARK INTRA:                  -0.387
REMARK UNBOUND:                -0.342
REMARK  Name = 
REMARK  6 active torsions:
REMARK  status: ('A' for Active; 'I' for Inactive)
REMARK    1  A    between atoms: N_1  and  C_2
REMARK    2  A    between atoms: C_2  and  C_3
REMARK    3  A    between atoms: C_6  and  C_7
REMARK    4  A    between atoms: C_7  and  C_8
REMARK    5  A    between atoms: C_8  and  N_9
REMARK    6  A    between atoms: N_9  and  C_10
REMARK                            x       y       z     vdW  Elec       q    Type
REMARK                         _______ _______ _______ _____ _____    ______ ____
ROOT
ATOM      1  C   UNL     1      45.351   5.485  10.495  0.00  0.00    +0.000 C 
ENDROOT
BRANCH   1   5
ATOM      2  C   UNL     1      46.897   4.582  14.323  0.00  0.00    +0.000 A 
ATOM      3  C   UNL     1      47.212   5.768  13.673  0.00  0.00    +0.000 A 
ATOM      4  N   UNL     1      46.727   6.088  12.450  0.00  0.00    +0.000 NA
ATOM      5  C   UNL     1      45.912   5.174  11.865  0.00  0.00    +0.000 A 
ATOM      6  C   UNL     1      45.574   4.001  12.530  0.00  0.00    +0.000 A 
ATOM      7  N   UNL     1      46.055   3.678  13.757  0.00  0.00    +0.000 NA
BRANCH   2   8
ATOM      8  C   UNL     1      47.508   4.259  15.665  0.00  0.00    +0.000 C 
BRANCH   8   9
ATOM      9  N   UNL     1      48.221   2.978  15.682  0.00  0.00    +0.000 NA
ATOM     10  H   UNL     1      47.543   2.232  15.829  0.00  0.00    +0.000 HD
ATOM     11  H   UNL     1      48.830   2.964  16.502  0.00  0.00    +0.000 HD
ENDBRANCH   8   9
ENDBRANCH   2   8
ENDBRANCH   1   5
BRANCH   1  12
ATOM     12  C   UNL     1      44.380   4.388  10.032  0.00  0.00    +0.000 C 
BRANCH  12  13
ATOM     13  N   UNL     1      44.148   4.374   8.581  0.00  0.00    +0.000 NA
ATOM     14  H   UNL     1      44.554   5.209   8.151  0.00  0.00    +0.000 HD
BRANCH  13  15
ATOM     15  C   UNL     1      44.786   3.215   7.961  0.00  0.00    +0.000 C 
ATOM     16  C   UNL     1      45.320   2.142   8.960  0.00  0.00    +0.000 C 
ATOM     17  O   UNL     1      46.058   1.109   8.293  0.00  0.00    +0.000 OA
ATOM     18  C   UNL     1      47.160   1.682   7.583  0.00  0.00    +0.000 C 
ATOM     19  C   UNL     1      46.668   2.712   6.554  0.00  0.00    +0.000 C 
ATOM     20  N   UNL     1      45.881   3.789   7.184  0.00  0.00    +0.000 NA
ATOM     21  H   UNL     1      45.463   4.371   6.462  0.00  0.00    +0.000 HD
ENDBRANCH  13  15
ENDBRANCH  12  13
ENDBRANCH   1  12
TORSDOF 6
ENDMDL
MODEL 4
REMARK VINA RESULT:    -6.478      2.178      5.748
REMARK INTER + INTRA:          -8.903
REMARK INTER:                  -8.455
REMARK INTRA:                  -0.448
REMARK UNBOUND:                -0.342
REMARK  Name = 
REMARK  6 active torsions:
REMARK  status: ('A' for Active; 'I' for Inactive)
REMARK    1  A    between atoms: N_1  and  C_2
REMARK    2  A    between atoms: C_2  and  C_3
REMARK    3  A    between atoms: C_6  and  C_7
REMARK    4  A    between atoms: C_7  and  C_8
REMARK    5  A    between atoms: C_8  and  N_9
REMARK    6  A    between atoms: N_9  and  C_10
REMARK                            x       y       z     vdW  Elec       q    Type
REMARK                         _______ _______ _______ _____ _____    ______ ____
ROOT
ATOM      1  C   UNL     1      43.393   4.058  12.918  0.00  0.00    +0.000 C 
ENDROOT
BRANCH   1   5
ATOM      2  C   UNL     1      47.069   6.058  13.500  0.00  0.00    +0.000 A 
ATOM      3  C   UNL     1      46.898   4.730  13.868  0.00  0.00    +0.000 A 
ATOM      4  N   UNL     1      45.735   4.061  13.689  0.00  0.00    +0.000 NA
ATOM      5  C   UNL     1      44.714   4.762  13.133  0.00  0.00    +0.000 A 
ATOM      6  C   UNL     1      44.896   6.082  12.737  0.00  0.00    +0.000 A 
ATOM      7  N   UNL     1      46.061   6.756  12.913  0.00  0.00    +0.000 NA
BRANCH   2   8
ATOM      8  C   UNL     1      48.375   6.765  13.771  0.00  0.00    +0.000 C 
BRANCH   8   9
ATOM      9  N   UNL     1      49.024   6.325  15.010  0.00  0.00    +0.000 NA
ATOM     10  H   UNL     1      49.097   7.122  15.640  0.00  0.00    +0.000 HD
ATOM     11  H   UNL     1      49.986   6.060  14.788  0.00  0.00    +0.000 HD
ENDBRANCH   8   9
ENDBRANCH   2   8
ENDBRANCH   1   5
BRANCH   1  12
ATOM     12  C   UNL     1      43.124   3.830  11.423  0.00  0.00    +0.000 C 
BRANCH  12  13
ATOM     13  N   UNL     1      43.755   2.616  10.884  0.00  0.00    +0.000 NA
ATOM     14  H   UNL     1      43.077   2.080  10.338  0.00  0.00    +0.000 HD
BRANCH  13  15
ATOM     15  C   UNL     1      44.860   2.955   9.989  0.00  0.00    +0.000 C 
ATOM     16  C   UNL     1      44.627   4.216   9.102  0.00  0.00    +0.000 C 
ATOM     17  O   UNL     1      45.684   4.404   8.151  0.00  0.00    +0.000 OA
ATOM     18  C   UNL     1      45.792   3.249   7.312  0.00  0.00    +0.000 C 
ATOM     19  C   UNL     1      46.069   1.992   8.151  0.00  0.00    +0.000 C 
ATOM     20  N   UNL     1      45.022   1.761   9.163  0.00  0.00    +0.000 NA
ATOM     21  H   UNL     1      45.307   1.006   9.781  0.00  0.00    +0.000 HD
ENDBRANCH  13  15
ENDBRANCH  12  13
ENDBRANCH   1  12
TORSDOF 6
ENDMDL
MODEL 5
REMARK VINA RESULT:    -6.396      2.441      6.073
REMARK INTER + INTRA:          -8.794
REMARK INTER:                  -8.341
REMARK INTRA:                  -0.453
REMARK UNBOUND:                -0.342
REMARK  Name = 
REMARK  6 active torsions:
REMARK  status: ('A' for Active; 'I' for Inactive)
REMARK    1  A    between atoms: N_1  and  C_2
REMARK    2  A    between atoms: C_2  and  C_3
REMARK    3  A    between atoms: C_6  and  C_7
REMARK    4  A    between atoms: C_7  and  C_8
REMARK    5  A    between atoms: C_8  and  N_9
REMARK    6  A    between atoms: N_9  and  C_10
REMARK                            x       y       z     vdW  Elec       q    Type
REMARK                         _______ _______ _______ _____ _____    ______ ____
ROOT
ATOM      1  C   UNL     1      44.842   3.294  12.119  0.00  0.00    +0.000 C 
ENDROOT
BRANCH   1   5
ATOM      2  C   UNL     1      45.567   7.439  12.512  0.00  0.00    +0.000 A 
ATOM      3  C   UNL     1      46.330   6.500  13.193  0.00  0.00    +0.000 A 
ATOM      4  N   UNL     1      46.125   5.166  13.082  0.00  0.00    +0.000 NA
ATOM      5  C   UNL     1      45.111   4.775  12.270  0.00  0.00    +0.000 A 
ATOM      6  C   UNL     1      44.368   5.715  11.565  0.00  0.00    +0.000 A 
ATOM      7  N   UNL     1      44.571   7.053  11.671  0.00  0.00    +0.000 NA
BRANCH   2   8
ATOM      8  C   UNL     1      45.811   8.915  12.713  0.00  0.00    +0.000 C 
BRANCH   8   9
ATOM      9  N   UNL     1      44.578   9.708  12.719  0.00  0.00    +0.000 NA
ATOM     10  H   UNL     1      44.430  10.085  11.784  0.00  0.00    +0.000 HD
ATOM     11  H   UNL     1      44.724  10.519  13.323  0.00  0.00    +0.000 HD
ENDBRANCH   8   9
ENDBRANCH   2   8
ENDBRANCH   1   5
BRANCH   1  12
ATOM     12  C   UNL     1      43.767   3.033  11.054  0.00  0.00    +0.000 C 
BRANCH  12  13
ATOM     13  N   UNL     1      44.178   2.074  10.018  0.00  0.00    +0.000 NA
ATOM     14  H   UNL     1      43.406   1.906   9.368  0.00  0.00    +0.000 HD
BRANCH  13  15
ATOM     15  C   UNL     1      45.296   2.596   9.236  0.00  0.00    +0.000 C 
ATOM     16  C   UNL     1      44.932   3.755   8.258  0.00  0.00    +0.000 C 
ATOM     17  O   UNL     1      46.040   4.119   7.423  0.00  0.00    +0.000 OA
ATOM     18  C   UNL     1      46.472   2.982   6.669  0.00  0.00    +0.000 C 
ATOM     19  C   UNL     1      46.884   1.834   7.603  0.00  0.00    +0.000 C 
ATOM     20  N   UNL     1      45.786   1.433   8.502  0.00  0.00    +0.000 NA
ATOM     21  H   UNL     1      46.135   0.770   9.190  0.00  0.00    +0.000 HD
ENDBRANCH  13  15
ENDBRANCH  12  13
ENDBRANCH   1  12
TORSDOF 6
ENDMDL
MODEL 6
REMARK VINA RESULT:    -6.326      2.499      5.614
REMARK INTER + INTRA:          -8.702
REMARK INTER:                  -8.049
REMARK INTRA:                  -0.652
REMARK UNBOUND:                -0.342
REMARK  Name = 
REMARK  6 active torsions:
REMARK  status: ('A' for Active; 'I' for Inactive)
REMARK    1  A    between atoms: N_1  and  C_2
REMARK    2  A    between atoms: C_2  and  C_3
REMARK    3  A    between atoms: C_6  and  C_7
REMARK    4  A    between atoms: C_7  and  C_8
REMARK    5  A    between atoms: C_8  and  N_9
REMARK    6  A    between atoms: N_9  and  C_10
REMARK                            x       y       z     vdW  Elec       q    Type
REMARK                         _______ _______ _______ _____ _____    ______ ____
ROOT
ATOM      1  C   UNL     1      43.347   5.067  12.860  0.00  0.00    +0.000 C 
ENDROOT
BRANCH   1   5
ATOM      2  C   UNL     1      47.143   6.911  13.077  0.00  0.00    +0.000 A 
ATOM      3  C   UNL     1      46.010   7.622  12.704  0.00  0.00    +0.000 A 
ATOM      4  N   UNL     1      44.780   7.060  12.632  0.00  0.00    +0.000 NA
ATOM      5  C   UNL     1      44.700   5.739  12.932  0.00  0.00    +0.000 A 
ATOM      6  C   UNL     1      45.829   5.037  13.334  0.00  0.00    +0.000 A 
ATOM      7  N   UNL     1      47.064   5.596  13.411  0.00  0.00    +0.000 NA
BRANCH   2   8
ATOM      8  C   UNL     1      48.495   7.580  13.092  0.00  0.00    +0.000 C 
BRANCH   8   9
ATOM      9  N   UNL     1      49.596   6.665  12.775  0.00  0.00    +0.000 NA
ATOM     10  H   UNL     1      49.702   6.623  11.762  0.00  0.00    +0.000 HD
ATOM     11  H   UNL     1      49.320   5.724  13.062  0.00  0.00    +0.000 HD
ENDBRANCH   8   9
ENDBRANCH   2   8
ENDBRANCH   1   5
BRANCH   1  12
ATOM     12  C   UNL     1      42.870   4.938  11.406  0.00  0.00    +0.000 C 
BRANCH  12  13
ATOM     13  N   UNL     1      43.891   5.296  10.411  0.00  0.00    +0.000 NA
ATOM     14  H   UNL     1      44.788   5.466  10.873  0.00  0.00    +0.000 HD
BRANCH  13  15
ATOM     15  C   UNL     1      44.095   4.209   9.457  0.00  0.00    +0.000 C 
ATOM     16  C   UNL     1      44.435   2.827  10.094  0.00  0.00    +0.000 C 
ATOM     17  O   UNL     1      44.764   1.845   9.101  0.00  0.00    +0.000 OA
ATOM     18  C   UNL     1      45.879   2.295   8.326  0.00  0.00    +0.000 C 
ATOM     19  C   UNL     1      45.562   3.634   7.643  0.00  0.00    +0.000 C 
ATOM     20  N   UNL     1      45.195   4.678   8.618  0.00  0.00    +0.000 NA
ATOM     21  H   UNL     1      44.864   5.504   8.125  0.00  0.00    +0.000 HD
ENDBRANCH  13  15
ENDBRANCH  12  13
ENDBRANCH   1  12
TORSDOF 6
ENDMDL
MODEL 7
REMARK VINA RESULT:    -6.042      2.640      6.610
REMARK INTER + INTRA:          -8.326
REMARK INTER:                  -7.968
REMARK INTRA:                  -0.358
REMARK UNBOUND:                -0.342
REMARK  Name = 
REMARK  6 active torsions:
REMARK  status: ('A' for Active; 'I' for Inactive)
REMARK    1  A    between atoms: N_1  and  C_2
REMARK    2  A    between atoms: C_2  and  C_3
REMARK    3  A    between atoms: C_6  and  C_7
REMARK    4  A    between atoms: C_7  and  C_8
REMARK    5  A    between atoms: C_8  and  N_9
REMARK    6  A    between atoms: N_9  and  C_10
REMARK                            x       y       z     vdW  Elec       q    Type
REMARK                         _______ _______ _______ _____ _____    ______ ____
ROOT
ATOM      1  C   UNL     1      47.069   6.313  12.340  0.00  0.00    +0.000 C 
ENDROOT
BRANCH   1   5
ATOM      2  C   UNL     1      47.613   4.312  16.021  0.00  0.00    +0.000 A 
ATOM      3  C   UNL     1      48.254   5.513  15.745  0.00  0.00    +0.000 A 
ATOM      4  N   UNL     1      48.094   6.180  14.578  0.00  0.00    +0.000 NA
ATOM      5  C   UNL     1      47.274   5.607  13.661  0.00  0.00    +0.000 A 
ATOM      6  C   UNL     1      46.610   4.421  13.952  0.00  0.00    +0.000 A 
ATOM      7  N   UNL     1      46.765   3.750  15.122  0.00  0.00    +0.000 NA
BRANCH   2   8
ATOM      8  C   UNL     1      47.870   3.590  17.322  0.00  0.00    +0.000 C 
BRANCH   8   9
ATOM      9  N   UNL     1      46.710   2.829  17.798  0.00  0.00    +0.000 NA
ATOM     10  H   UNL     1      46.070   3.471  18.264  0.00  0.00    +0.000 HD
ATOM     11  H   UNL     1      47.029   2.183  18.523  0.00  0.00    +0.000 HD
ENDBRANCH   8   9
ENDBRANCH   2   8
ENDBRANCH   1   5
BRANCH   1  12
ATOM     12  C   UNL     1      45.610   6.203  11.874  0.00  0.00    +0.000 C 
BRANCH  12  13
ATOM     13  N   UNL     1      45.444   6.280  10.415  0.00  0.00    +0.000 NA
ATOM     14  H   UNL     1      46.358   6.253   9.955  0.00  0.00    +0.000 HD
BRANCH  13  15
ATOM     15  C   UNL     1      44.675   5.142   9.916  0.00  0.00    +0.000 C 
ATOM     16  C   UNL     1      44.512   3.963  10.924  0.00  0.00    +0.000 C 
ATOM     17  O   UNL     1      43.875   2.828  10.321  0.00  0.00    +0.000 OA
ATOM     18  C   UNL     1      44.639   2.384   9.196  0.00  0.00    +0.000 C 
ATOM     19  C   UNL     1      44.781   3.508   8.158  0.00  0.00    +0.000 C 
ATOM     20  N   UNL     1      45.412   4.712   8.730  0.00  0.00    +0.000 NA
ATOM     21  H   UNL     1      45.365   5.473   8.057  0.00  0.00    +0.000 HD
ENDBRANCH  13  15
ENDBRANCH  12  13
ENDBRANCH   1  12
TORSDOF 6
ENDMDL
MODEL 8
REMARK VINA RESULT:    -5.854      2.782      6.083
REMARK INTER + INTRA:          -8.078
REMARK INTER:                  -7.723
REMARK INTRA:                  -0.355
REMARK UNBOUND:                -0.342
REMARK  Name = 
REMARK  6 active torsions:
REMARK  status: ('A' for Active; 'I' for Inactive)
REMARK    1  A    between atoms: N_1  and  C_2
REMARK    2  A    between atoms: C_2  and  C_3
REMARK    3  A    between atoms: C_6  and  C_7
REMARK    4  A    between atoms: C_7  and  C_8
REMARK    5  A    between atoms: C_8  and  N_9
REMARK    6  A    between atoms: N_9  and  C_10
REMARK                            x       y       z     vdW  Elec       q    Type
REMARK                         _______ _______ _______ _____ _____    ______ ____
ROOT
ATOM      1  C   UNL     1      44.580   3.360  11.775  0.00  0.00    +0.000 C 
ENDROOT
BRANCH   1   5
ATOM      2  C   UNL     1      47.440   5.967  13.471  0.00  0.00    +0.000 A 
ATOM      3  C   UNL     1      46.572   6.391  12.473  0.00  0.00    +0.000 A 
ATOM      4  N   UNL     1      45.642   5.580  11.915  0.00  0.00    +0.000 NA
ATOM      5  C   UNL     1      45.600   4.303  12.372  0.00  0.00    +0.000 A 
ATOM      6  C   UNL     1      46.449   3.890  13.392  0.00  0.00    +0.000 A 
ATOM      7  N   UNL     1      47.382   4.699  13.956  0.00  0.00    +0.000 NA
BRANCH   2   8
ATOM      8  C   UNL     1      48.490   6.903  14.019  0.00  0.00    +0.000 C 
BRANCH   8   9
ATOM      9  N   UNL     1      49.721   6.919  13.225  0.00  0.00    +0.000 NA
ATOM     10  H   UNL     1      49.529   7.382  12.338  0.00  0.00    +0.000 HD
ATOM     11  H   UNL     1      49.959   5.954  12.986  0.00  0.00    +0.000 HD
ENDBRANCH   8   9
ENDBRANCH   2   8
ENDBRANCH   1   5
BRANCH   1  12
ATOM     12  C   UNL     1      44.645   3.374  10.240  0.00  0.00    +0.000 C 
BRANCH  12  13
ATOM     13  N   UNL     1      44.727   2.036   9.636  0.00  0.00    +0.000 NA
ATOM     14  H   UNL     1      43.789   1.650   9.507  0.00  0.00    +0.000 HD
BRANCH  13  15
ATOM     15  C   UNL     1      45.356   2.095   8.319  0.00  0.00    +0.000 C 
ATOM     16  C   UNL     1      46.401   0.972   8.036  0.00  0.00    +0.000 C 
ATOM     17  O   UNL     1      47.080   1.174   6.788  0.00  0.00    +0.000 OA
ATOM     18  C   UNL     1      47.741   2.443   6.798  0.00  0.00    +0.000 C 
ATOM     19  C   UNL     1      46.734   3.580   7.028  0.00  0.00    +0.000 C 
ATOM     20  N   UNL     1      45.989   3.411   8.289  0.00  0.00    +0.000 NA
ATOM     21  H   UNL     1      45.245   4.102   8.339  0.00  0.00    +0.000 HD
ENDBRANCH  13  15
ENDBRANCH  12  13
ENDBRANCH   1  12
TORSDOF 6
ENDMDL
MODEL 9
REMARK VINA RESULT:    -5.834      2.995      6.702
REMARK INTER + INTRA:          -8.052
REMARK INTER:                  -7.756
REMARK INTRA:                  -0.295
REMARK UNBOUND:                -0.342
REMARK  Name = 
REMARK  6 active torsions:
REMARK  status: ('A' for Active; 'I' for Inactive)
REMARK    1  A    between atoms: N_1  and  C_2
REMARK    2  A    between atoms: C_2  and  C_3
REMARK    3  A    between atoms: C_6  and  C_7
REMARK    4  A    between atoms: C_7  and  C_8
REMARK    5  A    between atoms: C_8  and  N_9
REMARK    6  A    between atoms: N_9  and  C_10
REMARK                            x       y       z     vdW  Elec       q    Type
REMARK                         _______ _______ _______ _____ _____    ______ ____
ROOT
ATOM      1  C   UNL     1      44.584   5.274  11.066  0.00  0.00    +0.000 C 
ENDROOT
BRANCH   1   5
ATOM      2  C   UNL     1      47.011   7.978  13.225  0.00  0.00    +0.000 A 
ATOM      3  C   UNL     1      47.440   6.690  12.933  0.00  0.00    +0.000 A 
ATOM      4  N   UNL     1      46.688   5.804  12.238  0.00  0.00    +0.000 NA
ATOM      5  C   UNL     1      45.463   6.232  11.841  0.00  0.00    +0.000 A 
ATOM      6  C   UNL     1      45.047   7.531  12.108  0.00  0.00    +0.000 A 
ATOM      7  N   UNL     1      45.799   8.423  12.801  0.00  0.00    +0.000 NA
BRANCH   2   8
ATOM      8  C   UNL     1      47.874   8.904  14.046  0.00  0.00    +0.000 C 
BRANCH   8   9
ATOM      9  N   UNL     1      47.455   8.994  15.448  0.00  0.00    +0.000 NA
ATOM     10  H   UNL     1      47.209   8.060  15.773  0.00  0.00    +0.000 HD
ATOM     11  H   UNL     1      46.589   9.536  15.487  0.00  0.00    +0.000 HD
ENDBRANCH   8   9
ENDBRANCH   2   8
ENDBRANCH   1   5
BRANCH   1  12
ATOM     12  C   UNL     1      45.251   4.854   9.748  0.00  0.00    +0.000 C 
BRANCH  12  13
ATOM     13  N   UNL     1      44.309   4.349   8.740  0.00  0.00    +0.000 NA
ATOM     14  H   UNL     1      44.083   5.087   8.068  0.00  0.00    +0.000 HD
BRANCH  13  15
ATOM     15  C   UNL     1      44.894   3.243   7.985  0.00  0.00    +0.000 C 
ATOM     16  C   UNL     1      45.462   2.079   8.854  0.00  0.00    +0.000 C 
ATOM     17  O   UNL     1      46.146   1.101   8.058  0.00  0.00    +0.000 OA
ATOM     18  C   UNL     1      47.218   1.723   7.343  0.00  0.00    +0.000 C 
ATOM     19  C   UNL     1      46.689   2.846   6.438  0.00  0.00    +0.000 C 
ATOM     20  N   UNL     1      45.955   3.872   7.203  0.00  0.00    +0.000 NA
ATOM     21  H   UNL     1      45.508   4.521   6.560  0.00  0.00    +0.000 HD
ENDBRANCH  13  15
ENDBRANCH  12  13
ENDBRANCH   1  12
TORSDOF 6
ENDMDL
