MODEL 1
REMARK VINA RESULT:    -7.494      0.000      0.000
REMARK INTER + INTRA:         -11.126
REMARK INTER:                 -10.123
REMARK INTRA:                  -1.003
REMARK UNBOUND:                -1.003
REMARK  Name = 
REMARK  10 active torsions:
REMARK  status: ('A' for Active; 'I' for Inactive)
REMARK    1  A    between atoms: C_1  and  C_2
REMARK    2  A    between atoms: C_5  and  N_6
REMARK    3  A    between atoms: N_6  and  C_7
REMARK    4  A    between atoms: C_7  and  C_8
REMARK    5  A    between atoms: C_8  and  C_9
REMARK    6  A    between atoms: C_8  and  C_10
REMARK    7  A    between atoms: C_8  and  C_11
REMARK    8  A    between atoms: C_15  and  C_16
REMARK    9  A    between atoms: C_16  and  C_17
REMARK   10  A    between atoms: C_22  and  C_23
REMARK                            x       y       z     vdW  Elec       q    Type
REMARK                         _______ _______ _______ _____ _____    ______ ____
ROOT
ATOM      1  C   UNL     1      44.027   5.323  11.767  0.00  0.00    +0.000 C 
ATOM      2  C   UNL     1      42.481   5.374  11.850  0.00  0.00    +0.000 C 
ATOM      3  C   UNL     1      44.522   6.753  11.436  0.00  0.00    +0.000 C 
ENDROOT
BRANCH   1   4
ATOM      4  C   UNL     1      44.432   4.338  10.648  0.00  0.00    +0.000 A 
ATOM      5  C   UNL     1      43.954   3.016  10.651  0.00  0.00    +0.000 A 
ATOM      6  C   UNL     1      44.295   2.116   9.633  0.00  0.00    +0.000 A 
ATOM      7  C   UNL     1      45.097   2.526   8.569  0.00  0.00    +0.000 A 
ATOM      8  C   UNL     1      45.574   3.837   8.521  0.00  0.00    +0.000 A 
ATOM      9  C   UNL     1      45.273   4.708   9.582  0.00  0.00    +0.000 A 
BRANCH   8  10
ATOM     10  C   UNL     1      46.357   4.359   7.332  0.00  0.00    +0.000 C 
BRANCH  10  11
ATOM     11  C   UNL     1      47.143   3.309   6.594  0.00  0.00    +0.000 C 
ATOM     12  C   UNL     1      47.082   2.721   5.279  0.00  0.00    +0.000 C 
ATOM     13  N   UNL     1      48.070   1.899   5.656  0.00  0.00    +0.000 N 
ATOM     14  C   UNL     1      48.218   2.518   6.790  0.00  0.00    +0.000 C 
ATOM     15  H   UNL     1      48.704   1.426   5.027  0.00  0.00    +0.000 HD
ENDBRANCH  10  11
ENDBRANCH   8  10
ENDBRANCH   1   4
BRANCH   1  16
ATOM     16  C   UNL     1      44.546   4.941  13.198  0.00  0.00    +0.000 C 
BRANCH  16  17
ATOM     17  N   UNL     1      45.974   4.626  13.200  0.00  0.00    +0.000 N 
ATOM     18  H   UNL     1      46.401   4.505  12.289  0.00  0.00    +0.000 HD
BRANCH  17  23
ATOM     19  C   UNL     1      49.724   6.155  17.163  0.00  0.00    +0.000 C 
ATOM     20  C   UNL     1      48.724   5.710  16.141  0.00  0.00    +0.000 A 
ATOM     21  C   UNL     1      47.872   4.647  16.389  0.00  0.00    +0.000 A 
ATOM     22  C   UNL     1      46.947   4.283  15.409  0.00  0.00    +0.000 A 
ATOM     23  C   UNL     1      46.858   4.989  14.206  0.00  0.00    +0.000 A 
ATOM     24  C   UNL     1      47.804   6.017  14.023  0.00  0.00    +0.000 A 
ATOM     25  C   UNL     1      47.933   6.786  12.737  0.00  0.00    +0.000 C 
ATOM     26  N   UNL     1      48.706   6.388  14.973  0.00  0.00    +0.000 NA
ENDBRANCH  17  23
ENDBRANCH  16  17
ENDBRANCH   1  16
TORSDOF 6
ENDMDL
MODEL 2
REMARK VINA RESULT:    -7.345      1.293      1.743
REMARK INTER + INTRA:         -10.925
REMARK INTER:                 -10.049
REMARK INTRA:                  -0.876
REMARK UNBOUND:                -1.003
REMARK  Name = 
REMARK  10 active torsions:
REMARK  status: ('A' for Active; 'I' for Inactive)
REMARK    1  A    between atoms: C_1  and  C_2
REMARK    2  A    between atoms: C_5  and  N_6
REMARK    3  A    between atoms: N_6  and  C_7
REMARK    4  A    between atoms: C_7  and  C_8
REMARK    5  A    between atoms: C_8  and  C_9
REMARK    6  A    between atoms: C_8  and  C_10
REMARK    7  A    between atoms: C_8  and  C_11
REMARK    8  A    between atoms: C_15  and  C_16
REMARK    9  A    between atoms: C_16  and  C_17
REMARK   10  A    between atoms: C_22  and  C_23
REMARK                            x       y       z     vdW  Elec       q    Type
REMARK                         _______ _______ _______ _____ _____    ______ ____
ROOT
ATOM      1  C   UNL     1      45.600   6.195  11.706  0.00  0.00    +0.000 C 
ATOM      2  C   UNL     1      44.595   7.335  11.406  0.00  0.00    +0.000 C 
ATOM      3  C   UNL     1      46.997   6.668  11.231  0.00  0.00    +0.000 C 
ENDROOT
BRANCH   1   4
ATOM      4  C   UNL     1      45.164   4.932  10.932  0.00  0.00    +0.000 A 
ATOM      5  C   UNL     1      44.329   3.975  11.535  0.00  0.00    +0.000 A 
ATOM      6  C   UNL     1      43.909   2.834  10.840  0.00  0.00    +0.000 A 
ATOM      7  C   UNL     1      44.287   2.638   9.512  0.00  0.00    +0.000 A 
ATOM      8  C   UNL     1      45.099   3.576   8.873  0.00  0.00    +0.000 A 
ATOM      9  C   UNL     1      45.562   4.683   9.605  0.00  0.00    +0.000 A 
BRANCH   8  10
ATOM     10  C   UNL     1      45.446   3.462   7.402  0.00  0.00    +0.000 C 
BRANCH  10  11
ATOM     11  C   UNL     1      46.668   2.631   7.113  0.00  0.00    +0.000 C 
ATOM     12  C   UNL     1      47.053   1.262   7.350  0.00  0.00    +0.000 C 
ATOM     13  N   UNL     1      48.255   1.566   6.844  0.00  0.00    +0.000 N 
ATOM     14  C   UNL     1      47.865   2.760   6.505  0.00  0.00    +0.000 C 
ATOM     15  H   UNL     1      48.904   0.901   6.445  0.00  0.00    +0.000 HD
ENDBRANCH  10  11
ENDBRANCH   8  10
ENDBRANCH   1   4
BRANCH   1  16
ATOM     16  C   UNL     1      45.643   6.027  13.267  0.00  0.00    +0.000 C 
BRANCH  16  17
ATOM     17  N   UNL     1      46.990   6.211  13.805  0.00  0.00    +0.000 N 
ATOM     18  H   UNL     1      47.398   7.128  13.667  0.00  0.00    +0.000 HD
BRANCH  17  23
ATOM     19  C   UNL     1      49.306   3.403  18.146  0.00  0.00    +0.000 C 
ATOM     20  C   UNL     1      48.671   4.104  16.986  0.00  0.00    +0.000 A 
ATOM     21  C   UNL     1      47.653   3.509  16.260  0.00  0.00    +0.000 A 
ATOM     22  C   UNL     1      47.085   4.212  15.197  0.00  0.00    +0.000 A 
ATOM     23  C   UNL     1      47.511   5.504  14.879  0.00  0.00    +0.000 A 
ATOM     24  C   UNL     1      48.589   6.002  15.638  0.00  0.00    +0.000 A 
ATOM     25  C   UNL     1      49.256   7.317  15.342  0.00  0.00    +0.000 C 
ATOM     26  N   UNL     1      49.148   5.330  16.682  0.00  0.00    +0.000 NA
ENDBRANCH  17  23
ENDBRANCH  16  17
ENDBRANCH   1  16
TORSDOF 6
ENDMDL
MODEL 3
REMARK VINA RESULT:    -7.019      1.249      2.391
REMARK INTER + INTRA:         -10.484
REMARK INTER:                  -9.541
REMARK INTRA:                  -0.943
REMARK UNBOUND:                -1.003
REMARK  Name = 
REMARK  10 active torsions:
REMARK  status: ('A' for Active; 'I' for Inactive)
REMARK    1  A    between atoms: C_1  and  C_2
REMARK    2  A    between atoms: C_5  and  N_6
REMARK    3  A    between atoms: N_6  and  C_7
REMARK    4  A    between atoms: C_7  and  C_8
REMARK    5  A    between atoms: C_8  and  C_9
REMARK    6  A    between atoms: C_8  and  C_10
REMARK    7  A    between atoms: C_8  and  C_11
REMARK    8  A    between atoms: C_15  and  C_16
REMARK    9  A    between atoms: C_16  and  C_17
REMARK   10  A    between atoms: C_22  and  C_23
REMARK                            x       y       z     vdW  Elec       q    Type
REMARK                         _______ _______ _______ _____ _____    ______ ____
ROOT
ATOM      1  C   UNL     1      44.354   5.144  12.149  0.00  0.00    +0.000 C 
ATOM      2  C   UNL     1      43.068   4.676  12.874  0.00  0.00    +0.000 C 
ATOM      3  C   UNL     1      44.123   6.604  11.687  0.00  0.00    +0.000 C 
ENDROOT
BRANCH   1   4
ATOM      4  C   UNL     1      44.602   4.224  10.933  0.00  0.00    +0.000 A 
ATOM      5  C   UNL     1      44.021   2.946  10.872  0.00  0.00    +0.000 A 
ATOM      6  C   UNL     1      44.219   2.108   9.767  0.00  0.00    +0.000 A 
ATOM      7  C   UNL     1      44.979   2.541   8.681  0.00  0.00    +0.000 A 
ATOM      8  C   UNL     1      45.556   3.811   8.697  0.00  0.00    +0.000 A 
ATOM      9  C   UNL     1      45.398   4.614   9.839  0.00  0.00    +0.000 A 
BRANCH   8  10
ATOM     10  C   UNL     1      46.298   4.367   7.497  0.00  0.00    +0.000 C 
BRANCH  10  11
ATOM     11  C   UNL     1      47.089   3.344   6.726  0.00  0.00    +0.000 C 
ATOM     12  C   UNL     1      47.117   2.892   5.357  0.00  0.00    +0.000 C 
ATOM     13  N   UNL     1      48.019   1.976   5.731  0.00  0.00    +0.000 N 
ATOM     14  C   UNL     1      48.095   2.471   6.932  0.00  0.00    +0.000 C 
ATOM     15  H   UNL     1      48.681   1.526   5.115  0.00  0.00    +0.000 HD
ENDBRANCH  10  11
ENDBRANCH   8  10
ENDBRANCH   1   4
BRANCH   1  16
ATOM     16  C   UNL     1      45.504   5.143  13.219  0.00  0.00    +0.000 C 
BRANCH  16  17
ATOM     17  N   UNL     1      46.071   6.475  13.420  0.00  0.00    +0.000 N 
ATOM     18  H   UNL     1      45.706   6.996  14.209  0.00  0.00    +0.000 HD
BRANCH  17  23
ATOM     19  C   UNL     1      51.302   8.096  11.967  0.00  0.00    +0.000 C 
ATOM     20  C   UNL     1      49.902   7.692  12.312  0.00  0.00    +0.000 A 
ATOM     21  C   UNL     1      48.862   7.877  11.417  0.00  0.00    +0.000 A 
ATOM     22  C   UNL     1      47.579   7.468  11.782  0.00  0.00    +0.000 A 
ATOM     23  C   UNL     1      47.342   6.858  13.016  0.00  0.00    +0.000 A 
ATOM     24  C   UNL     1      48.451   6.764  13.880  0.00  0.00    +0.000 A 
ATOM     25  C   UNL     1      48.344   6.256  15.292  0.00  0.00    +0.000 C 
ATOM     26  N   UNL     1      49.710   7.152  13.534  0.00  0.00    +0.000 NA
ENDBRANCH  17  23
ENDBRANCH  16  17
ENDBRANCH   1  16
TORSDOF 6
ENDMDL
MODEL 4
REMARK VINA RESULT:    -7.009      1.874      2.825
REMARK INTER + INTRA:         -10.471
REMARK INTER:                  -9.403
REMARK INTRA:                  -1.068
REMARK UNBOUND:                -1.003
REMARK  Name = 
REMARK  10 active torsions:
REMARK  status: ('A' for Active; 'I' for Inactive)
REMARK    1  A    between atoms: C_1  and  C_2
REMARK    2  A    between atoms: C_5  and  N_6
REMARK    3  A    between atoms: N_6  and  C_7
REMARK    4  A    between atoms: C_7  and  C_8
REMARK    5  A    between atoms: C_8  and  C_9
REMARK    6  A    between atoms: C_8  and  C_10
REMARK    7  A    between atoms: C_8  and  C_11
REMARK    8  A    between atoms: C_15  and  C_16
REMARK    9  A    between atoms: C_16  and  C_17
REMARK   10  A    between atoms: C_22  and  C_23
REMARK                            x       y       z     vdW  Elec       q    Type
REMARK                         _______ _______ _______ _____ _____    ______ ____
ROOT
ATOM      1  C   UNL     1      44.317   4.277  12.268  0.00  0.00    +0.000 C 
ATOM      2  C   UNL     1      43.727   2.860  12.470  0.00  0.00    +0.000 C 
ATOM      3  C   UNL     1      43.160   5.293  12.444  0.00  0.00    +0.000 C 
ENDROOT
BRANCH   1   4
ATOM      4  C   UNL     1      44.906   4.371  10.842  0.00  0.00    +0.000 A 
ATOM      5  C   UNL     1      45.377   5.597  10.341  0.00  0.00    +0.000 A 
ATOM      6  C   UNL     1      45.932   5.695   9.060  0.00  0.00    +0.000 A 
ATOM      7  C   UNL     1      46.061   4.561   8.259  0.00  0.00    +0.000 A 
ATOM      8  C   UNL     1      45.624   3.322   8.729  0.00  0.00    +0.000 A 
ATOM      9  C   UNL     1      45.012   3.254   9.993  0.00  0.00    +0.000 A 
BRANCH   8  10
ATOM     10  C   UNL     1      45.841   2.045   7.941  0.00  0.00    +0.000 C 
BRANCH  10  11
ATOM     11  C   UNL     1      46.881   2.152   6.858  0.00  0.00    +0.000 C 
ATOM     12  C   UNL     1      48.296   1.889   6.769  0.00  0.00    +0.000 C 
ATOM     13  N   UNL     1      48.255   2.368   5.519  0.00  0.00    +0.000 N 
ATOM     14  C   UNL     1      46.959   2.476   5.551  0.00  0.00    +0.000 C 
ATOM     15  H   UNL     1      48.923   2.153   4.792  0.00  0.00    +0.000 HD
ENDBRANCH  10  11
ENDBRANCH   8  10
ENDBRANCH   1   4
BRANCH   1  16
ATOM     16  C   UNL     1      45.354   4.507  13.424  0.00  0.00    +0.000 C 
BRANCH  16  17
ATOM     17  N   UNL     1      45.586   5.928  13.682  0.00  0.00    +0.000 N 
ATOM     18  H   UNL     1      45.178   6.294  14.533  0.00  0.00    +0.000 HD
BRANCH  17  23
ATOM     19  C   UNL     1      49.919   8.951  11.635  0.00  0.00    +0.000 C 
ATOM     20  C   UNL     1      48.802   8.111  12.172  0.00  0.00    +0.000 A 
ATOM     21  C   UNL     1      49.011   6.795  12.547  0.00  0.00    +0.000 A 
ATOM     22  C   UNL     1      47.939   6.062  13.056  0.00  0.00    +0.000 A 
ATOM     23  C   UNL     1      46.678   6.644  13.213  0.00  0.00    +0.000 A 
ATOM     24  C   UNL     1      46.550   7.969  12.751  0.00  0.00    +0.000 A 
ATOM     25  C   UNL     1      45.235   8.698  12.723  0.00  0.00    +0.000 C 
ATOM     26  N   UNL     1      47.589   8.699  12.259  0.00  0.00    +0.000 NA
ENDBRANCH  17  23
ENDBRANCH  16  17
ENDBRANCH   1  16
TORSDOF 6
ENDMDL
MODEL 5
REMARK VINA RESULT:    -6.880      2.625      6.947
REMARK INTER + INTRA:         -10.296
REMARK INTER:                  -9.259
REMARK INTRA:                  -1.038
REMARK UNBOUND:                -1.003
REMARK  Name = 
REMARK  10 active torsions:
REMARK  status: ('A' for Active; 'I' for Inactive)
REMARK    1  A    between atoms: C_1  and  C_2
REMARK    2  A    between atoms: C_5  and  N_6
REMARK    3  A    between atoms: N_6  and  C_7
REMARK    4  A    between atoms: C_7  and  C_8
REMARK    5  A    between atoms: C_8  and  C_9
REMARK    6  A    between atoms: C_8  and  C_10
REMARK    7  A    between atoms: C_8  and  C_11
REMARK    8  A    between atoms: C_15  and  C_16
REMARK    9  A    between atoms: C_16  and  C_17
REMARK   10  A    between atoms: C_22  and  C_23
REMARK                            x       y       z     vdW  Elec       q    Type
REMARK                         _______ _______ _______ _____ _____    ______ ____
ROOT
ATOM      1  C   UNL     1      44.093   4.683  12.087  0.00  0.00    +0.000 C 
ATOM      2  C   UNL     1      43.059   5.124  11.022  0.00  0.00    +0.000 C 
ATOM      3  C   UNL     1      43.315   4.359  13.386  0.00  0.00    +0.000 C 
ENDROOT
BRANCH   1   4
ATOM      4  C   UNL     1      45.086   5.843  12.326  0.00  0.00    +0.000 A 
ATOM      5  C   UNL     1      46.456   5.586  12.509  0.00  0.00    +0.000 A 
ATOM      6  C   UNL     1      47.372   6.627  12.706  0.00  0.00    +0.000 A 
ATOM      7  C   UNL     1      46.944   7.954  12.692  0.00  0.00    +0.000 A 
ATOM      8  C   UNL     1      45.595   8.249  12.493  0.00  0.00    +0.000 A 
ATOM      9  C   UNL     1      44.681   7.190  12.359  0.00  0.00    +0.000 A 
BRANCH   8  10
ATOM     10  C   UNL     1      45.100   9.676  12.362  0.00  0.00    +0.000 C 
BRANCH  10  11
ATOM     11  C   UNL     1      44.276   9.939  11.130  0.00  0.00    +0.000 C 
ATOM     12  C   UNL     1      42.989   9.501  10.648  0.00  0.00    +0.000 C 
ATOM     13  N   UNL     1      43.238  10.178   9.520  0.00  0.00    +0.000 N 
ATOM     14  C   UNL     1      44.333  10.683  10.007  0.00  0.00    +0.000 C 
ATOM     15  H   UNL     1      42.534  10.516   8.878  0.00  0.00    +0.000 HD
ENDBRANCH  10  11
ENDBRANCH   8  10
ENDBRANCH   1   4
BRANCH   1  16
ATOM     16  C   UNL     1      44.748   3.356  11.562  0.00  0.00    +0.000 C 
BRANCH  16  17
ATOM     17  N   UNL     1      44.387   3.076  10.173  0.00  0.00    +0.000 N 
ATOM     18  H   UNL     1      43.515   3.479   9.853  0.00  0.00    +0.000 HD
BRANCH  17  23
ATOM     19  C   UNL     1      48.054   2.140   5.956  0.00  0.00    +0.000 C 
ATOM     20  C   UNL     1      47.069   2.341   7.066  0.00  0.00    +0.000 A 
ATOM     21  C   UNL     1      46.410   1.268   7.641  0.00  0.00    +0.000 A 
ATOM     22  C   UNL     1      45.514   1.509   8.684  0.00  0.00    +0.000 A 
ATOM     23  C   UNL     1      45.299   2.804   9.163  0.00  0.00    +0.000 A 
ATOM     24  C   UNL     1      45.973   3.834   8.478  0.00  0.00    +0.000 A 
ATOM     25  C   UNL     1      45.752   5.291   8.777  0.00  0.00    +0.000 C 
ATOM     26  N   UNL     1      46.854   3.613   7.465  0.00  0.00    +0.000 NA
ENDBRANCH  17  23
ENDBRANCH  16  17
ENDBRANCH   1  16
TORSDOF 6
ENDMDL
MODEL 6
REMARK VINA RESULT:    -6.836      1.667      7.525
REMARK INTER + INTRA:         -10.236
REMARK INTER:                  -9.354
REMARK INTRA:                  -0.882
REMARK UNBOUND:                -1.003
REMARK  Name = 
REMARK  10 active torsions:
REMARK  status: ('A' for Active; 'I' for Inactive)
REMARK    1  A    between atoms: C_1  and  C_2
REMARK    2  A    between atoms: C_5  and  N_6
REMARK    3  A    between atoms: N_6  and  C_7
REMARK    4  A    between atoms: C_7  and  C_8
REMARK    5  A    between atoms: C_8  and  C_9
REMARK    6  A    between atoms: C_8  and  C_10
REMARK    7  A    between atoms: C_8  and  C_11
REMARK    8  A    between atoms: C_15  and  C_16
REMARK    9  A    between atoms: C_16  and  C_17
REMARK   10  A    between atoms: C_22  and  C_23
REMARK                            x       y       z     vdW  Elec       q    Type
REMARK                         _______ _______ _______ _____ _____    ______ ____
ROOT
ATOM      1  C   UNL     1      44.729   4.950  12.131  0.00  0.00    +0.000 C 
ATOM      2  C   UNL     1      43.628   5.422  13.113  0.00  0.00    +0.000 C 
ATOM      3  C   UNL     1      44.826   3.408  12.246  0.00  0.00    +0.000 C 
ENDROOT
BRANCH   1   4
ATOM      4  C   UNL     1      46.068   5.608  12.533  0.00  0.00    +0.000 A 
ATOM      5  C   UNL     1      46.722   6.492  11.658  0.00  0.00    +0.000 A 
ATOM      6  C   UNL     1      47.926   7.113  12.015  0.00  0.00    +0.000 A 
ATOM      7  C   UNL     1      48.489   6.889  13.271  0.00  0.00    +0.000 A 
ATOM      8  C   UNL     1      47.858   6.033  14.175  0.00  0.00    +0.000 A 
ATOM      9  C   UNL     1      46.684   5.371  13.776  0.00  0.00    +0.000 A 
BRANCH   8  10
ATOM     10  C   UNL     1      48.373   5.843  15.588  0.00  0.00    +0.000 C 
BRANCH  10  11
ATOM     11  C   UNL     1      47.826   4.630  16.292  0.00  0.00    +0.000 C 
ATOM     12  C   UNL     1      47.030   4.405  17.474  0.00  0.00    +0.000 C 
ATOM     13  N   UNL     1      47.192   3.091  17.271  0.00  0.00    +0.000 N 
ATOM     14  C   UNL     1      47.791   3.292  16.134  0.00  0.00    +0.000 C 
ATOM     15  H   UNL     1      46.580   2.368  17.623  0.00  0.00    +0.000 HD
ENDBRANCH  10  11
ENDBRANCH   8  10
ENDBRANCH   1   4
BRANCH   1  16
ATOM     16  C   UNL     1      44.231   5.305  10.685  0.00  0.00    +0.000 C 
BRANCH  16  17
ATOM     17  N   UNL     1      44.096   4.118   9.842  0.00  0.00    +0.000 N 
ATOM     18  H   UNL     1      43.147   3.817   9.652  0.00  0.00    +0.000 HD
BRANCH  17  23
ATOM     19  C   UNL     1      47.924   2.301   6.082  0.00  0.00    +0.000 C 
ATOM     20  C   UNL     1      46.935   2.824   7.076  0.00  0.00    +0.000 A 
ATOM     21  C   UNL     1      46.876   4.173   7.385  0.00  0.00    +0.000 A 
ATOM     22  C   UNL     1      45.925   4.611   8.308  0.00  0.00    +0.000 A 
ATOM     23  C   UNL     1      45.026   3.716   8.895  0.00  0.00    +0.000 A 
ATOM     24  C   UNL     1      45.201   2.358   8.560  0.00  0.00    +0.000 A 
ATOM     25  C   UNL     1      44.408   1.253   9.201  0.00  0.00    +0.000 C 
ATOM     26  N   UNL     1      46.119   1.918   7.657  0.00  0.00    +0.000 NA
ENDBRANCH  17  23
ENDBRANCH  16  17
ENDBRANCH   1  16
TORSDOF 6
ENDMDL
MODEL 7
REMARK VINA RESULT:    -6.818      1.168      1.933
REMARK INTER + INTRA:         -10.212
REMARK INTER:                  -9.473
REMARK INTRA:                  -0.739
REMARK UNBOUND:                -1.003
REMARK  Name = 
REMARK  10 active torsions:
REMARK  status: ('A' for Active; 'I' for Inactive)
REMARK    1  A    between atoms: C_1  and  C_2
REMARK    2  A    between atoms: C_5  and  N_6
REMARK    3  A    between atoms: N_6  and  C_7
REMARK    4  A    between atoms: C_7  and  C_8
REMARK    5  A    between atoms: C_8  and  C_9
REMARK    6  A    between atoms: C_8  and  C_10
REMARK    7  A    between atoms: C_8  and  C_11
REMARK    8  A    between atoms: C_15  and  C_16
REMARK    9  A    between atoms: C_16  and  C_17
REMARK   10  A    between atoms: C_22  and  C_23
REMARK                            x       y       z     vdW  Elec       q    Type
REMARK                         _______ _______ _______ _____ _____    ______ ____
ROOT
ATOM      1  C   UNL     1      45.193   5.974  11.782  0.00  0.00    +0.000 C 
ATOM      2  C   UNL     1      44.296   5.833  13.037  0.00  0.00    +0.000 C 
ATOM      3  C   UNL     1      44.763   7.265  11.044  0.00  0.00    +0.000 C 
ENDROOT
BRANCH   1   4
ATOM      4  C   UNL     1      44.981   4.738  10.879  0.00  0.00    +0.000 A 
ATOM      5  C   UNL     1      44.269   3.621  11.350  0.00  0.00    +0.000 A 
ATOM      6  C   UNL     1      44.051   2.501  10.538  0.00  0.00    +0.000 A 
ATOM      7  C   UNL     1      44.511   2.484   9.222  0.00  0.00    +0.000 A 
ATOM      8  C   UNL     1      45.204   3.583   8.712  0.00  0.00    +0.000 A 
ATOM      9  C   UNL     1      45.468   4.672   9.560  0.00  0.00    +0.000 A 
BRANCH   8  10
ATOM     10  C   UNL     1      45.629   3.656   7.258  0.00  0.00    +0.000 C 
BRANCH  10  11
ATOM     11  C   UNL     1      46.832   2.818   6.918  0.00  0.00    +0.000 C 
ATOM     12  C   UNL     1      47.360   1.554   7.370  0.00  0.00    +0.000 C 
ATOM     13  N   UNL     1      48.415   1.768   6.574  0.00  0.00    +0.000 N 
ATOM     14  C   UNL     1      47.876   2.836   6.065  0.00  0.00    +0.000 C 
ATOM     15  H   UNL     1      49.024   1.048   6.209  0.00  0.00    +0.000 HD
ENDBRANCH  10  11
ENDBRANCH   8  10
ENDBRANCH   1   4
BRANCH   1  16
ATOM     16  C   UNL     1      46.664   6.167  12.295  0.00  0.00    +0.000 C 
BRANCH  16  17
ATOM     17  N   UNL     1      46.766   6.018  13.747  0.00  0.00    +0.000 N 
ATOM     18  H   UNL     1      46.083   5.405  14.176  0.00  0.00    +0.000 HD
BRANCH  17  23
ATOM     19  C   UNL     1      51.447   6.599  16.885  0.00  0.00    +0.000 C 
ATOM     20  C   UNL     1      50.220   6.488  16.034  0.00  0.00    +0.000 A 
ATOM     21  C   UNL     1      50.017   7.335  14.957  0.00  0.00    +0.000 A 
ATOM     22  C   UNL     1      48.864   7.178  14.187  0.00  0.00    +0.000 A 
ATOM     23  C   UNL     1      47.938   6.172  14.473  0.00  0.00    +0.000 A 
ATOM     24  C   UNL     1      48.204   5.398  15.620  0.00  0.00    +0.000 A 
ATOM     25  C   UNL     1      47.246   4.363  16.145  0.00  0.00    +0.000 C 
ATOM     26  N   UNL     1      49.327   5.534  16.376  0.00  0.00    +0.000 NA
ENDBRANCH  17  23
ENDBRANCH  16  17
ENDBRANCH   1  16
TORSDOF 6
ENDMDL
MODEL 8
REMARK VINA RESULT:    -6.731      2.037      7.088
REMARK INTER + INTRA:         -10.095
REMARK INTER:                  -9.011
REMARK INTRA:                  -1.084
REMARK UNBOUND:                -1.003
REMARK  Name = 
REMARK  10 active torsions:
REMARK  status: ('A' for Active; 'I' for Inactive)
REMARK    1  A    between atoms: C_1  and  C_2
REMARK    2  A    between atoms: C_5  and  N_6
REMARK    3  A    between atoms: N_6  and  C_7
REMARK    4  A    between atoms: C_7  and  C_8
REMARK    5  A    between atoms: C_8  and  C_9
REMARK    6  A    between atoms: C_8  and  C_10
REMARK    7  A    between atoms: C_8  and  C_11
REMARK    8  A    between atoms: C_15  and  C_16
REMARK    9  A    between atoms: C_16  and  C_17
REMARK   10  A    between atoms: C_22  and  C_23
REMARK                            x       y       z     vdW  Elec       q    Type
REMARK                         _______ _______ _______ _____ _____    ______ ____
ROOT
ATOM      1  C   UNL     1      44.027   4.725  11.906  0.00  0.00    +0.000 C 
ATOM      2  C   UNL     1      42.839   5.328  12.695  0.00  0.00    +0.000 C 
ATOM      3  C   UNL     1      43.923   3.183  12.013  0.00  0.00    +0.000 C 
ENDROOT
BRANCH   1   4
ATOM      4  C   UNL     1      45.346   5.223  12.536  0.00  0.00    +0.000 A 
ATOM      5  C   UNL     1      45.863   4.613  13.692  0.00  0.00    +0.000 A 
ATOM      6  C   UNL     1      47.068   5.039  14.264  0.00  0.00    +0.000 A 
ATOM      7  C   UNL     1      47.803   6.067  13.675  0.00  0.00    +0.000 A 
ATOM      8  C   UNL     1      47.333   6.684  12.516  0.00  0.00    +0.000 A 
ATOM      9  C   UNL     1      46.092   6.286  11.991  0.00  0.00    +0.000 A 
BRANCH   8  10
ATOM     10  C   UNL     1      48.148   7.729  11.779  0.00  0.00    +0.000 C 
BRANCH  10  11
ATOM     11  C   UNL     1      47.840   9.150  12.172  0.00  0.00    +0.000 C 
ATOM     12  C   UNL     1      48.569  10.214  12.818  0.00  0.00    +0.000 C 
ATOM     13  N   UNL     1      47.445  10.941  12.774  0.00  0.00    +0.000 N 
ATOM     14  C   UNL     1      46.829  10.036  12.072  0.00  0.00    +0.000 C 
ATOM     15  H   UNL     1      47.404  11.950  12.809  0.00  0.00    +0.000 HD
ENDBRANCH  10  11
ENDBRANCH   8  10
ENDBRANCH   1   4
BRANCH   1  16
ATOM     16  C   UNL     1      43.824   5.128  10.402  0.00  0.00    +0.000 C 
BRANCH  16  17
ATOM     17  N   UNL     1      43.828   3.966   9.514  0.00  0.00    +0.000 N 
ATOM     18  H   UNL     1      42.920   3.660   9.184  0.00  0.00    +0.000 HD
BRANCH  17  23
ATOM     19  C   UNL     1      48.191   2.319   6.297  0.00  0.00    +0.000 C 
ATOM     20  C   UNL     1      47.057   2.799   7.149  0.00  0.00    +0.000 A 
ATOM     21  C   UNL     1      46.860   4.150   7.384  0.00  0.00    +0.000 A 
ATOM     22  C   UNL     1      45.779   4.545   8.172  0.00  0.00    +0.000 A 
ATOM     23  C   UNL     1      44.889   3.604   8.698  0.00  0.00    +0.000 A 
ATOM     24  C   UNL     1      45.205   2.253   8.451  0.00  0.00    +0.000 A 
ATOM     25  C   UNL     1      44.430   1.112   9.052  0.00  0.00    +0.000 C 
ATOM     26  N   UNL     1      46.252   1.853   7.678  0.00  0.00    +0.000 NA
ENDBRANCH  17  23
ENDBRANCH  16  17
ENDBRANCH   1  16
TORSDOF 6
ENDMDL
MODEL 9
REMARK VINA RESULT:    -6.433      1.416      2.952
REMARK INTER + INTRA:          -9.693
REMARK INTER:                  -8.805
REMARK INTRA:                  -0.888
REMARK UNBOUND:                -1.003
REMARK  Name = 
REMARK  10 active torsions:
REMARK  status: ('A' for Active; 'I' for Inactive)
REMARK    1  A    between atoms: C_1  and  C_2
REMARK    2  A    between atoms: C_5  and  N_6
REMARK    3  A    between atoms: N_6  and  C_7
REMARK    4  A    between atoms: C_7  and  C_8
REMARK    5  A    between atoms: C_8  and  C_9
REMARK    6  A    between atoms: C_8  and  C_10
REMARK    7  A    between atoms: C_8  and  C_11
REMARK    8  A    between atoms: C_15  and  C_16
REMARK    9  A    between atoms: C_16  and  C_17
REMARK   10  A    between atoms: C_22  and  C_23
REMARK                            x       y       z     vdW  Elec       q    Type
REMARK                         _______ _______ _______ _____ _____    ______ ____
ROOT
ATOM      1  C   UNL     1      46.775   6.556  12.382  0.00  0.00    +0.000 C 
ATOM      2  C   UNL     1      46.121   7.707  13.186  0.00  0.00    +0.000 C 
ATOM      3  C   UNL     1      47.542   7.192  11.197  0.00  0.00    +0.000 C 
ENDROOT
BRANCH   1   4
ATOM      4  C   UNL     1      45.662   5.617  11.865  0.00  0.00    +0.000 A 
ATOM      5  C   UNL     1      44.623   5.202  12.716  0.00  0.00    +0.000 A 
ATOM      6  C   UNL     1      43.595   4.368  12.257  0.00  0.00    +0.000 A 
ATOM      7  C   UNL     1      43.564   3.955  10.926  0.00  0.00    +0.000 A 
ATOM      8  C   UNL     1      44.567   4.363  10.046  0.00  0.00    +0.000 A 
ATOM      9  C   UNL     1      45.624   5.148  10.538  0.00  0.00    +0.000 A 
BRANCH   8  10
ATOM     10  C   UNL     1      44.518   4.029   8.568  0.00  0.00    +0.000 C 
BRANCH  10  11
ATOM     11  C   UNL     1      45.638   3.143   8.092  0.00  0.00    +0.000 C 
ATOM     12  C   UNL     1      46.793   3.319   7.246  0.00  0.00    +0.000 C 
ATOM     13  N   UNL     1      47.032   2.009   7.387  0.00  0.00    +0.000 N 
ATOM     14  C   UNL     1      46.074   1.878   8.257  0.00  0.00    +0.000 C 
ATOM     15  H   UNL     1      47.932   1.566   7.262  0.00  0.00    +0.000 HD
ENDBRANCH  10  11
ENDBRANCH   8  10
ENDBRANCH   1   4
BRANCH   1  16
ATOM     16  C   UNL     1      47.819   5.873  13.335  0.00  0.00    +0.000 C 
BRANCH  16  17
ATOM     17  N   UNL     1      47.680   6.324  14.719  0.00  0.00    +0.000 N 
ATOM     18  H   UNL     1      46.740   6.559  15.014  0.00  0.00    +0.000 HD
BRANCH  17  23
ATOM     19  C   UNL     1      51.006   4.803  19.046  0.00  0.00    +0.000 C 
ATOM     20  C   UNL     1      50.151   5.248  17.901  0.00  0.00    +0.000 A 
ATOM     21  C   UNL     1      50.467   6.380  17.168  0.00  0.00    +0.000 A 
ATOM     22  C   UNL     1      49.645   6.741  16.100  0.00  0.00    +0.000 A 
ATOM     23  C   UNL     1      48.535   5.967  15.752  0.00  0.00    +0.000 A 
ATOM     24  C   UNL     1      48.263   4.868  16.590  0.00  0.00    +0.000 A 
ATOM     25  C   UNL     1      47.036   4.011  16.438  0.00  0.00    +0.000 C 
ATOM     26  N   UNL     1      49.060   4.499  17.631  0.00  0.00    +0.000 NA
ENDBRANCH  17  23
ENDBRANCH  16  17
ENDBRANCH   1  16
TORSDOF 6
ENDMDL
