MODEL 1
REMARK VINA RESULT:    -6.833      0.000      0.000
REMARK INTER + INTRA:          -8.583
REMARK INTER:                  -8.631
REMARK INTRA:                   0.048
REMARK UNBOUND:                 0.048
REMARK  Name = 
REMARK  5 active torsions:
REMARK  status: ('A' for Active; 'I' for Inactive)
REMARK    1  A    between atoms: N_1  and  C_2
REMARK    2  A    between atoms: C_2  and  C_3
REMARK    3  A    between atoms: C_3  and  C_4
REMARK    4  A    between atoms: N_14  and  C_15
REMARK    5  A    between atoms: C_15  and  C_16
REMARK                            x       y       z     vdW  Elec       q    Type
REMARK                         _______ _______ _______ _____ _____    ______ ____
ROOT
ATOM      1  C   UNL     1      43.862   4.307  11.413  0.00  0.00    +0.000 C 
ATOM      2  C   UNL     1      43.478   3.033  11.149  0.00  0.00    +0.000 C 
ATOM      3  N   UNL     1      44.063   2.196  10.225  0.00  0.00    +0.000 NA
ATOM      4  C   UNL     1      44.937   2.761   9.450  0.00  0.00    +0.000 C 
ATOM      5  C   UNL     1      45.609   2.021   8.370  0.00  0.00    +0.000 C 
ATOM      6  C   UNL     1      46.320   2.694   7.458  0.00  0.00    +0.000 C 
ATOM      7  F   UNL     1      46.893   1.971   6.471  0.00  0.00    +0.000 F 
ATOM      8  N   UNL     1      46.520   4.052   7.402  0.00  0.00    +0.000 NA
ATOM      9  C   UNL     1      46.080   4.749   8.401  0.00  0.00    +0.000 C 
ATOM     10  C   UNL     1      45.359   4.181   9.556  0.00  0.00    +0.000 C 
ATOM     11  N   UNL     1      44.918   4.902  10.674  0.00  0.00    +0.000 N 
ENDROOT
BRANCH   1  12
ATOM     12  C   UNL     1      43.065   5.132  12.412  0.00  0.00    +0.000 C 
BRANCH  12  13
ATOM     13  C   UNL     1      41.980   6.020  11.784  0.00  0.00    +0.000 C 
BRANCH  13  14
ATOM     14  N   UNL     1      42.540   7.261  11.248  0.00  0.00    +0.000 NA
ATOM     15  H   UNL     1      43.370   7.519  11.780  0.00  0.00    +0.000 HD
ATOM     16  H   UNL     1      41.878   8.026  11.370  0.00  0.00    +0.000 HD
ENDBRANCH  13  14
ENDBRANCH  12  13
ENDBRANCH   1  12
BRANCH  11  17
ATOM     17  C   UNL     1      45.704   6.044  11.185  0.00  0.00    +0.000 C 
BRANCH  17  18
ATOM     18  C   UNL     1      46.477   5.748  12.444  0.00  0.00    +0.000 A 
ATOM     19  C   UNL     1      46.358   4.565  13.181  0.00  0.00    +0.000 A 
ATOM     20  C   UNL     1      47.008   4.438  14.402  0.00  0.00    +0.000 A 
ATOM     21  C   UNL     1      47.790   5.491  14.842  0.00  0.00    +0.000 A 
ATOM     22  N   UNL     1      47.983   6.621  14.133  0.00  0.00    +0.000 NA
ATOM     23  C   UNL     1      47.333   6.722  12.956  0.00  0.00    +0.000 A 
ENDBRANCH  17  18
ENDBRANCH  11  17
TORSDOF 5
ENDMDL
MODEL 2
REMARK VINA RESULT:    -6.552      2.848      5.735
REMARK INTER + INTRA:          -8.227
REMARK INTER:                  -8.011
REMARK INTRA:                  -0.216
REMARK UNBOUND:                 0.048
REMARK  Name = 
REMARK  5 active torsions:
REMARK  status: ('A' for Active; 'I' for Inactive)
REMARK    1  A    between atoms: N_1  and  C_2
REMARK    2  A    between atoms: C_2  and  C_3
REMARK    3  A    between atoms: C_3  and  C_4
REMARK    4  A    between atoms: N_14  and  C_15
REMARK    5  A    between atoms: C_15  and  C_16
REMARK                            x       y       z     vdW  Elec       q    Type
REMARK                         _______ _______ _______ _____ _____    ______ ____
ROOT
ATOM      1  C   UNL     1      46.010   4.316  12.701  0.00  0.00    +0.000 C 
ATOM      2  C   UNL     1      46.652   4.238  13.893  0.00  0.00    +0.000 C 
ATOM      3  N   UNL     1      47.438   5.227  14.444  0.00  0.00    +0.000 NA
ATOM      4  C   UNL     1      47.695   6.225  13.656  0.00  0.00    +0.000 C 
ATOM      5  C   UNL     1      48.570   7.334  14.069  0.00  0.00    +0.000 C 
ATOM      6  C   UNL     1      48.990   8.214  13.153  0.00  0.00    +0.000 C 
ATOM      7  F   UNL     1      49.814   9.197  13.578  0.00  0.00    +0.000 F 
ATOM      8  N   UNL     1      48.688   8.221  11.813  0.00  0.00    +0.000 NA
ATOM      9  C   UNL     1      47.808   7.361  11.407  0.00  0.00    +0.000 C 
ATOM     10  C   UNL     1      47.151   6.371  12.282  0.00  0.00    +0.000 C 
ATOM     11  N   UNL     1      46.159   5.465  11.883  0.00  0.00    +0.000 N 
ENDROOT
BRANCH   1  12
ATOM     12  C   UNL     1      45.238   3.107  12.194  0.00  0.00    +0.000 C 
BRANCH  12  13
ATOM     13  C   UNL     1      43.751   3.093  12.580  0.00  0.00    +0.000 C 
BRANCH  13  14
ATOM     14  N   UNL     1      42.991   2.137  11.774  0.00  0.00    +0.000 NA
ATOM     15  H   UNL     1      43.634   1.502  11.302  0.00  0.00    +0.000 HD
ATOM     16  H   UNL     1      42.484   2.623  11.037  0.00  0.00    +0.000 HD
ENDBRANCH  13  14
ENDBRANCH  12  13
ENDBRANCH   1  12
BRANCH  11  17
ATOM     17  C   UNL     1      45.169   5.846  10.854  0.00  0.00    +0.000 C 
BRANCH  17  18
ATOM     18  C   UNL     1      45.274   5.062   9.573  0.00  0.00    +0.000 A 
ATOM     19  C   UNL     1      44.348   4.098   9.161  0.00  0.00    +0.000 A 
ATOM     20  C   UNL     1      44.599   3.329   8.033  0.00  0.00    +0.000 A 
ATOM     21  C   UNL     1      45.762   3.567   7.322  0.00  0.00    +0.000 A 
ATOM     22  N   UNL     1      46.649   4.529   7.647  0.00  0.00    +0.000 NA
ATOM     23  C   UNL     1      46.385   5.254   8.753  0.00  0.00    +0.000 A 
ENDBRANCH  17  18
ENDBRANCH  11  17
TORSDOF 5
ENDMDL
MODEL 3
REMARK VINA RESULT:    -6.502      2.840      5.630
REMARK INTER + INTRA:          -8.165
REMARK INTER:                  -7.599
REMARK INTRA:                  -0.566
REMARK UNBOUND:                 0.048
REMARK  Name = 
REMARK  5 active torsions:
REMARK  status: ('A' for Active; 'I' for Inactive)
REMARK    1  A    between atoms: N_1  and  C_2
REMARK    2  A    between atoms: C_2  and  C_3
REMARK    3  A    between atoms: C_3  and  C_4
REMARK    4  A    between atoms: N_14  and  C_15
REMARK    5  A    between atoms: C_15  and  C_16
REMARK                            x       y       z     vdW  Elec       q    Type
REMARK                         _______ _______ _______ _____ _____    ______ ____
ROOT
ATOM      1  C   UNL     1      44.858   7.894  11.571  0.00  0.00    +0.000 C 
ATOM      2  C   UNL     1      45.979   8.469  12.074  0.00  0.00    +0.000 C 
ATOM      3  N   UNL     1      46.953   7.821  12.802  0.00  0.00    +0.000 NA
ATOM      4  C   UNL     1      46.657   6.608  13.155  0.00  0.00    +0.000 C 
ATOM      5  C   UNL     1      47.562   5.799  13.987  0.00  0.00    +0.000 C 
ATOM      6  C   UNL     1      47.118   4.653  14.514  0.00  0.00    +0.000 C 
ATOM      7  F   UNL     1      47.979   3.962  15.294  0.00  0.00    +0.000 F 
ATOM      8  N   UNL     1      45.869   4.101  14.364  0.00  0.00    +0.000 NA
ATOM      9  C   UNL     1      45.069   4.685  13.529  0.00  0.00    +0.000 C 
ATOM     10  C   UNL     1      45.408   5.903  12.769  0.00  0.00    +0.000 C 
ATOM     11  N   UNL     1      44.584   6.525  11.821  0.00  0.00    +0.000 N 
ENDROOT
BRANCH   1  12
ATOM     12  C   UNL     1      43.838   8.763  10.850  0.00  0.00    +0.000 C 
BRANCH  12  13
ATOM     13  C   UNL     1      43.992  10.270  11.102  0.00  0.00    +0.000 C 
BRANCH  13  14
ATOM     14  N   UNL     1      42.970  10.772  12.021  0.00  0.00    +0.000 NA
ATOM     15  H   UNL     1      42.554  11.621  11.638  0.00  0.00    +0.000 HD
ATOM     16  H   UNL     1      43.396  11.042  12.906  0.00  0.00    +0.000 HD
ENDBRANCH  13  14
ENDBRANCH  12  13
ENDBRANCH   1  12
BRANCH  11  17
ATOM     17  C   UNL     1      43.700   5.718  10.955  0.00  0.00    +0.000 C 
BRANCH  17  18
ATOM     18  C   UNL     1      44.421   4.698  10.113  0.00  0.00    +0.000 A 
ATOM     19  C   UNL     1      45.379   5.014   9.144  0.00  0.00    +0.000 A 
ATOM     20  C   UNL     1      45.890   4.018   8.321  0.00  0.00    +0.000 A 
ATOM     21  C   UNL     1      45.452   2.720   8.511  0.00  0.00    +0.000 A 
ATOM     22  N   UNL     1      44.580   2.364   9.475  0.00  0.00    +0.000 NA
ATOM     23  C   UNL     1      44.092   3.351  10.254  0.00  0.00    +0.000 A 
ENDBRANCH  17  18
ENDBRANCH  11  17
TORSDOF 5
ENDMDL
MODEL 4
REMARK VINA RESULT:    -6.290      3.833      6.781
REMARK INTER + INTRA:          -7.897
REMARK INTER:                  -7.240
REMARK INTRA:                  -0.658
REMARK UNBOUND:                 0.048
REMARK  Name = 
REMARK  5 active torsions:
REMARK  status: ('A' for Active; 'I' for Inactive)
REMARK    1  A    between atoms: N_1  and  C_2
REMARK    2  A    between atoms: C_2  and  C_3
REMARK    3  A    between atoms: C_3  and  C_4
REMARK    4  A    between atoms: N_14  and  C_15
REMARK    5  A    between atoms: C_15  and  C_16
REMARK                            x       y       z     vdW  Elec       q    Type
REMARK                         _______ _______ _______ _____ _____    ______ ____
ROOT
ATOM      1  C   UNL     1      47.625   6.231  13.460  0.00  0.00    +0.000 C 
ATOM      2  C   UNL     1      48.516   6.927  14.209  0.00  0.00    +0.000 C 
ATOM      3  N   UNL     1      49.021   6.529  15.427  0.00  0.00    +0.000 NA
ATOM      4  C   UNL     1      48.449   5.484  15.942  0.00  0.00    +0.000 C 
ATOM      5  C   UNL     1      48.828   4.965  17.266  0.00  0.00    +0.000 C 
ATOM      6  C   UNL     1      48.062   4.039  17.852  0.00  0.00    +0.000 C 
ATOM      7  F   UNL     1      48.437   3.617  19.079  0.00  0.00    +0.000 F 
ATOM      8  N   UNL     1      46.915   3.474  17.347  0.00  0.00    +0.000 NA
ATOM      9  C   UNL     1      46.603   3.777  16.127  0.00  0.00    +0.000 C 
ATOM     10  C   UNL     1      47.377   4.701  15.277  0.00  0.00    +0.000 C 
ATOM     11  N   UNL     1      47.093   5.006  13.939  0.00  0.00    +0.000 N 
ENDROOT
BRANCH   1  12
ATOM     12  C   UNL     1      47.105   6.841  12.167  0.00  0.00    +0.000 C 
BRANCH  12  13
ATOM     13  C   UNL     1      46.331   8.156  12.349  0.00  0.00    +0.000 C 
BRANCH  13  14
ATOM     14  N   UNL     1      44.896   7.921  12.514  0.00  0.00    +0.000 NA
ATOM     15  H   UNL     1      44.426   8.803  12.713  0.00  0.00    +0.000 HD
ATOM     16  H   UNL     1      44.728   7.325  13.322  0.00  0.00    +0.000 HD
ENDBRANCH  13  14
ENDBRANCH  12  13
ENDBRANCH   1  12
BRANCH  11  17
ATOM     17  C   UNL     1      46.529   3.976  13.041  0.00  0.00    +0.000 C 
BRANCH  17  18
ATOM     18  C   UNL     1      45.157   4.301  12.512  0.00  0.00    +0.000 A 
ATOM     19  C   UNL     1      44.800   4.238  11.160  0.00  0.00    +0.000 A 
ATOM     20  C   UNL     1      43.552   4.687  10.750  0.00  0.00    +0.000 A 
ATOM     21  C   UNL     1      42.675   5.161  11.710  0.00  0.00    +0.000 A 
ATOM     22  N   UNL     1      42.956   5.178  13.028  0.00  0.00    +0.000 NA
ATOM     23  C   UNL     1      44.178   4.745  13.399  0.00  0.00    +0.000 A 
ENDBRANCH  17  18
ENDBRANCH  11  17
TORSDOF 5
ENDMDL
MODEL 5
REMARK VINA RESULT:    -6.158      3.431      5.809
REMARK INTER + INTRA:          -7.729
REMARK INTER:                  -7.287
REMARK INTRA:                  -0.442
REMARK UNBOUND:                 0.048
REMARK  Name = 
REMARK  5 active torsions:
REMARK  status: ('A' for Active; 'I' for Inactive)
REMARK    1  A    between atoms: N_1  and  C_2
REMARK    2  A    between atoms: C_2  and  C_3
REMARK    3  A    between atoms: C_3  and  C_4
REMARK    4  A    between atoms: N_14  and  C_15
REMARK    5  A    between atoms: C_15  and  C_16
REMARK                            x       y       z     vdW  Elec       q    Type
REMARK                         _______ _______ _______ _____ _____    ______ ____
ROOT
ATOM      1  C   UNL     1      46.015   5.522  12.105  0.00  0.00    +0.000 C 
ATOM      2  C   UNL     1      45.768   4.243  12.483  0.00  0.00    +0.000 C 
ATOM      3  N   UNL     1      46.080   3.697  13.709  0.00  0.00    +0.000 NA
ATOM      4  C   UNL     1      46.816   4.446  14.471  0.00  0.00    +0.000 C 
ATOM      5  C   UNL     1      47.289   3.987  15.787  0.00  0.00    +0.000 C 
ATOM      6  C   UNL     1      48.226   4.692  16.430  0.00  0.00    +0.000 C 
ATOM      7  F   UNL     1      48.647   4.213  17.621  0.00  0.00    +0.000 F 
ATOM      8  N   UNL     1      48.828   5.851  16.003  0.00  0.00    +0.000 NA
ATOM      9  C   UNL     1      48.358   6.390  14.922  0.00  0.00    +0.000 C 
ATOM     10  C   UNL     1      47.256   5.822  14.123  0.00  0.00    +0.000 C 
ATOM     11  N   UNL     1      46.693   6.408  12.982  0.00  0.00    +0.000 N 
ENDROOT
BRANCH   1  12
ATOM     12  C   UNL     1      45.677   5.955  10.686  0.00  0.00    +0.000 C 
BRANCH  12  13
ATOM     13  C   UNL     1      45.153   4.828   9.784  0.00  0.00    +0.000 C 
BRANCH  13  14
ATOM     14  N   UNL     1      45.645   4.960   8.412  0.00  0.00    +0.000 NA
ATOM     15  H   UNL     1      44.857   5.080   7.777  0.00  0.00    +0.000 HD
ATOM     16  H   UNL     1      46.112   4.102   8.123  0.00  0.00    +0.000 HD
ENDBRANCH  13  14
ENDBRANCH  12  13
ENDBRANCH   1  12
BRANCH  11  17
ATOM     17  C   UNL     1      46.579   7.878  12.876  0.00  0.00    +0.000 C 
BRANCH  17  18
ATOM     18  C   UNL     1      47.775   8.547  12.252  0.00  0.00    +0.000 A 
ATOM     19  C   UNL     1      48.869   7.861  11.714  0.00  0.00    +0.000 A 
ATOM     20  C   UNL     1      49.987   8.564  11.285  0.00  0.00    +0.000 A 
ATOM     21  C   UNL     1      49.970   9.944  11.375  0.00  0.00    +0.000 A 
ATOM     22  N   UNL     1      48.912  10.646  11.826  0.00  0.00    +0.000 NA
ATOM     23  C   UNL     1      47.843   9.939  12.246  0.00  0.00    +0.000 A 
ENDBRANCH  17  18
ENDBRANCH  11  17
TORSDOF 5
ENDMDL
MODEL 6
REMARK VINA RESULT:    -5.857      3.077      6.076
REMARK INTER + INTRA:          -7.350
REMARK INTER:                  -7.084
REMARK INTRA:                  -0.266
REMARK UNBOUND:                 0.048
REMARK  Name = 
REMARK  5 active torsions:
REMARK  status: ('A' for Active; 'I' for Inactive)
REMARK    1  A    between atoms: N_1  and  C_2
REMARK    2  A    between atoms: C_2  and  C_3
REMARK    3  A    between atoms: C_3  and  C_4
REMARK    4  A    between atoms: N_14  and  C_15
REMARK    5  A    between atoms: C_15  and  C_16
REMARK                            x       y       z     vdW  Elec       q    Type
REMARK                         _______ _______ _______ _____ _____    ______ ____
ROOT
ATOM      1  C   UNL     1      48.355   6.609  14.779  0.00  0.00    +0.000 C 
ATOM      2  C   UNL     1      48.109   7.374  13.686  0.00  0.00    +0.000 C 
ATOM      3  N   UNL     1      47.156   7.114  12.726  0.00  0.00    +0.000 NA
ATOM      4  C   UNL     1      46.585   5.952  12.821  0.00  0.00    +0.000 C 
ATOM      5  C   UNL     1      45.590   5.495  11.839  0.00  0.00    +0.000 C 
ATOM      6  C   UNL     1      45.204   4.214  11.844  0.00  0.00    +0.000 C 
ATOM      7  F   UNL     1      44.309   3.838  10.904  0.00  0.00    +0.000 F 
ATOM      8  N   UNL     1      45.632   3.224  12.696  0.00  0.00    +0.000 NA
ATOM      9  C   UNL     1      46.398   3.587  13.675  0.00  0.00    +0.000 C 
ATOM     10  C   UNL     1      46.854   4.972  13.904  0.00  0.00    +0.000 C 
ATOM     11  N   UNL     1      47.638   5.402  14.983  0.00  0.00    +0.000 N 
ENDROOT
BRANCH   1  12
ATOM     12  C   UNL     1      49.496   6.991  15.711  0.00  0.00    +0.000 C 
BRANCH  12  13
ATOM     13  C   UNL     1      50.536   7.937  15.091  0.00  0.00    +0.000 C 
BRANCH  13  14
ATOM     14  N   UNL     1      51.869   7.336  15.070  0.00  0.00    +0.000 NA
ATOM     15  H   UNL     1      52.305   7.441  15.986  0.00  0.00    +0.000 HD
ATOM     16  H   UNL     1      52.469   7.835  14.415  0.00  0.00    +0.000 HD
ENDBRANCH  13  14
ENDBRANCH  12  13
ENDBRANCH   1  12
BRANCH  11  17
ATOM     17  C   UNL     1      47.481   4.783  16.315  0.00  0.00    +0.000 C 
BRANCH  17  18
ATOM     18  C   UNL     1      48.582   3.825  16.686  0.00  0.00    +0.000 A 
ATOM     19  C   UNL     1      49.655   4.147  17.524  0.00  0.00    +0.000 A 
ATOM     20  C   UNL     1      50.696   3.243  17.699  0.00  0.00    +0.000 A 
ATOM     21  C   UNL     1      50.620   2.022  17.054  0.00  0.00    +0.000 A 
ATOM     22  N   UNL     1      49.574   1.648  16.291  0.00  0.00    +0.000 NA
ATOM     23  C   UNL     1      48.582   2.547  16.129  0.00  0.00    +0.000 A 
ENDBRANCH  17  18
ENDBRANCH  11  17
TORSDOF 5
ENDMDL
MODEL 7
REMARK VINA RESULT:    -5.806      3.156      5.923
REMARK INTER + INTRA:          -7.286
REMARK INTER:                  -6.820
REMARK INTRA:                  -0.466
REMARK UNBOUND:                 0.048
REMARK  Name = 
REMARK  5 active torsions:
REMARK  status: ('A' for Active; 'I' for Inactive)
REMARK    1  A    between atoms: N_1  and  C_2
REMARK    2  A    between atoms: C_2  and  C_3
REMARK    3  A    between atoms: C_3  and  C_4
REMARK    4  A    between atoms: N_14  and  C_15
REMARK    5  A    between atoms: C_15  and  C_16
REMARK                            x       y       z     vdW  Elec       q    Type
REMARK                         _______ _______ _______ _____ _____    ______ ____
ROOT
ATOM      1  C   UNL     1      45.118   8.366  11.671  0.00  0.00    +0.000 C 
ATOM      2  C   UNL     1      45.574   9.468  12.317  0.00  0.00    +0.000 C 
ATOM      3  N   UNL     1      46.746   9.546  13.036  0.00  0.00    +0.000 NA
ATOM      4  C   UNL     1      47.348   8.412  13.228  0.00  0.00    +0.000 C 
ATOM      5  C   UNL     1      48.579   8.312  14.028  0.00  0.00    +0.000 C 
ATOM      6  C   UNL     1      49.030   7.106  14.389  0.00  0.00    +0.000 C 
ATOM      7  F   UNL     1      50.148   7.070  15.148  0.00  0.00    +0.000 F 
ATOM      8  N   UNL     1      48.470   5.888  14.087  0.00  0.00    +0.000 NA
ATOM      9  C   UNL     1      47.468   5.893  13.266  0.00  0.00    +0.000 C 
ATOM     10  C   UNL     1      46.886   7.113  12.675  0.00  0.00    +0.000 C 
ATOM     11  N   UNL     1      45.838   7.146  11.745  0.00  0.00    +0.000 N 
ENDROOT
BRANCH   1  12
ATOM     12  C   UNL     1      43.764   8.418  10.979  0.00  0.00    +0.000 C 
BRANCH  12  13
ATOM     13  C   UNL     1      43.259   9.836  10.673  0.00  0.00    +0.000 C 
BRANCH  13  14
ATOM     14  N   UNL     1      43.452  10.187   9.266  0.00  0.00    +0.000 NA
ATOM     15  H   UNL     1      44.083  10.985   9.197  0.00  0.00    +0.000 HD
ATOM     16  H   UNL     1      42.571  10.490   8.855  0.00  0.00    +0.000 HD
ENDBRANCH  13  14
ENDBRANCH  12  13
ENDBRANCH   1  12
BRANCH  11  17
ATOM     17  C   UNL     1      45.705   6.079  10.731  0.00  0.00    +0.000 C 
BRANCH  17  18
ATOM     18  C   UNL     1      44.776   4.961  11.127  0.00  0.00    +0.000 A 
ATOM     19  C   UNL     1      44.167   4.852  12.383  0.00  0.00    +0.000 A 
ATOM     20  C   UNL     1      43.436   3.716  12.704  0.00  0.00    +0.000 A 
ATOM     21  C   UNL     1      43.304   2.727  11.746  0.00  0.00    +0.000 A 
ATOM     22  N   UNL     1      43.819   2.822  10.504  0.00  0.00    +0.000 NA
ATOM     23  C   UNL     1      44.533   3.931  10.221  0.00  0.00    +0.000 A 
ENDBRANCH  17  18
ENDBRANCH  11  17
TORSDOF 5
ENDMDL
MODEL 8
REMARK VINA RESULT:    -5.734      2.691      5.263
REMARK INTER + INTRA:          -7.195
REMARK INTER:                  -6.740
REMARK INTRA:                  -0.455
REMARK UNBOUND:                 0.048
REMARK  Name = 
REMARK  5 active torsions:
REMARK  status: ('A' for Active; 'I' for Inactive)
REMARK    1  A    between atoms: N_1  and  C_2
REMARK    2  A    between atoms: C_2  and  C_3
REMARK    3  A    between atoms: C_3  and  C_4
REMARK    4  A    between atoms: N_14  and  C_15
REMARK    5  A    between atoms: C_15  and  C_16
REMARK                            x       y       z     vdW  Elec       q    Type
REMARK                         _______ _______ _______ _____ _____    ______ ____
ROOT
ATOM      1  C   UNL     1      47.816   5.983  14.298  0.00  0.00    +0.000 C 
ATOM      2  C   UNL     1      47.203   4.931  14.895  0.00  0.00    +0.000 C 
ATOM      3  N   UNL     1      46.364   4.034  14.270  0.00  0.00    +0.000 NA
ATOM      4  C   UNL     1      46.027   4.352  13.058  0.00  0.00    +0.000 C 
ATOM      5  C   UNL     1      45.089   3.533  12.274  0.00  0.00    +0.000 C 
ATOM      6  C   UNL     1      44.595   4.017  11.129  0.00  0.00    +0.000 C 
ATOM      7  F   UNL     1      43.716   3.238  10.461  0.00  0.00    +0.000 F 
ATOM      8  N   UNL     1      44.872   5.236  10.558  0.00  0.00    +0.000 NA
ATOM      9  C   UNL     1      45.798   5.947  11.119  0.00  0.00    +0.000 C 
ATOM     10  C   UNL     1      46.535   5.543  12.331  0.00  0.00    +0.000 C 
ATOM     11  N   UNL     1      47.577   6.266  12.928  0.00  0.00    +0.000 N 
ENDROOT
BRANCH   1  12
ATOM     12  C   UNL     1      48.657   6.929  15.142  0.00  0.00    +0.000 C 
BRANCH  12  13
ATOM     13  C   UNL     1      49.019   6.391  16.534  0.00  0.00    +0.000 C 
BRANCH  13  14
ATOM     14  N   UNL     1      50.346   5.775  16.548  0.00  0.00    +0.000 NA
ATOM     15  H   UNL     1      50.594   5.478  15.605  0.00  0.00    +0.000 HD
ATOM     16  H   UNL     1      50.335   4.929  17.115  0.00  0.00    +0.000 HD
ENDBRANCH  13  14
ENDBRANCH  12  13
ENDBRANCH   1  12
BRANCH  11  17
ATOM     17  C   UNL     1      48.521   7.041  12.097  0.00  0.00    +0.000 C 
BRANCH  17  18
ATOM     18  C   UNL     1      48.200   8.510  12.002  0.00  0.00    +0.000 A 
ATOM     19  C   UNL     1      46.959   9.066  12.328  0.00  0.00    +0.000 A 
ATOM     20  C   UNL     1      46.712  10.410  12.079  0.00  0.00    +0.000 A 
ATOM     21  C   UNL     1      47.729  11.175  11.536  0.00  0.00    +0.000 A 
ATOM     22  N   UNL     1      48.959  10.693  11.268  0.00  0.00    +0.000 NA
ATOM     23  C   UNL     1      49.169   9.383  11.510  0.00  0.00    +0.000 A 
ENDBRANCH  17  18
ENDBRANCH  11  17
TORSDOF 5
ENDMDL
MODEL 9
REMARK VINA RESULT:    -5.692      2.738      4.984
REMARK INTER + INTRA:          -7.142
REMARK INTER:                  -6.523
REMARK INTRA:                  -0.619
REMARK UNBOUND:                 0.048
REMARK  Name = 
REMARK  5 active torsions:
REMARK  status: ('A' for Active; 'I' for Inactive)
REMARK    1  A    between atoms: N_1  and  C_2
REMARK    2  A    between atoms: C_2  and  C_3
REMARK    3  A    between atoms: C_3  and  C_4
REMARK    4  A    between atoms: N_14  and  C_15
REMARK    5  A    between atoms: C_15  and  C_16
REMARK                            x       y       z     vdW  Elec       q    Type
REMARK                         _______ _______ _______ _____ _____    ______ ____
ROOT
ATOM      1  C   UNL     1      47.362   5.128  14.718  0.00  0.00    +0.000 C 
ATOM      2  C   UNL     1      47.132   3.836  14.371  0.00  0.00    +0.000 C 
ATOM      3  N   UNL     1      46.427   3.419  13.263  0.00  0.00    +0.000 NA
ATOM      4  C   UNL     1      45.809   4.361  12.620  0.00  0.00    +0.000 C 
ATOM      5  C   UNL     1      44.962   4.076  11.451  0.00  0.00    +0.000 C 
ATOM      6  C   UNL     1      44.167   5.037  10.967  0.00  0.00    +0.000 C 
ATOM      7  F   UNL     1      43.388   4.715   9.911  0.00  0.00    +0.000 F 
ATOM      8  N   UNL     1      44.040   6.321  11.438  0.00  0.00    +0.000 NA
ATOM      9  C   UNL     1      44.861   6.685  12.372  0.00  0.00    +0.000 C 
ATOM     10  C   UNL     1      45.881   5.803  12.970  0.00  0.00    +0.000 C 
ATOM     11  N   UNL     1      46.816   6.183  13.943  0.00  0.00    +0.000 N 
ENDROOT
BRANCH   1  12
ATOM     12  C   UNL     1      48.097   5.428  16.015  0.00  0.00    +0.000 C 
BRANCH  12  13
ATOM     13  C   UNL     1      47.871   4.396  17.130  0.00  0.00    +0.000 C 
BRANCH  13  14
ATOM     14  N   UNL     1      46.734   4.756  17.978  0.00  0.00    +0.000 NA
ATOM     15  H   UNL     1      46.937   4.505  18.945  0.00  0.00    +0.000 HD
ATOM     16  H   UNL     1      45.913   4.214  17.714  0.00  0.00    +0.000 HD
ENDBRANCH  13  14
ENDBRANCH  12  13
ENDBRANCH   1  12
BRANCH  11  17
ATOM     17  C   UNL     1      47.383   7.548  13.941  0.00  0.00    +0.000 C 
BRANCH  17  18
ATOM     18  C   UNL     1      48.703   7.668  13.226  0.00  0.00    +0.000 A 
ATOM     19  C   UNL     1      49.921   7.933  13.863  0.00  0.00    +0.000 A 
ATOM     20  C   UNL     1      51.064   8.163  13.108  0.00  0.00    +0.000 A 
ATOM     21  C   UNL     1      50.966   8.090  11.730  0.00  0.00    +0.000 A 
ATOM     22  N   UNL     1      49.828   7.774  11.081  0.00  0.00    +0.000 NA
ATOM     23  C   UNL     1      48.731   7.565  11.837  0.00  0.00    +0.000 A 
ENDBRANCH  17  18
ENDBRANCH  11  17
TORSDOF 5
ENDMDL
