MODEL 1
REMARK VINA RESULT:    -8.066      0.000      0.000
REMARK INTER + INTRA:         -10.648
REMARK INTER:                 -10.424
REMARK INTRA:                  -0.224
REMARK UNBOUND:                -0.224
REMARK  Name = 
REMARK  7 active torsions:
REMARK  status: ('A' for Active; 'I' for Inactive)
REMARK    1  A    between atoms: C_1  and  C_2
REMARK    2  A    between atoms: C_2  and  O_3
REMARK    3  A    between atoms: C_2  and  C_4
REMARK    4  A    between atoms: N_12  and  C_13
REMARK    5  A    between atoms: C_13  and  C_14
REMARK    6  A    between atoms: C_17  and  C_18
REMARK    7  A    between atoms: C_18  and  N_19
REMARK                            x       y       z     vdW  Elec       q    Type
REMARK                         _______ _______ _______ _____ _____    ______ ____
ROOT
ATOM      1  C   UNL     1      46.846   4.626  14.267  0.00  0.00    +0.000 A 
ATOM      2  C   UNL     1      46.646   3.364  13.700  0.00  0.00    +0.000 A 
ATOM      3  N   UNL     1      45.809   3.096  12.669  0.00  0.00    +0.000 NA
ATOM      4  C   UNL     1      45.134   4.138  12.175  0.00  0.00    +0.000 A 
ATOM      5  C   UNL     1      45.275   5.434  12.657  0.00  0.00    +0.000 A 
ATOM      6  C   UNL     1      46.130   5.696  13.709  0.00  0.00    +0.000 A 
ATOM      7  C   UNL     1      44.398   6.362  11.888  0.00  0.00    +0.000 C 
ATOM      8  C   UNL     1      43.776   5.419  10.826  0.00  0.00    +0.000 C 
ATOM      9  N   UNL     1      44.209   4.073  11.151  0.00  0.00    +0.000 N 
ENDROOT
BRANCH   1  11
ATOM     10  C   UNL     1      47.420   4.216  16.747  0.00  0.00    +0.000 C 
ATOM     11  C   UNL     1      47.787   4.876  15.421  0.00  0.00    +0.000 C 
BRANCH  11  12
ATOM     12  O   UNL     1      47.877   6.282  15.657  0.00  0.00    +0.000 OA
ATOM     13  H   UNL     1      48.222   6.691  14.844  0.00  0.00    +0.000 HD
ENDBRANCH  11  12
ENDBRANCH   1  11
BRANCH   9  14
ATOM     14  C   UNL     1      43.993   2.896  10.353  0.00  0.00    +0.000 C 
BRANCH  14  15
ATOM     15  C   UNL     1      44.974   2.865   9.203  0.00  0.00    +0.000 A 
ATOM     16  C   UNL     1      45.239   4.023   8.460  0.00  0.00    +0.000 A 
ATOM     17  C   UNL     1      46.055   3.967   7.327  0.00  0.00    +0.000 A 
ATOM     18  C   UNL     1      46.623   2.755   6.913  0.00  0.00    +0.000 A 
ATOM     19  C   UNL     1      46.396   1.607   7.685  0.00  0.00    +0.000 A 
ATOM     20  C   UNL     1      45.575   1.660   8.815  0.00  0.00    +0.000 A 
BRANCH  18  21
ATOM     21  C   UNL     1      47.393   2.668   5.620  0.00  0.00    +0.000 C 
BRANCH  21  22
ATOM     22  N   UNL     1      48.587   1.842   5.737  0.00  0.00    +0.000 NA
ATOM     23  H   UNL     1      48.552   1.343   6.624  0.00  0.00    +0.000 HD
ATOM     24  H   UNL     1      49.403   2.447   5.776  0.00  0.00    +0.000 HD
ENDBRANCH  21  22
ENDBRANCH  18  21
ENDBRANCH  14  15
ENDBRANCH   9  14
TORSDOF 6
ENDMDL
MODEL 2
REMARK VINA RESULT:    -7.879      1.622      2.275
REMARK INTER + INTRA:         -10.405
REMARK INTER:                  -9.885
REMARK INTRA:                  -0.520
REMARK UNBOUND:                -0.224
REMARK  Name = 
REMARK  7 active torsions:
REMARK  status: ('A' for Active; 'I' for Inactive)
REMARK    1  A    between atoms: C_1  and  C_2
REMARK    2  A    between atoms: C_2  and  O_3
REMARK    3  A    between atoms: C_2  and  C_4
REMARK    4  A    between atoms: N_12  and  C_13
REMARK    5  A    between atoms: C_13  and  C_14
REMARK    6  A    between atoms: C_17  and  C_18
REMARK    7  A    between atoms: C_18  and  N_19
REMARK                            x       y       z     vdW  Elec       q    Type
REMARK                         _______ _______ _______ _____ _____    ______ ____
ROOT
ATOM      1  C   UNL     1      46.992   6.249  13.167  0.00  0.00    +0.000 A 
ATOM      2  C   UNL     1      46.972   6.385  11.775  0.00  0.00    +0.000 A 
ATOM      3  N   UNL     1      46.068   5.807  10.949  0.00  0.00    +0.000 NA
ATOM      4  C   UNL     1      45.133   5.054  11.536  0.00  0.00    +0.000 A 
ATOM      5  C   UNL     1      45.056   4.871  12.911  0.00  0.00    +0.000 A 
ATOM      6  C   UNL     1      45.984   5.463  13.745  0.00  0.00    +0.000 A 
ATOM      7  C   UNL     1      43.900   3.991  13.244  0.00  0.00    +0.000 C 
ATOM      8  C   UNL     1      43.262   3.749  11.852  0.00  0.00    +0.000 C 
ATOM      9  N   UNL     1      44.144   4.354  10.872  0.00  0.00    +0.000 N 
ENDROOT
BRANCH   1  11
ATOM     10  C   UNL     1      47.967   8.432  14.131  0.00  0.00    +0.000 C 
ATOM     11  C   UNL     1      48.025   6.909  14.049  0.00  0.00    +0.000 C 
BRANCH  11  12
ATOM     12  O   UNL     1      49.330   6.558  13.588  0.00  0.00    +0.000 OA
ATOM     13  H   UNL     1      49.220   6.061  12.758  0.00  0.00    +0.000 HD
ENDBRANCH  11  12
ENDBRANCH   1  11
BRANCH   9  14
ATOM     14  C   UNL     1      43.879   4.499   9.466  0.00  0.00    +0.000 C 
BRANCH  14  15
ATOM     15  C   UNL     1      44.853   3.662   8.669  0.00  0.00    +0.000 A 
ATOM     16  C   UNL     1      45.018   2.299   8.947  0.00  0.00    +0.000 A 
ATOM     17  C   UNL     1      46.001   1.554   8.290  0.00  0.00    +0.000 A 
ATOM     18  C   UNL     1      46.840   2.156   7.342  0.00  0.00    +0.000 A 
ATOM     19  C   UNL     1      46.642   3.508   7.030  0.00  0.00    +0.000 A 
ATOM     20  C   UNL     1      45.664   4.255   7.690  0.00  0.00    +0.000 A 
BRANCH  18  21
ATOM     21  C   UNL     1      47.983   1.388   6.731  0.00  0.00    +0.000 C 
BRANCH  21  22
ATOM     22  N   UNL     1      48.480   2.006   5.508  0.00  0.00    +0.000 NA
ATOM     23  H   UNL     1      49.056   1.328   5.013  0.00  0.00    +0.000 HD
ATOM     24  H   UNL     1      49.089   2.782   5.755  0.00  0.00    +0.000 HD
ENDBRANCH  21  22
ENDBRANCH  18  21
ENDBRANCH  14  15
ENDBRANCH   9  14
TORSDOF 6
ENDMDL
MODEL 3
REMARK VINA RESULT:    -7.836      1.785      3.033
REMARK INTER + INTRA:         -10.351
REMARK INTER:                  -9.779
REMARK INTRA:                  -0.571
REMARK UNBOUND:                -0.224
REMARK  Name = 
REMARK  7 active torsions:
REMARK  status: ('A' for Active; 'I' for Inactive)
REMARK    1  A    between atoms: C_1  and  C_2
REMARK    2  A    between atoms: C_2  and  O_3
REMARK    3  A    between atoms: C_2  and  C_4
REMARK    4  A    between atoms: N_12  and  C_13
REMARK    5  A    between atoms: C_13  and  C_14
REMARK    6  A    between atoms: C_17  and  C_18
REMARK    7  A    between atoms: C_18  and  N_19
REMARK                            x       y       z     vdW  Elec       q    Type
REMARK                         _______ _______ _______ _____ _____    ______ ____
ROOT
ATOM      1  C   UNL     1      46.053   7.824  12.614  0.00  0.00    +0.000 A 
ATOM      2  C   UNL     1      45.289   7.596  11.465  0.00  0.00    +0.000 A 
ATOM      3  N   UNL     1      44.900   6.379  11.017  0.00  0.00    +0.000 NA
ATOM      4  C   UNL     1      45.290   5.331  11.749  0.00  0.00    +0.000 A 
ATOM      5  C   UNL     1      46.035   5.453  12.915  0.00  0.00    +0.000 A 
ATOM      6  C   UNL     1      46.428   6.699  13.363  0.00  0.00    +0.000 A 
ATOM      7  C   UNL     1      46.295   4.106  13.497  0.00  0.00    +0.000 C 
ATOM      8  C   UNL     1      45.517   3.176  12.530  0.00  0.00    +0.000 C 
ATOM      9  N   UNL     1      45.028   4.009  11.447  0.00  0.00    +0.000 N 
ENDROOT
BRANCH   1  11
ATOM     10  C   UNL     1      47.579   9.873  12.270  0.00  0.00    +0.000 C 
ATOM     11  C   UNL     1      46.468   9.202  13.073  0.00  0.00    +0.000 C 
BRANCH  11  12
ATOM     12  O   UNL     1      46.907   9.131  14.430  0.00  0.00    +0.000 OA
ATOM     13  H   UNL     1      46.523   8.326  14.818  0.00  0.00    +0.000 HD
ENDBRANCH  11  12
ENDBRANCH   1  11
BRANCH   9  14
ATOM     14  C   UNL     1      44.133   3.598  10.399  0.00  0.00    +0.000 C 
BRANCH  14  15
ATOM     15  C   UNL     1      44.926   3.157   9.189  0.00  0.00    +0.000 A 
ATOM     16  C   UNL     1      45.310   1.819   9.036  0.00  0.00    +0.000 A 
ATOM     17  C   UNL     1      46.141   1.435   7.980  0.00  0.00    +0.000 A 
ATOM     18  C   UNL     1      46.604   2.380   7.055  0.00  0.00    +0.000 A 
ATOM     19  C   UNL     1      46.180   3.710   7.181  0.00  0.00    +0.000 A 
ATOM     20  C   UNL     1      45.355   4.097   8.240  0.00  0.00    +0.000 A 
BRANCH  18  21
ATOM     21  C   UNL     1      47.604   1.993   5.996  0.00  0.00    +0.000 C 
BRANCH  21  22
ATOM     22  N   UNL     1      48.908   2.607   6.207  0.00  0.00    +0.000 NA
ATOM     23  H   UNL     1      48.768   3.558   6.545  0.00  0.00    +0.000 HD
ATOM     24  H   UNL     1      49.385   2.684   5.313  0.00  0.00    +0.000 HD
ENDBRANCH  21  22
ENDBRANCH  18  21
ENDBRANCH  14  15
ENDBRANCH   9  14
TORSDOF 6
ENDMDL
MODEL 4
REMARK VINA RESULT:    -7.318      2.945      6.631
REMARK INTER + INTRA:          -9.681
REMARK INTER:                  -9.253
REMARK INTRA:                  -0.428
REMARK UNBOUND:                -0.224
REMARK  Name = 
REMARK  7 active torsions:
REMARK  status: ('A' for Active; 'I' for Inactive)
REMARK    1  A    between atoms: C_1  and  C_2
REMARK    2  A    between atoms: C_2  and  O_3
REMARK    3  A    between atoms: C_2  and  C_4
REMARK    4  A    between atoms: N_12  and  C_13
REMARK    5  A    between atoms: C_13  and  C_14
REMARK    6  A    between atoms: C_17  and  C_18
REMARK    7  A    between atoms: C_18  and  N_19
REMARK                            x       y       z     vdW  Elec       q    Type
REMARK                         _______ _______ _______ _____ _____    ______ ____
ROOT
ATOM      1  C   UNL     1      46.470   2.819   7.655  0.00  0.00    +0.000 A 
ATOM      2  C   UNL     1      46.368   4.200   7.848  0.00  0.00    +0.000 A 
ATOM      3  N   UNL     1      45.584   4.801   8.774  0.00  0.00    +0.000 NA
ATOM      4  C   UNL     1      44.863   3.988   9.551  0.00  0.00    +0.000 A 
ATOM      5  C   UNL     1      44.907   2.603   9.450  0.00  0.00    +0.000 A 
ATOM      6  C   UNL     1      45.708   1.999   8.501  0.00  0.00    +0.000 A 
ATOM      7  C   UNL     1      43.999   1.989  10.461  0.00  0.00    +0.000 C 
ATOM      8  C   UNL     1      43.473   3.232  11.225  0.00  0.00    +0.000 C 
ATOM      9  N   UNL     1      43.979   4.400  10.529  0.00  0.00    +0.000 N 
ENDROOT
BRANCH   1  11
ATOM     10  C   UNL     1      47.156   2.686   5.173  0.00  0.00    +0.000 C 
ATOM     11  C   UNL     1      47.355   2.192   6.604  0.00  0.00    +0.000 C 
BRANCH  11  12
ATOM     12  O   UNL     1      47.148   0.779   6.598  0.00  0.00    +0.000 OA
ATOM     13  H   UNL     1      47.308   0.466   5.690  0.00  0.00    +0.000 HD
ENDBRANCH  11  12
ENDBRANCH   1  11
BRANCH   9  14
ATOM     14  C   UNL     1      43.862   5.765  10.967  0.00  0.00    +0.000 C 
BRANCH  14  15
ATOM     15  C   UNL     1      45.048   6.131  11.832  0.00  0.00    +0.000 A 
ATOM     16  C   UNL     1      45.902   7.179  11.466  0.00  0.00    +0.000 A 
ATOM     17  C   UNL     1      47.061   7.440  12.201  0.00  0.00    +0.000 A 
ATOM     18  C   UNL     1      47.391   6.659  13.316  0.00  0.00    +0.000 A 
ATOM     19  C   UNL     1      46.511   5.641  13.710  0.00  0.00    +0.000 A 
ATOM     20  C   UNL     1      45.355   5.375  12.972  0.00  0.00    +0.000 A 
BRANCH  18  21
ATOM     21  C   UNL     1      48.705   6.854  14.029  0.00  0.00    +0.000 C 
BRANCH  21  22
ATOM     22  N   UNL     1      49.821   7.014  13.107  0.00  0.00    +0.000 NA
ATOM     23  H   UNL     1      50.496   6.271  13.281  0.00  0.00    +0.000 HD
ATOM     24  H   UNL     1      50.295   7.890  13.312  0.00  0.00    +0.000 HD
ENDBRANCH  21  22
ENDBRANCH  18  21
ENDBRANCH  14  15
ENDBRANCH   9  14
TORSDOF 6
ENDMDL
MODEL 5
REMARK VINA RESULT:    -6.565      3.424      7.728
REMARK INTER + INTRA:          -8.707
REMARK INTER:                  -8.187
REMARK INTRA:                  -0.521
REMARK UNBOUND:                -0.224
REMARK  Name = 
REMARK  7 active torsions:
REMARK  status: ('A' for Active; 'I' for Inactive)
REMARK    1  A    between atoms: C_1  and  C_2
REMARK    2  A    between atoms: C_2  and  O_3
REMARK    3  A    between atoms: C_2  and  C_4
REMARK    4  A    between atoms: N_12  and  C_13
REMARK    5  A    between atoms: C_13  and  C_14
REMARK    6  A    between atoms: C_17  and  C_18
REMARK    7  A    between atoms: C_18  and  N_19
REMARK                            x       y       z     vdW  Elec       q    Type
REMARK                         _______ _______ _______ _____ _____    ______ ____
ROOT
ATOM      1  C   UNL     1      45.594   4.917  11.982  0.00  0.00    +0.000 A 
ATOM      2  C   UNL     1      45.371   4.213  13.169  0.00  0.00    +0.000 A 
ATOM      3  N   UNL     1      46.065   4.382  14.319  0.00  0.00    +0.000 NA
ATOM      4  C   UNL     1      47.035   5.300  14.289  0.00  0.00    +0.000 A 
ATOM      5  C   UNL     1      47.324   6.065  13.166  0.00  0.00    +0.000 A 
ATOM      6  C   UNL     1      46.611   5.884  11.998  0.00  0.00    +0.000 A 
ATOM      7  C   UNL     1      48.446   7.001  13.462  0.00  0.00    +0.000 C 
ATOM      8  C   UNL     1      48.720   6.720  14.962  0.00  0.00    +0.000 C 
ATOM      9  N   UNL     1      47.878   5.600  15.341  0.00  0.00    +0.000 N 
ENDROOT
BRANCH   1  11
ATOM     10  C   UNL     1      44.821   3.275  10.152  0.00  0.00    +0.000 C 
ATOM     11  C   UNL     1      44.796   4.691  10.720  0.00  0.00    +0.000 C 
BRANCH  11  12
ATOM     12  O   UNL     1      45.274   5.567   9.699  0.00  0.00    +0.000 OA
ATOM     13  H   UNL     1      46.247   5.568   9.749  0.00  0.00    +0.000 HD
ENDBRANCH  11  12
ENDBRANCH   1  11
BRANCH   9  14
ATOM     14  C   UNL     1      47.695   5.090  16.674  0.00  0.00    +0.000 C 
BRANCH  14  15
ATOM     15  C   UNL     1      48.787   4.095  16.999  0.00  0.00    +0.000 A 
ATOM     16  C   UNL     1      50.005   4.524  17.541  0.00  0.00    +0.000 A 
ATOM     17  C   UNL     1      51.055   3.622  17.732  0.00  0.00    +0.000 A 
ATOM     18  C   UNL     1      50.909   2.272  17.384  0.00  0.00    +0.000 A 
ATOM     19  C   UNL     1      49.673   1.835  16.887  0.00  0.00    +0.000 A 
ATOM     20  C   UNL     1      48.625   2.737  16.689  0.00  0.00    +0.000 A 
BRANCH  18  21
ATOM     21  C   UNL     1      52.080   1.327  17.465  0.00  0.00    +0.000 C 
BRANCH  21  22
ATOM     22  N   UNL     1      51.751   0.089  18.160  0.00  0.00    +0.000 NA
ATOM     23  H   UNL     1      50.752   0.085  18.361  0.00  0.00    +0.000 HD
ATOM     24  H   UNL     1      52.228   0.079  19.058  0.00  0.00    +0.000 HD
ENDBRANCH  21  22
ENDBRANCH  18  21
ENDBRANCH  14  15
ENDBRANCH   9  14
TORSDOF 6
ENDMDL
MODEL 6
REMARK VINA RESULT:    -5.819      3.474      8.644
REMARK INTER + INTRA:          -7.743
REMARK INTER:                  -7.495
REMARK INTRA:                  -0.248
REMARK UNBOUND:                -0.224
REMARK  Name = 
REMARK  7 active torsions:
REMARK  status: ('A' for Active; 'I' for Inactive)
REMARK    1  A    between atoms: C_1  and  C_2
REMARK    2  A    between atoms: C_2  and  O_3
REMARK    3  A    between atoms: C_2  and  C_4
REMARK    4  A    between atoms: N_12  and  C_13
REMARK    5  A    between atoms: C_13  and  C_14
REMARK    6  A    between atoms: C_17  and  C_18
REMARK    7  A    between atoms: C_18  and  N_19
REMARK                            x       y       z     vdW  Elec       q    Type
REMARK                         _______ _______ _______ _____ _____    ______ ____
ROOT
ATOM      1  C   UNL     1      45.482   4.824  11.460  0.00  0.00    +0.000 A 
ATOM      2  C   UNL     1      45.316   3.795  12.392  0.00  0.00    +0.000 A 
ATOM      3  N   UNL     1      45.921   3.733  13.602  0.00  0.00    +0.000 NA
ATOM      4  C   UNL     1      46.737   4.748  13.903  0.00  0.00    +0.000 A 
ATOM      5  C   UNL     1      46.955   5.826  13.054  0.00  0.00    +0.000 A 
ATOM      6  C   UNL     1      46.334   5.878  11.821  0.00  0.00    +0.000 A 
ATOM      7  C   UNL     1      47.903   6.788  13.685  0.00  0.00    +0.000 C 
ATOM      8  C   UNL     1      48.147   6.143  15.074  0.00  0.00    +0.000 C 
ATOM      9  N   UNL     1      47.473   4.858  15.066  0.00  0.00    +0.000 N 
ENDROOT
BRANCH   1  11
ATOM     10  C   UNL     1      44.415   3.491   9.529  0.00  0.00    +0.000 C 
ATOM     11  C   UNL     1      44.789   4.848  10.119  0.00  0.00    +0.000 C 
BRANCH  11  12
ATOM     12  O   UNL     1      45.626   5.508   9.169  0.00  0.00    +0.000 OA
ATOM     13  H   UNL     1      46.280   6.028   9.670  0.00  0.00    +0.000 HD
ENDBRANCH  11  12
ENDBRANCH   1  11
BRANCH   9  14
ATOM     14  C   UNL     1      47.309   3.980  16.193  0.00  0.00    +0.000 C 
BRANCH  14  15
ATOM     15  C   UNL     1      48.157   4.461  17.349  0.00  0.00    +0.000 A 
ATOM     16  C   UNL     1      49.506   4.097  17.446  0.00  0.00    +0.000 A 
ATOM     17  C   UNL     1      50.256   4.444  18.572  0.00  0.00    +0.000 A 
ATOM     18  C   UNL     1      49.674   5.163  19.625  0.00  0.00    +0.000 A 
ATOM     19  C   UNL     1      48.338   5.568  19.506  0.00  0.00    +0.000 A 
ATOM     20  C   UNL     1      47.585   5.216  18.383  0.00  0.00    +0.000 A 
BRANCH  18  21
ATOM     21  C   UNL     1      50.443   5.423  20.895  0.00  0.00    +0.000 C 
BRANCH  21  22
ATOM     22  N   UNL     1      51.476   4.424  21.136  0.00  0.00    +0.000 NA
ATOM     23  H   UNL     1      51.172   3.819  21.897  0.00  0.00    +0.000 HD
ATOM     24  H   UNL     1      52.320   4.893  21.456  0.00  0.00    +0.000 HD
ENDBRANCH  21  22
ENDBRANCH  18  21
ENDBRANCH  14  15
ENDBRANCH   9  14
TORSDOF 6
ENDMDL
MODEL 7
REMARK VINA RESULT:    -5.776      4.328      6.768
REMARK INTER + INTRA:          -7.687
REMARK INTER:                  -7.104
REMARK INTRA:                  -0.584
REMARK UNBOUND:                -0.224
REMARK  Name = 
REMARK  7 active torsions:
REMARK  status: ('A' for Active; 'I' for Inactive)
REMARK    1  A    between atoms: C_1  and  C_2
REMARK    2  A    between atoms: C_2  and  O_3
REMARK    3  A    between atoms: C_2  and  C_4
REMARK    4  A    between atoms: N_12  and  C_13
REMARK    5  A    between atoms: C_13  and  C_14
REMARK    6  A    between atoms: C_17  and  C_18
REMARK    7  A    between atoms: C_18  and  N_19
REMARK                            x       y       z     vdW  Elec       q    Type
REMARK                         _______ _______ _______ _____ _____    ______ ____
ROOT
ATOM      1  C   UNL     1      44.921   4.429  10.861  0.00  0.00    +0.000 A 
ATOM      2  C   UNL     1      45.166   5.793  10.679  0.00  0.00    +0.000 A 
ATOM      3  N   UNL     1      45.872   6.579  11.526  0.00  0.00    +0.000 NA
ATOM      4  C   UNL     1      46.361   5.977  12.614  0.00  0.00    +0.000 A 
ATOM      5  C   UNL     1      46.189   4.624  12.877  0.00  0.00    +0.000 A 
ATOM      6  C   UNL     1      45.466   3.831  12.007  0.00  0.00    +0.000 A 
ATOM      7  C   UNL     1      46.864   4.264  14.157  0.00  0.00    +0.000 C 
ATOM      8  C   UNL     1      47.527   5.604  14.565  0.00  0.00    +0.000 C 
ATOM      9  N   UNL     1      47.077   6.604  13.615  0.00  0.00    +0.000 N 
ENDROOT
BRANCH   1  11
ATOM     10  C   UNL     1      44.823   2.357   9.330  0.00  0.00    +0.000 C 
ATOM     11  C   UNL     1      44.123   3.592   9.890  0.00  0.00    +0.000 C 
BRANCH  11  12
ATOM     12  O   UNL     1      43.738   4.403   8.778  0.00  0.00    +0.000 OA
ATOM     13  H   UNL     1      42.903   4.042   8.431  0.00  0.00    +0.000 HD
ENDBRANCH  11  12
ENDBRANCH   1  11
BRANCH   9  14
ATOM     14  C   UNL     1      47.551   7.959  13.520  0.00  0.00    +0.000 C 
BRANCH  14  15
ATOM     15  C   UNL     1      48.989   7.969  13.052  0.00  0.00    +0.000 A 
ATOM     16  C   UNL     1      50.025   8.300  13.935  0.00  0.00    +0.000 A 
ATOM     17  C   UNL     1      51.338   8.424  13.473  0.00  0.00    +0.000 A 
ATOM     18  C   UNL     1      51.643   8.220  12.121  0.00  0.00    +0.000 A 
ATOM     19  C   UNL     1      50.613   7.841  11.248  0.00  0.00    +0.000 A 
ATOM     20  C   UNL     1      49.299   7.724  11.706  0.00  0.00    +0.000 A 
BRANCH  18  21
ATOM     21  C   UNL     1      53.032   8.481  11.598  0.00  0.00    +0.000 C 
BRANCH  21  22
ATOM     22  N   UNL     1      53.715   7.260  11.192  0.00  0.00    +0.000 NA
ATOM     23  H   UNL     1      53.399   6.497  11.789  0.00  0.00    +0.000 HD
ATOM     24  H   UNL     1      54.711   7.368  11.360  0.00  0.00    +0.000 HD
ENDBRANCH  21  22
ENDBRANCH  18  21
ENDBRANCH  14  15
ENDBRANCH   9  14
TORSDOF 6
ENDMDL
MODEL 8
REMARK VINA RESULT:    -5.235      4.472      6.190
REMARK INTER + INTRA:          -6.989
REMARK INTER:                  -6.468
REMARK INTRA:                  -0.521
REMARK UNBOUND:                -0.224
REMARK  Name = 
REMARK  7 active torsions:
REMARK  status: ('A' for Active; 'I' for Inactive)
REMARK    1  A    between atoms: C_1  and  C_2
REMARK    2  A    between atoms: C_2  and  O_3
REMARK    3  A    between atoms: C_2  and  C_4
REMARK    4  A    between atoms: N_12  and  C_13
REMARK    5  A    between atoms: C_13  and  C_14
REMARK    6  A    between atoms: C_17  and  C_18
REMARK    7  A    between atoms: C_18  and  N_19
REMARK                            x       y       z     vdW  Elec       q    Type
REMARK                         _______ _______ _______ _____ _____    ______ ____
ROOT
ATOM      1  C   UNL     1      47.725   4.668  15.896  0.00  0.00    +0.000 A 
ATOM      2  C   UNL     1      48.382   5.901  15.856  0.00  0.00    +0.000 A 
ATOM      3  N   UNL     1      48.294   6.800  14.847  0.00  0.00    +0.000 NA
ATOM      4  C   UNL     1      47.510   6.456  13.821  0.00  0.00    +0.000 A 
ATOM      5  C   UNL     1      46.801   5.262  13.773  0.00  0.00    +0.000 A 
ATOM      6  C   UNL     1      46.900   4.351  14.806  0.00  0.00    +0.000 A 
ATOM      7  C   UNL     1      46.018   5.185  12.507  0.00  0.00    +0.000 C 
ATOM      8  C   UNL     1      46.317   6.559  11.854  0.00  0.00    +0.000 C 
ATOM      9  N   UNL     1      47.313   7.213  12.683  0.00  0.00    +0.000 N 
ENDROOT
BRANCH   1  11
ATOM     10  C   UNL     1      48.739   2.473  16.790  0.00  0.00    +0.000 C 
ATOM     11  C   UNL     1      47.858   3.694  17.042  0.00  0.00    +0.000 C 
BRANCH  11  12
ATOM     12  O   UNL     1      46.562   3.215  17.404  0.00  0.00    +0.000 OA
ATOM     13  H   UNL     1      46.147   3.896  17.963  0.00  0.00    +0.000 HD
ENDBRANCH  11  12
ENDBRANCH   1  11
BRANCH   9  14
ATOM     14  C   UNL     1      47.781   8.565  12.540  0.00  0.00    +0.000 C 
BRANCH  14  15
ATOM     15  C   UNL     1      49.256   8.567  12.208  0.00  0.00    +0.000 A 
ATOM     16  C   UNL     1      49.762   7.737  11.200  0.00  0.00    +0.000 A 
ATOM     17  C   UNL     1      51.139   7.652  10.974  0.00  0.00    +0.000 A 
ATOM     18  C   UNL     1      52.037   8.397  11.750  0.00  0.00    +0.000 A 
ATOM     19  C   UNL     1      51.526   9.264  12.726  0.00  0.00    +0.000 A 
ATOM     20  C   UNL     1      50.151   9.344  12.957  0.00  0.00    +0.000 A 
BRANCH  18  21
ATOM     21  C   UNL     1      53.524   8.208  11.597  0.00  0.00    +0.000 C 
BRANCH  21  22
ATOM     22  N   UNL     1      53.868   6.896  11.065  0.00  0.00    +0.000 NA
ATOM     23  H   UNL     1      53.830   6.937  10.047  0.00  0.00    +0.000 HD
ATOM     24  H   UNL     1      53.159   6.227  11.355  0.00  0.00    +0.000 HD
ENDBRANCH  21  22
ENDBRANCH  18  21
ENDBRANCH  14  15
ENDBRANCH   9  14
TORSDOF 6
ENDMDL
MODEL 9
REMARK VINA RESULT:    -5.070      5.172      8.104
REMARK INTER + INTRA:          -6.776
REMARK INTER:                  -6.343
REMARK INTRA:                  -0.433
REMARK UNBOUND:                -0.224
REMARK  Name = 
REMARK  7 active torsions:
REMARK  status: ('A' for Active; 'I' for Inactive)
REMARK    1  A    between atoms: C_1  and  C_2
REMARK    2  A    between atoms: C_2  and  O_3
REMARK    3  A    between atoms: C_2  and  C_4
REMARK    4  A    between atoms: N_12  and  C_13
REMARK    5  A    between atoms: C_13  and  C_14
REMARK    6  A    between atoms: C_17  and  C_18
REMARK    7  A    between atoms: C_18  and  N_19
REMARK                            x       y       z     vdW  Elec       q    Type
REMARK                         _______ _______ _______ _____ _____    ______ ____
ROOT
ATOM      1  C   UNL     1      49.510   7.648  13.298  0.00  0.00    +0.000 A 
ATOM      2  C   UNL     1      49.777   7.670  14.670  0.00  0.00    +0.000 A 
ATOM      3  N   UNL     1      49.190   6.871  15.592  0.00  0.00    +0.000 NA
ATOM      4  C   UNL     1      48.287   6.003  15.127  0.00  0.00    +0.000 A 
ATOM      5  C   UNL     1      47.964   5.890  13.781  0.00  0.00    +0.000 A 
ATOM      6  C   UNL     1      48.568   6.711  12.848  0.00  0.00    +0.000 A 
ATOM      7  C   UNL     1      46.937   4.826  13.591  0.00  0.00    +0.000 C 
ATOM      8  C   UNL     1      46.765   4.277  15.031  0.00  0.00    +0.000 C 
ATOM      9  N   UNL     1      47.554   5.127  15.903  0.00  0.00    +0.000 N 
ENDROOT
BRANCH   1  11
ATOM     10  C   UNL     1      49.267   9.348  11.375  0.00  0.00    +0.000 C 
ATOM     11  C   UNL     1      50.187   8.563  12.306  0.00  0.00    +0.000 C 
BRANCH  11  12
ATOM     12  O   UNL     1      51.067   7.795  11.485  0.00  0.00    +0.000 OA
ATOM     13  H   UNL     1      51.978   8.059  11.709  0.00  0.00    +0.000 HD
ENDBRANCH  11  12
ENDBRANCH   1  11
BRANCH   9  14
ATOM     14  C   UNL     1      47.806   4.905  17.302  0.00  0.00    +0.000 C 
BRANCH  14  15
ATOM     15  C   UNL     1      48.974   3.960  17.471  0.00  0.00    +0.000 A 
ATOM     16  C   UNL     1      50.188   4.412  18.003  0.00  0.00    +0.000 A 
ATOM     17  C   UNL     1      51.301   3.569  18.050  0.00  0.00    +0.000 A 
ATOM     18  C   UNL     1      51.225   2.256  17.565  0.00  0.00    +0.000 A 
ATOM     19  C   UNL     1      49.996   1.790  17.077  0.00  0.00    +0.000 A 
ATOM     20  C   UNL     1      48.884   2.634  17.023  0.00  0.00    +0.000 A 
BRANCH  18  21
ATOM     21  C   UNL     1      52.456   1.391  17.493  0.00  0.00    +0.000 C 
BRANCH  21  22
ATOM     22  N   UNL     1      52.318   0.160  18.260  0.00  0.00    +0.000 NA
ATOM     23  H   UNL     1      51.438  -0.285  18.006  0.00  0.00    +0.000 HD
ATOM     24  H   UNL     1      52.252   0.393  19.248  0.00  0.00    +0.000 HD
ENDBRANCH  21  22
ENDBRANCH  18  21
ENDBRANCH  14  15
ENDBRANCH   9  14
TORSDOF 6
ENDMDL
