MODEL 1
REMARK VINA RESULT:    -8.424      0.000      0.000
REMARK INTER + INTRA:         -12.563
REMARK INTER:                 -11.379
REMARK INTRA:                  -1.184
REMARK UNBOUND:                -1.184
REMARK  Name = 
REMARK  6 active torsions:
REMARK  status: ('A' for Active; 'I' for Inactive)
REMARK    1  A    between atoms: C_2  and  C_25
REMARK    2  A    between atoms: N_3  and  C_4
REMARK    3  A    between atoms: C_4  and  C_5
REMARK    4  A    between atoms: C_8  and  C_9
REMARK    5  A    between atoms: C_9  and  N_10
REMARK    6  A    between atoms: C_11  and  C_13
REMARK                            x       y       z     vdW  Elec       q    Type
REMARK                         _______ _______ _______ _____ _____    ______ ____
ROOT
ATOM      1  C   UNL     1      44.843   5.374  10.624  0.00  0.00    +0.000 A 
ATOM      2  C   UNL     1      44.228   5.782  11.816  0.00  0.00    +0.000 A 
ATOM      3  C   UNL     1      44.870   6.676  12.681  0.00  0.00    +0.000 A 
ATOM      4  C   UNL     1      46.131   7.197  12.361  0.00  0.00    +0.000 A 
ATOM      5  C   UNL     1      46.746   6.785  11.172  0.00  0.00    +0.000 A 
ATOM      6  C   UNL     1      46.105   5.892  10.307  0.00  0.00    +0.000 A 
ENDROOT
BRANCH   1   7
ATOM      7  C   UNL     1      44.145   4.421   9.689  0.00  0.00    +0.000 C 
BRANCH   7  10
ATOM      8  O   UNL     1      45.361   1.920   9.428  0.00  0.00    +0.000 OA
ATOM      9  C   UNL     1      45.564   2.764   8.561  0.00  0.00    +0.000 C 
ATOM     10  N   UNL     1      45.012   4.021   8.608  0.00  0.00    +0.000 N 
ATOM     11  H   UNL     1      45.100   4.636   7.814  0.00  0.00    +0.000 HD
BRANCH   9  12
ATOM     12  C   UNL     1      46.392   2.505   7.413  0.00  0.00    +0.000 A 
ATOM     13  C   UNL     1      46.574   3.163   6.211  0.00  0.00    +0.000 A 
ATOM     14  C   UNL     1      47.532   2.405   5.515  0.00  0.00    +0.000 A 
ATOM     15  N   UNL     1      47.936   1.340   6.207  0.00  0.00    +0.000 NA
ATOM     16  N   UNL     1      47.242   1.430   7.359  0.00  0.00    +0.000 N 
ATOM     17  H   UNL     1      47.383   0.723   8.074  0.00  0.00    +0.000 HD
ENDBRANCH   9  12
ENDBRANCH   7  10
ENDBRANCH   1   7
BRANCH   4  18
ATOM     18  C   UNL     1      46.843   8.138  13.301  0.00  0.00    +0.000 C 
BRANCH  18  19
ATOM     19  N   UNL     1      47.363   7.425  14.440  0.00  0.00    +0.000 N 
ATOM     20  C   UNL     1      48.633   6.907  14.455  0.00  0.00    +0.000 C 
ATOM     21  O   UNL     1      49.413   7.065  13.520  0.00  0.00    +0.000 OA
ATOM     22  H   UNL     1      46.679   7.073  15.103  0.00  0.00    +0.000 HD
BRANCH  20  23
ATOM     23  C   UNL     1      49.033   6.209  15.684  0.00  0.00    +0.000 A 
ATOM     24  C   UNL     1      50.142   6.644  16.399  0.00  0.00    +0.000 A 
ATOM     25  S   UNL     1      50.406   5.774  17.843  0.00  0.00    +0.000 S 
ATOM     26  C   UNL     1      49.084   4.749  17.533  0.00  0.00    +0.000 A 
ATOM     27  N   UNL     1      48.755   3.750  18.397  0.00  0.00    +0.000 NA
ATOM     28  C   UNL     1      47.750   3.030  18.022  0.00  0.00    +0.000 A 
ATOM     29  N   UNL     1      47.045   3.218  16.861  0.00  0.00    +0.000 N 
ATOM     30  C   UNL     1      47.328   4.226  15.971  0.00  0.00    +0.000 A 
ATOM     31  O   UNL     1      46.661   4.381  14.955  0.00  0.00    +0.000 OA
ATOM     32  C   UNL     1      48.447   5.069  16.348  0.00  0.00    +0.000 A 
ATOM     33  H   UNL     1      46.268   2.620  16.624  0.00  0.00    +0.000 HD
ENDBRANCH  20  23
ENDBRANCH  18  19
ENDBRANCH   4  18
TORSDOF 6
ENDMDL
MODEL 2
REMARK VINA RESULT:    -7.289      2.254      3.723
REMARK INTER + INTRA:         -11.030
REMARK INTER:                 -10.104
REMARK INTRA:                  -0.926
REMARK UNBOUND:                -1.184
REMARK  Name = 
REMARK  6 active torsions:
REMARK  status: ('A' for Active; 'I' for Inactive)
REMARK    1  A    between atoms: C_2  and  C_25
REMARK    2  A    between atoms: N_3  and  C_4
REMARK    3  A    between atoms: C_4  and  C_5
REMARK    4  A    between atoms: C_8  and  C_9
REMARK    5  A    between atoms: C_9  and  N_10
REMARK    6  A    between atoms: C_11  and  C_13
REMARK                            x       y       z     vdW  Elec       q    Type
REMARK                         _______ _______ _______ _____ _____    ______ ____
ROOT
ATOM      1  C   UNL     1      44.782   4.320  11.257  0.00  0.00    +0.000 A 
ATOM      2  C   UNL     1      45.230   3.168  11.918  0.00  0.00    +0.000 A 
ATOM      3  C   UNL     1      45.927   3.264  13.127  0.00  0.00    +0.000 A 
ATOM      4  C   UNL     1      46.173   4.514  13.712  0.00  0.00    +0.000 A 
ATOM      5  C   UNL     1      45.729   5.665  13.048  0.00  0.00    +0.000 A 
ATOM      6  C   UNL     1      45.031   5.570  11.840  0.00  0.00    +0.000 A 
ENDROOT
BRANCH   1   7
ATOM      7  C   UNL     1      44.021   4.214   9.961  0.00  0.00    +0.000 C 
BRANCH   7  10
ATOM      8  O   UNL     1      46.094   5.171   8.351  0.00  0.00    +0.000 OA
ATOM      9  C   UNL     1      45.762   3.994   8.242  0.00  0.00    +0.000 C 
ATOM     10  N   UNL     1      44.751   3.438   8.989  0.00  0.00    +0.000 N 
ATOM     11  H   UNL     1      44.599   2.442   8.961  0.00  0.00    +0.000 HD
BRANCH   9  12
ATOM     12  C   UNL     1      46.411   3.092   7.329  0.00  0.00    +0.000 A 
ATOM     13  C   UNL     1      46.819   3.211   6.013  0.00  0.00    +0.000 A 
ATOM     14  C   UNL     1      47.403   1.972   5.693  0.00  0.00    +0.000 A 
ATOM     15  N   UNL     1      47.373   1.119   6.717  0.00  0.00    +0.000 NA
ATOM     16  N   UNL     1      46.782   1.825   7.700  0.00  0.00    +0.000 N 
ATOM     17  H   UNL     1      46.648   1.388   8.607  0.00  0.00    +0.000 HD
ENDBRANCH   9  12
ENDBRANCH   7  10
ENDBRANCH   1   7
BRANCH   4  18
ATOM     18  C   UNL     1      46.950   4.630  15.000  0.00  0.00    +0.000 C 
BRANCH  18  19
ATOM     19  N   UNL     1      47.739   5.834  15.014  0.00  0.00    +0.000 N 
ATOM     20  C   UNL     1      48.699   6.063  15.967  0.00  0.00    +0.000 C 
ATOM     21  O   UNL     1      48.973   5.233  16.829  0.00  0.00    +0.000 OA
ATOM     22  H   UNL     1      47.374   6.619  14.484  0.00  0.00    +0.000 HD
BRANCH  20  23
ATOM     23  C   UNL     1      49.432   7.332  15.856  0.00  0.00    +0.000 A 
ATOM     24  C   UNL     1      49.706   8.075  16.997  0.00  0.00    +0.000 A 
ATOM     25  S   UNL     1      50.640   9.471  16.693  0.00  0.00    +0.000 S 
ATOM     26  C   UNL     1      50.660   9.161  15.020  0.00  0.00    +0.000 A 
ATOM     27  N   UNL     1      51.300   9.999  14.160  0.00  0.00    +0.000 NA
ATOM     28  C   UNL     1      51.209   9.659  12.916  0.00  0.00    +0.000 A 
ATOM     29  N   UNL     1      50.534   8.558  12.456  0.00  0.00    +0.000 N 
ATOM     30  C   UNL     1      49.892   7.674  13.289  0.00  0.00    +0.000 A 
ATOM     31  O   UNL     1      49.320   6.685  12.845  0.00  0.00    +0.000 OA
ATOM     32  C   UNL     1      49.968   8.007  14.699  0.00  0.00    +0.000 A 
ATOM     33  H   UNL     1      50.499   8.347  11.470  0.00  0.00    +0.000 HD
ENDBRANCH  20  23
ENDBRANCH  18  19
ENDBRANCH   4  18
TORSDOF 6
ENDMDL
MODEL 3
REMARK VINA RESULT:    -7.215      1.866      2.549
REMARK INTER + INTRA:         -10.929
REMARK INTER:                 -10.183
REMARK INTRA:                  -0.746
REMARK UNBOUND:                -1.184
REMARK  Name = 
REMARK  6 active torsions:
REMARK  status: ('A' for Active; 'I' for Inactive)
REMARK    1  A    between atoms: C_2  and  C_25
REMARK    2  A    between atoms: N_3  and  C_4
REMARK    3  A    between atoms: C_4  and  C_5
REMARK    4  A    between atoms: C_8  and  C_9
REMARK    5  A    between atoms: C_9  and  N_10
REMARK    6  A    between atoms: C_11  and  C_13
REMARK                            x       y       z     vdW  Elec       q    Type
REMARK                         _______ _______ _______ _____ _____    ______ ____
ROOT
ATOM      1  C   UNL     1      45.301   5.208  11.025  0.00  0.00    +0.000 A 
ATOM      2  C   UNL     1      45.460   4.677  12.313  0.00  0.00    +0.000 A 
ATOM      3  C   UNL     1      46.193   5.367  13.284  0.00  0.00    +0.000 A 
ATOM      4  C   UNL     1      46.764   6.614  12.995  0.00  0.00    +0.000 A 
ATOM      5  C   UNL     1      46.610   7.140  11.706  0.00  0.00    +0.000 A 
ATOM      6  C   UNL     1      45.876   6.451  10.735  0.00  0.00    +0.000 A 
ENDROOT
BRANCH   1   7
ATOM      7  C   UNL     1      44.501   4.468   9.984  0.00  0.00    +0.000 C 
BRANCH   7  10
ATOM      8  O   UNL     1      45.142   1.837   9.298  0.00  0.00    +0.000 OA
ATOM      9  C   UNL     1      45.589   2.748   8.609  0.00  0.00    +0.000 C 
ATOM     10  N   UNL     1      45.330   4.072   8.873  0.00  0.00    +0.000 N 
ATOM     11  H   UNL     1      45.609   4.778   8.209  0.00  0.00    +0.000 HD
BRANCH   9  12
ATOM     12  C   UNL     1      46.416   2.508   7.456  0.00  0.00    +0.000 A 
ATOM     13  C   UNL     1      46.600   3.187   6.266  0.00  0.00    +0.000 A 
ATOM     14  C   UNL     1      47.556   2.439   5.557  0.00  0.00    +0.000 A 
ATOM     15  N   UNL     1      47.957   1.361   6.230  0.00  0.00    +0.000 NA
ATOM     16  N   UNL     1      47.264   1.432   7.383  0.00  0.00    +0.000 N 
ATOM     17  H   UNL     1      47.403   0.712   8.085  0.00  0.00    +0.000 HD
ENDBRANCH   9  12
ENDBRANCH   7  10
ENDBRANCH   1   7
BRANCH   4  18
ATOM     18  C   UNL     1      47.582   7.351  14.026  0.00  0.00    +0.000 C 
BRANCH  18  19
ATOM     19  N   UNL     1      48.154   6.433  14.977  0.00  0.00    +0.000 N 
ATOM     20  C   UNL     1      48.707   6.860  16.158  0.00  0.00    +0.000 C 
ATOM     21  O   UNL     1      48.699   8.042  16.492  0.00  0.00    +0.000 OA
ATOM     22  H   UNL     1      48.393   5.511  14.627  0.00  0.00    +0.000 HD
BRANCH  20  23
ATOM     23  C   UNL     1      49.248   5.814  17.036  0.00  0.00    +0.000 A 
ATOM     24  C   UNL     1      48.387   5.029  17.792  0.00  0.00    +0.000 A 
ATOM     25  S   UNL     1      49.182   3.809  18.683  0.00  0.00    +0.000 S 
ATOM     26  C   UNL     1      50.707   4.325  18.134  0.00  0.00    +0.000 A 
ATOM     27  N   UNL     1      51.845   3.696  18.536  0.00  0.00    +0.000 NA
ATOM     28  C   UNL     1      52.934   4.212  18.068  0.00  0.00    +0.000 A 
ATOM     29  N   UNL     1      52.987   5.299  17.235  0.00  0.00    +0.000 N 
ATOM     30  C   UNL     1      51.863   5.952  16.788  0.00  0.00    +0.000 A 
ATOM     31  O   UNL     1      51.947   6.907  16.022  0.00  0.00    +0.000 OA
ATOM     32  C   UNL     1      50.612   5.409  17.280  0.00  0.00    +0.000 A 
ATOM     33  H   UNL     1      53.871   5.656  16.904  0.00  0.00    +0.000 HD
ENDBRANCH  20  23
ENDBRANCH  18  19
ENDBRANCH   4  18
TORSDOF 6
ENDMDL
MODEL 4
REMARK VINA RESULT:    -7.110      4.404      6.102
REMARK INTER + INTRA:         -10.788
REMARK INTER:                 -10.052
REMARK INTRA:                  -0.736
REMARK UNBOUND:                -1.184
REMARK  Name = 
REMARK  6 active torsions:
REMARK  status: ('A' for Active; 'I' for Inactive)
REMARK    1  A    between atoms: C_2  and  C_25
REMARK    2  A    between atoms: N_3  and  C_4
REMARK    3  A    between atoms: C_4  and  C_5
REMARK    4  A    between atoms: C_8  and  C_9
REMARK    5  A    between atoms: C_9  and  N_10
REMARK    6  A    between atoms: C_11  and  C_13
REMARK                            x       y       z     vdW  Elec       q    Type
REMARK                         _______ _______ _______ _____ _____    ______ ____
ROOT
ATOM      1  C   UNL     1      45.313   7.800  11.986  0.00  0.00    +0.000 A 
ATOM      2  C   UNL     1      44.408   6.734  12.097  0.00  0.00    +0.000 A 
ATOM      3  C   UNL     1      44.736   5.595  12.841  0.00  0.00    +0.000 A 
ATOM      4  C   UNL     1      45.965   5.507  13.508  0.00  0.00    +0.000 A 
ATOM      5  C   UNL     1      46.870   6.570  13.392  0.00  0.00    +0.000 A 
ATOM      6  C   UNL     1      46.543   7.710  12.649  0.00  0.00    +0.000 A 
ENDROOT
BRANCH   1   7
ATOM      7  C   UNL     1      44.954   9.031  11.194  0.00  0.00    +0.000 C 
BRANCH   7  10
ATOM      8  O   UNL     1      43.458  10.510   9.357  0.00  0.00    +0.000 OA
ATOM      9  C   UNL     1      42.894  10.070  10.354  0.00  0.00    +0.000 C 
ATOM     10  N   UNL     1      43.550   9.337  11.313  0.00  0.00    +0.000 N 
ATOM     11  H   UNL     1      43.023   8.888  12.046  0.00  0.00    +0.000 HD
BRANCH   9  12
ATOM     12  C   UNL     1      41.491  10.278  10.600  0.00  0.00    +0.000 A 
ATOM     13  C   UNL     1      40.590  11.239  10.181  0.00  0.00    +0.000 A 
ATOM     14  C   UNL     1      39.363  10.875  10.762  0.00  0.00    +0.000 A 
ATOM     15  N   UNL     1      39.460   9.769  11.500  0.00  0.00    +0.000 NA
ATOM     16  N   UNL     1      40.755   9.418  11.374  0.00  0.00    +0.000 N 
ATOM     17  H   UNL     1      41.086   8.583  11.847  0.00  0.00    +0.000 HD
ENDBRANCH   9  12
ENDBRANCH   7  10
ENDBRANCH   1   7
BRANCH   4  18
ATOM     18  C   UNL     1      46.339   4.270  14.287  0.00  0.00    +0.000 C 
BRANCH  18  19
ATOM     19  N   UNL     1      47.453   4.534  15.160  0.00  0.00    +0.000 N 
ATOM     20  C   UNL     1      47.498   4.059  16.446  0.00  0.00    +0.000 C 
ATOM     21  O   UNL     1      46.614   3.341  16.907  0.00  0.00    +0.000 OA
ATOM     22  H   UNL     1      48.057   5.307  14.899  0.00  0.00    +0.000 HD
BRANCH  20  23
ATOM     23  C   UNL     1      48.698   4.400  17.222  0.00  0.00    +0.000 A 
ATOM     24  C   UNL     1      48.774   5.621  17.879  0.00  0.00    +0.000 A 
ATOM     25  S   UNL     1      50.198   5.812  18.801  0.00  0.00    +0.000 S 
ATOM     26  C   UNL     1      50.787   4.294  18.307  0.00  0.00    +0.000 A 
ATOM     27  N   UNL     1      51.993   3.836  18.739  0.00  0.00    +0.000 NA
ATOM     28  C   UNL     1      52.330   2.684  18.261  0.00  0.00    +0.000 A 
ATOM     29  N   UNL     1      51.569   1.949  17.389  0.00  0.00    +0.000 N 
ATOM     30  C   UNL     1      50.337   2.362  16.943  0.00  0.00    +0.000 A 
ATOM     31  O   UNL     1      49.672   1.667  16.183  0.00  0.00    +0.000 OA
ATOM     32  C   UNL     1      49.908   3.650  17.455  0.00  0.00    +0.000 A 
ATOM     33  H   UNL     1      51.889   1.054  17.050  0.00  0.00    +0.000 HD
ENDBRANCH  20  23
ENDBRANCH  18  19
ENDBRANCH   4  18
TORSDOF 6
ENDMDL
MODEL 5
REMARK VINA RESULT:    -7.064      1.890      2.295
REMARK INTER + INTRA:         -10.725
REMARK INTER:                  -9.854
REMARK INTRA:                  -0.871
REMARK UNBOUND:                -1.184
REMARK  Name = 
REMARK  6 active torsions:
REMARK  status: ('A' for Active; 'I' for Inactive)
REMARK    1  A    between atoms: C_2  and  C_25
REMARK    2  A    between atoms: N_3  and  C_4
REMARK    3  A    between atoms: C_4  and  C_5
REMARK    4  A    between atoms: C_8  and  C_9
REMARK    5  A    between atoms: C_9  and  N_10
REMARK    6  A    between atoms: C_11  and  C_13
REMARK                            x       y       z     vdW  Elec       q    Type
REMARK                         _______ _______ _______ _____ _____    ______ ____
ROOT
ATOM      1  C   UNL     1      45.282   5.939  11.335  0.00  0.00    +0.000 A 
ATOM      2  C   UNL     1      46.340   5.468  12.126  0.00  0.00    +0.000 A 
ATOM      3  C   UNL     1      47.072   6.344  12.934  0.00  0.00    +0.000 A 
ATOM      4  C   UNL     1      46.749   7.707  12.984  0.00  0.00    +0.000 A 
ATOM      5  C   UNL     1      45.695   8.177  12.189  0.00  0.00    +0.000 A 
ATOM      6  C   UNL     1      44.962   7.301  11.382  0.00  0.00    +0.000 A 
ENDROOT
BRANCH   1   7
ATOM      7  C   UNL     1      44.487   4.991  10.474  0.00  0.00    +0.000 C 
BRANCH   7  10
ATOM      8  O   UNL     1      44.284   2.358   9.562  0.00  0.00    +0.000 OA
ATOM      9  C   UNL     1      45.138   3.087   9.066  0.00  0.00    +0.000 C 
ATOM     10  N   UNL     1      45.313   4.393   9.455  0.00  0.00    +0.000 N 
ATOM     11  H   UNL     1      45.936   4.991   8.934  0.00  0.00    +0.000 HD
BRANCH   9  12
ATOM     12  C   UNL     1      46.023   2.637   8.025  0.00  0.00    +0.000 A 
ATOM     13  C   UNL     1      46.597   3.265   6.935  0.00  0.00    +0.000 A 
ATOM     14  C   UNL     1      47.375   2.278   6.306  0.00  0.00    +0.000 A 
ATOM     15  N   UNL     1      47.309   1.104   6.935  0.00  0.00    +0.000 NA
ATOM     16  N   UNL     1      46.496   1.351   7.980  0.00  0.00    +0.000 N 
ATOM     17  H   UNL     1      46.291   0.599   8.631  0.00  0.00    +0.000 HD
ENDBRANCH   9  12
ENDBRANCH   7  10
ENDBRANCH   1   7
BRANCH   4  18
ATOM     18  C   UNL     1      47.552   8.665  13.829  0.00  0.00    +0.000 C 
BRANCH  18  19
ATOM     19  N   UNL     1      47.760   8.130  15.150  0.00  0.00    +0.000 N 
ATOM     20  C   UNL     1      48.318   8.877  16.156  0.00  0.00    +0.000 C 
ATOM     21  O   UNL     1      48.624  10.056  16.001  0.00  0.00    +0.000 OA
ATOM     22  H   UNL     1      47.751   7.119  15.234  0.00  0.00    +0.000 HD
BRANCH  20  23
ATOM     23  C   UNL     1      48.466   8.206  17.455  0.00  0.00    +0.000 A 
ATOM     24  C   UNL     1      47.968   8.804  18.605  0.00  0.00    +0.000 A 
ATOM     25  S   UNL     1      48.149   7.845  20.005  0.00  0.00    +0.000 S 
ATOM     26  C   UNL     1      48.952   6.625  19.133  0.00  0.00    +0.000 A 
ATOM     27  N   UNL     1      49.396   5.497  19.753  0.00  0.00    +0.000 NA
ATOM     28  C   UNL     1      50.015   4.670  18.977  0.00  0.00    +0.000 A 
ATOM     29  N   UNL     1      50.231   4.869  17.638  0.00  0.00    +0.000 N 
ATOM     30  C   UNL     1      49.784   5.982  16.967  0.00  0.00    +0.000 A 
ATOM     31  O   UNL     1      49.973   6.115  15.763  0.00  0.00    +0.000 OA
ATOM     32  C   UNL     1      49.076   6.942  17.792  0.00  0.00    +0.000 A 
ATOM     33  H   UNL     1      50.724   4.184  17.086  0.00  0.00    +0.000 HD
ENDBRANCH  20  23
ENDBRANCH  18  19
ENDBRANCH   4  18
TORSDOF 6
ENDMDL
MODEL 6
REMARK VINA RESULT:    -6.946      3.782      4.964
REMARK INTER + INTRA:         -10.566
REMARK INTER:                  -9.482
REMARK INTRA:                  -1.084
REMARK UNBOUND:                -1.184
REMARK  Name = 
REMARK  6 active torsions:
REMARK  status: ('A' for Active; 'I' for Inactive)
REMARK    1  A    between atoms: C_2  and  C_25
REMARK    2  A    between atoms: N_3  and  C_4
REMARK    3  A    between atoms: C_4  and  C_5
REMARK    4  A    between atoms: C_8  and  C_9
REMARK    5  A    between atoms: C_9  and  N_10
REMARK    6  A    between atoms: C_11  and  C_13
REMARK                            x       y       z     vdW  Elec       q    Type
REMARK                         _______ _______ _______ _____ _____    ______ ____
ROOT
ATOM      1  C   UNL     1      44.904   4.771  11.778  0.00  0.00    +0.000 A 
ATOM      2  C   UNL     1      46.030   5.021  12.574  0.00  0.00    +0.000 A 
ATOM      3  C   UNL     1      46.398   6.331  12.900  0.00  0.00    +0.000 A 
ATOM      4  C   UNL     1      45.634   7.418  12.454  0.00  0.00    +0.000 A 
ATOM      5  C   UNL     1      44.512   7.167  11.653  0.00  0.00    +0.000 A 
ATOM      6  C   UNL     1      44.143   5.857  11.329  0.00  0.00    +0.000 A 
ENDROOT
BRANCH   1   7
ATOM      7  C   UNL     1      44.503   3.358  11.438  0.00  0.00    +0.000 C 
BRANCH   7  10
ATOM      8  O   UNL     1      44.137   3.637   8.683  0.00  0.00    +0.000 OA
ATOM      9  C   UNL     1      45.103   2.995   9.085  0.00  0.00    +0.000 C 
ATOM     10  N   UNL     1      45.360   2.802  10.421  0.00  0.00    +0.000 N 
ATOM     11  H   UNL     1      46.231   2.381  10.707  0.00  0.00    +0.000 HD
BRANCH   9  12
ATOM     12  C   UNL     1      46.057   2.397   8.188  0.00  0.00    +0.000 A 
ATOM     13  C   UNL     1      46.986   2.922   7.309  0.00  0.00    +0.000 A 
ATOM     14  C   UNL     1      47.621   1.808   6.732  0.00  0.00    +0.000 A 
ATOM     15  N   UNL     1      47.140   0.654   7.197  0.00  0.00    +0.000 NA
ATOM     16  N   UNL     1      46.205   1.037   8.088  0.00  0.00    +0.000 N 
ATOM     17  H   UNL     1      45.690   0.325   8.596  0.00  0.00    +0.000 HD
ENDBRANCH   9  12
ENDBRANCH   7  10
ENDBRANCH   1   7
BRANCH   4  18
ATOM     18  C   UNL     1      46.040   8.835  12.774  0.00  0.00    +0.000 C 
BRANCH  18  19
ATOM     19  N   UNL     1      47.283   9.170  12.127  0.00  0.00    +0.000 N 
ATOM     20  C   UNL     1      48.306   9.791  12.796  0.00  0.00    +0.000 C 
ATOM     21  O   UNL     1      48.238  10.051  13.995  0.00  0.00    +0.000 OA
ATOM     22  H   UNL     1      47.270   9.195  11.112  0.00  0.00    +0.000 HD
BRANCH  20  23
ATOM     23  C   UNL     1      49.518  10.068  12.014  0.00  0.00    +0.000 A 
ATOM     24  C   UNL     1      49.882  11.380  11.741  0.00  0.00    +0.000 A 
ATOM     25  S   UNL     1      51.361  11.516  10.899  0.00  0.00    +0.000 S 
ATOM     26  C   UNL     1      51.535   9.825  10.820  0.00  0.00    +0.000 A 
ATOM     27  N   UNL     1      52.610   9.260  10.206  0.00  0.00    +0.000 NA
ATOM     28  C   UNL     1      52.598   7.968  10.192  0.00  0.00    +0.000 A 
ATOM     29  N   UNL     1      51.608   7.191  10.735  0.00  0.00    +0.000 N 
ATOM     30  C   UNL     1      50.516   7.718  11.381  0.00  0.00    +0.000 A 
ATOM     31  O   UNL     1      49.661   6.992  11.878  0.00  0.00    +0.000 OA
ATOM     32  C   UNL     1      50.483   9.167  11.430  0.00  0.00    +0.000 A 
ATOM     33  H   UNL     1      51.657   6.184  10.690  0.00  0.00    +0.000 HD
ENDBRANCH  20  23
ENDBRANCH  18  19
ENDBRANCH   4  18
TORSDOF 6
ENDMDL
MODEL 7
REMARK VINA RESULT:    -6.837      2.926      3.971
REMARK INTER + INTRA:         -10.419
REMARK INTER:                  -9.596
REMARK INTRA:                  -0.823
REMARK UNBOUND:                -1.184
REMARK  Name = 
REMARK  6 active torsions:
REMARK  status: ('A' for Active; 'I' for Inactive)
REMARK    1  A    between atoms: C_2  and  C_25
REMARK    2  A    between atoms: N_3  and  C_4
REMARK    3  A    between atoms: C_4  and  C_5
REMARK    4  A    between atoms: C_8  and  C_9
REMARK    5  A    between atoms: C_9  and  N_10
REMARK    6  A    between atoms: C_11  and  C_13
REMARK                            x       y       z     vdW  Elec       q    Type
REMARK                         _______ _______ _______ _____ _____    ______ ____
ROOT
ATOM      1  C   UNL     1      46.371   4.845  13.940  0.00  0.00    +0.000 A 
ATOM      2  C   UNL     1      46.786   4.388  15.199  0.00  0.00    +0.000 A 
ATOM      3  C   UNL     1      47.800   5.049  15.900  0.00  0.00    +0.000 A 
ATOM      4  C   UNL     1      48.405   6.195  15.367  0.00  0.00    +0.000 A 
ATOM      5  C   UNL     1      47.994   6.648  14.107  0.00  0.00    +0.000 A 
ATOM      6  C   UNL     1      46.979   5.988  13.406  0.00  0.00    +0.000 A 
ENDROOT
BRANCH   1   7
ATOM      7  C   UNL     1      45.270   4.138  13.192  0.00  0.00    +0.000 C 
BRANCH   7  10
ATOM      8  O   UNL     1      43.467   3.462  11.168  0.00  0.00    +0.000 OA
ATOM      9  C   UNL     1      44.640   3.664  10.866  0.00  0.00    +0.000 C 
ATOM     10  N   UNL     1      45.596   3.997  11.794  0.00  0.00    +0.000 N 
ATOM     11  H   UNL     1      46.514   4.280  11.487  0.00  0.00    +0.000 HD
BRANCH   9  12
ATOM     12  C   UNL     1      45.110   3.579   9.509  0.00  0.00    +0.000 A 
ATOM     13  C   UNL     1      45.220   2.535   8.610  0.00  0.00    +0.000 A 
ATOM     14  C   UNL     1      45.747   3.108   7.439  0.00  0.00    +0.000 A 
ATOM     15  N   UNL     1      45.963   4.417   7.569  0.00  0.00    +0.000 NA
ATOM     16  N   UNL     1      45.557   4.682   8.826  0.00  0.00    +0.000 N 
ATOM     17  H   UNL     1      45.613   5.635   9.170  0.00  0.00    +0.000 HD
ENDBRANCH   9  12
ENDBRANCH   7  10
ENDBRANCH   1   7
BRANCH   4  18
ATOM     18  C   UNL     1      49.520   6.897  16.102  0.00  0.00    +0.000 C 
BRANCH  18  19
ATOM     19  N   UNL     1      50.497   5.950  16.575  0.00  0.00    +0.000 N 
ATOM     20  C   UNL     1      50.603   5.617  17.901  0.00  0.00    +0.000 C 
ATOM     21  O   UNL     1      49.840   6.070  18.751  0.00  0.00    +0.000 OA
ATOM     22  H   UNL     1      51.277   5.759  15.955  0.00  0.00    +0.000 HD
BRANCH  20  23
ATOM     23  C   UNL     1      51.640   4.633  18.241  0.00  0.00    +0.000 A 
ATOM     24  C   UNL     1      52.771   5.032  18.941  0.00  0.00    +0.000 A 
ATOM     25  S   UNL     1      53.824   3.745  19.326  0.00  0.00    +0.000 S 
ATOM     26  C   UNL     1      52.834   2.621  18.520  0.00  0.00    +0.000 A 
ATOM     27  N   UNL     1      53.172   1.304  18.463  0.00  0.00    +0.000 NA
ATOM     28  C   UNL     1      52.346   0.569  17.793  0.00  0.00    +0.000 A 
ATOM     29  N   UNL     1      51.214   1.033  17.175  0.00  0.00    +0.000 N 
ATOM     30  C   UNL     1      50.823   2.349  17.224  0.00  0.00    +0.000 A 
ATOM     31  O   UNL     1      49.790   2.725  16.680  0.00  0.00    +0.000 OA
ATOM     32  C   UNL     1      51.714   3.218  17.969  0.00  0.00    +0.000 A 
ATOM     33  H   UNL     1      50.609   0.407  16.664  0.00  0.00    +0.000 HD
ENDBRANCH  20  23
ENDBRANCH  18  19
ENDBRANCH   4  18
TORSDOF 6
ENDMDL
MODEL 8
REMARK VINA RESULT:    -6.687      3.612      8.163
REMARK INTER + INTRA:         -10.217
REMARK INTER:                  -9.348
REMARK INTRA:                  -0.869
REMARK UNBOUND:                -1.184
REMARK  Name = 
REMARK  6 active torsions:
REMARK  status: ('A' for Active; 'I' for Inactive)
REMARK    1  A    between atoms: C_2  and  C_25
REMARK    2  A    between atoms: N_3  and  C_4
REMARK    3  A    between atoms: C_4  and  C_5
REMARK    4  A    between atoms: C_8  and  C_9
REMARK    5  A    between atoms: C_9  and  N_10
REMARK    6  A    between atoms: C_11  and  C_13
REMARK                            x       y       z     vdW  Elec       q    Type
REMARK                         _______ _______ _______ _____ _____    ______ ____
ROOT
ATOM      1  C   UNL     1      50.281   7.177  15.725  0.00  0.00    +0.000 A 
ATOM      2  C   UNL     1      48.922   6.877  15.552  0.00  0.00    +0.000 A 
ATOM      3  C   UNL     1      48.267   7.194  14.357  0.00  0.00    +0.000 A 
ATOM      4  C   UNL     1      48.962   7.797  13.301  0.00  0.00    +0.000 A 
ATOM      5  C   UNL     1      50.319   8.101  13.476  0.00  0.00    +0.000 A 
ATOM      6  C   UNL     1      50.975   7.784  14.670  0.00  0.00    +0.000 A 
ENDROOT
BRANCH   1   7
ATOM      7  C   UNL     1      50.987   6.824  17.008  0.00  0.00    +0.000 C 
BRANCH   7  10
ATOM      8  O   UNL     1      49.985   4.844  18.705  0.00  0.00    +0.000 OA
ATOM      9  C   UNL     1      50.846   4.535  17.886  0.00  0.00    +0.000 C 
ATOM     10  N   UNL     1      51.399   5.442  17.015  0.00  0.00    +0.000 N 
ATOM     11  H   UNL     1      52.005   5.121  16.276  0.00  0.00    +0.000 HD
BRANCH   9  12
ATOM     12  C   UNL     1      51.342   3.190  17.762  0.00  0.00    +0.000 A 
ATOM     13  C   UNL     1      52.596   2.628  17.910  0.00  0.00    +0.000 A 
ATOM     14  C   UNL     1      52.418   1.255  17.663  0.00  0.00    +0.000 A 
ATOM     15  N   UNL     1      51.152   0.952  17.375  0.00  0.00    +0.000 NA
ATOM     16  N   UNL     1      50.517   2.138  17.455  0.00  0.00    +0.000 N 
ATOM     17  H   UNL     1      49.517   2.172  17.283  0.00  0.00    +0.000 HD
ENDBRANCH   9  12
ENDBRANCH   7  10
ENDBRANCH   1   7
BRANCH   4  18
ATOM     18  C   UNL     1      48.258   8.170  12.020  0.00  0.00    +0.000 C 
BRANCH  18  19
ATOM     19  N   UNL     1      47.553   7.038  11.476  0.00  0.00    +0.000 N 
ATOM     20  C   UNL     1      46.186   7.016  11.368  0.00  0.00    +0.000 C 
ATOM     21  O   UNL     1      45.491   7.980  11.682  0.00  0.00    +0.000 OA
ATOM     22  H   UNL     1      48.064   6.161  11.445  0.00  0.00    +0.000 HD
BRANCH  20  23
ATOM     23  C   UNL     1      45.600   5.799  10.790  0.00  0.00    +0.000 A 
ATOM     24  C   UNL     1      45.804   5.502   9.449  0.00  0.00    +0.000 A 
ATOM     25  S   UNL     1      45.128   4.009   8.971  0.00  0.00    +0.000 S 
ATOM     26  C   UNL     1      44.491   3.737  10.525  0.00  0.00    +0.000 A 
ATOM     27  N   UNL     1      43.775   2.613  10.802  0.00  0.00    +0.000 NA
ATOM     28  C   UNL     1      43.325   2.551  12.012  0.00  0.00    +0.000 A 
ATOM     29  N   UNL     1      43.527   3.511  12.969  0.00  0.00    +0.000 N 
ATOM     30  C   UNL     1      44.261   4.650  12.741  0.00  0.00    +0.000 A 
ATOM     31  O   UNL     1      44.442   5.477  13.628  0.00  0.00    +0.000 OA
ATOM     32  C   UNL     1      44.794   4.767  11.397  0.00  0.00    +0.000 A 
ATOM     33  H   UNL     1      43.148   3.404  13.898  0.00  0.00    +0.000 HD
ENDBRANCH  20  23
ENDBRANCH  18  19
ENDBRANCH   4  18
TORSDOF 6
ENDMDL
MODEL 9
REMARK VINA RESULT:    -6.563      3.505      8.372
REMARK INTER + INTRA:         -10.049
REMARK INTER:                  -9.267
REMARK INTRA:                  -0.782
REMARK UNBOUND:                -1.184
REMARK  Name = 
REMARK  6 active torsions:
REMARK  status: ('A' for Active; 'I' for Inactive)
REMARK    1  A    between atoms: C_2  and  C_25
REMARK    2  A    between atoms: N_3  and  C_4
REMARK    3  A    between atoms: C_4  and  C_5
REMARK    4  A    between atoms: C_8  and  C_9
REMARK    5  A    between atoms: C_9  and  N_10
REMARK    6  A    between atoms: C_11  and  C_13
REMARK                            x       y       z     vdW  Elec       q    Type
REMARK                         _______ _______ _______ _____ _____    ______ ____
ROOT
ATOM      1  C   UNL     1      48.840   4.704  17.297  0.00  0.00    +0.000 A 
ATOM      2  C   UNL     1      49.650   5.800  16.969  0.00  0.00    +0.000 A 
ATOM      3  C   UNL     1      49.399   6.554  15.817  0.00  0.00    +0.000 A 
ATOM      4  C   UNL     1      48.319   6.241  14.981  0.00  0.00    +0.000 A 
ATOM      5  C   UNL     1      47.514   5.142  15.307  0.00  0.00    +0.000 A 
ATOM      6  C   UNL     1      47.763   4.389  16.459  0.00  0.00    +0.000 A 
ENDROOT
BRANCH   1   7
ATOM      7  C   UNL     1      49.105   3.901  18.544  0.00  0.00    +0.000 C 
BRANCH   7  10
ATOM      8  O   UNL     1      49.856   1.751  16.927  0.00  0.00    +0.000 OA
ATOM      9  C   UNL     1      50.695   2.243  17.676  0.00  0.00    +0.000 C 
ATOM     10  N   UNL     1      50.415   3.299  18.509  0.00  0.00    +0.000 N 
ATOM     11  H   UNL     1      51.163   3.753  19.010  0.00  0.00    +0.000 HD
BRANCH   9  12
ATOM     12  C   UNL     1      52.049   1.761  17.737  0.00  0.00    +0.000 A 
ATOM     13  C   UNL     1      53.279   2.391  17.696  0.00  0.00    +0.000 A 
ATOM     14  C   UNL     1      54.228   1.360  17.813  0.00  0.00    +0.000 A 
ATOM     15  N   UNL     1      53.659   0.158  17.918  0.00  0.00    +0.000 NA
ATOM     16  N   UNL     1      52.340   0.429  17.884  0.00  0.00    +0.000 N 
ATOM     17  H   UNL     1      51.679  -0.338  17.959  0.00  0.00    +0.000 HD
ENDBRANCH   9  12
ENDBRANCH   7  10
ENDBRANCH   1   7
BRANCH   4  18
ATOM     18  C   UNL     1      48.059   7.029  13.721  0.00  0.00    +0.000 C 
BRANCH  18  19
ATOM     19  N   UNL     1      47.421   6.206  12.726  0.00  0.00    +0.000 N 
ATOM     20  C   UNL     1      46.120   6.410  12.340  0.00  0.00    +0.000 C 
ATOM     21  O   UNL     1      45.445   7.335  12.783  0.00  0.00    +0.000 OA
ATOM     22  H   UNL     1      47.857   5.310  12.535  0.00  0.00    +0.000 HD
BRANCH  20  23
ATOM     23  C   UNL     1      45.600   5.498  11.312  0.00  0.00    +0.000 A 
ATOM     24  C   UNL     1      45.825   5.769   9.968  0.00  0.00    +0.000 A 
ATOM     25  S   UNL     1      45.227   4.561   8.920  0.00  0.00    +0.000 S 
ATOM     26  C   UNL     1      44.596   3.666  10.222  0.00  0.00    +0.000 A 
ATOM     27  N   UNL     1      43.936   2.495  10.012  0.00  0.00    +0.000 NA
ATOM     28  C   UNL     1      43.483   1.937  11.087  0.00  0.00    +0.000 A 
ATOM     29  N   UNL     1      43.632   2.444  12.351  0.00  0.00    +0.000 N 
ATOM     30  C   UNL     1      44.309   3.611  12.612  0.00  0.00    +0.000 A 
ATOM     31  O   UNL     1      44.444   4.023  13.759  0.00  0.00    +0.000 OA
ATOM     32  C   UNL     1      44.842   4.277  11.439  0.00  0.00    +0.000 A 
ATOM     33  H   UNL     1      43.253   1.960  13.151  0.00  0.00    +0.000 HD
ENDBRANCH  20  23
ENDBRANCH  18  19
ENDBRANCH   4  18
TORSDOF 6
ENDMDL
