MODEL 1
REMARK VINA RESULT:    -7.825      0.000      0.000
REMARK INTER + INTRA:         -11.062
REMARK INTER:                 -10.341
REMARK INTRA:                  -0.721
REMARK UNBOUND:                -0.721
REMARK  Name = 
REMARK  7 active torsions:
REMARK  status: ('A' for Active; 'I' for Inactive)
REMARK    1  A    between atoms: C_1  and  C_2
REMARK    2  A    between atoms: C_2  and  C_3
REMARK    3  A    between atoms: C_2  and  C_17
REMARK    4  A    between atoms: C_3  and  N_4
REMARK    5  A    between atoms: N_10  and  C_11
REMARK    6  A    between atoms: C_13  and  O_14
REMARK    7  A    between atoms: C_20  and  C_21
REMARK                            x       y       z     vdW  Elec       q    Type
REMARK                         _______ _______ _______ _____ _____    ______ ____
ROOT
ATOM      1  N   UNL     1      44.947   4.480  12.898  0.00  0.00    +0.000 N 
ATOM      2  C   UNL     1      46.129   4.971  13.491  0.00  0.00    +0.000 A 
ATOM      3  C   UNL     1      46.498   4.498  14.732  0.00  0.00    +0.000 A 
ATOM      4  C   UNL     1      47.679   4.985  15.232  0.00  0.00    +0.000 A 
ATOM      5  N   UNL     1      48.459   5.866  14.573  0.00  0.00    +0.000 NA
ATOM      6  C   UNL     1      48.009   6.301  13.389  0.00  0.00    +0.000 A 
ATOM      7  N   UNL     1      48.818   7.201  12.681  0.00  0.00    +0.000 N 
ATOM      8  N   UNL     1      46.862   5.889  12.841  0.00  0.00    +0.000 NA
ATOM      9  H   UNL     1      45.020   3.467  12.852  0.00  0.00    +0.000 HD
ATOM     10  H   UNL     1      49.621   7.415  13.260  0.00  0.00    +0.000 HD
ENDROOT
BRANCH   7  11
ATOM     11  C   UNL     1      48.323   8.245  11.839  0.00  0.00    +0.000 C 
ATOM     12  C   UNL     1      49.382   9.293  11.445  0.00  0.00    +0.000 C 
ATOM     13  C   UNL     1      48.423  10.409  11.896  0.00  0.00    +0.000 C 
ATOM     14  C   UNL     1      47.568   9.349  12.618  0.00  0.00    +0.000 C 
BRANCH  13  15
ATOM     15  O   UNL     1      47.770  11.158  10.851  0.00  0.00    +0.000 OA
ATOM     16  H   UNL     1      47.064  10.582  10.513  0.00  0.00    +0.000 HD
ENDBRANCH  13  15
ENDBRANCH   7  11
BRANCH   1  17
ATOM     17  C   UNL     1      44.671   5.061  11.572  0.00  0.00    +0.000 C 
BRANCH  17  19
ATOM     18  C   UNL     1      43.351   2.905  11.448  0.00  0.00    +0.000 C 
ATOM     19  C   UNL     1      43.965   4.050  10.633  0.00  0.00    +0.000 C 
BRANCH  19  20
ATOM     20  C   UNL     1      44.842   3.536   9.492  0.00  0.00    +0.000 A 
ATOM     21  C   UNL     1      45.508   4.406   8.610  0.00  0.00    +0.000 A 
ATOM     22  C   UNL     1      46.382   3.925   7.635  0.00  0.00    +0.000 A 
ATOM     23  C   UNL     1      46.602   2.550   7.522  0.00  0.00    +0.000 A 
ATOM     24  C   UNL     1      45.929   1.671   8.366  0.00  0.00    +0.000 A 
ATOM     25  C   UNL     1      45.053   2.159   9.341  0.00  0.00    +0.000 A 
BRANCH  23  26
ATOM     26  C   UNL     1      47.542   2.063   6.561  0.00  0.00    +0.000 C 
ATOM     27  N   UNL     1      48.316   1.663   5.780  0.00  0.00    +0.000 NA
ENDBRANCH  23  26
ENDBRANCH  19  20
ENDBRANCH  17  19
ENDBRANCH   1  17
TORSDOF 6
ENDMDL
MODEL 2
REMARK VINA RESULT:    -7.775      2.457      3.280
REMARK INTER + INTRA:         -10.996
REMARK INTER:                 -10.389
REMARK INTRA:                  -0.606
REMARK UNBOUND:                -0.721
REMARK  Name = 
REMARK  7 active torsions:
REMARK  status: ('A' for Active; 'I' for Inactive)
REMARK    1  A    between atoms: C_1  and  C_2
REMARK    2  A    between atoms: C_2  and  C_3
REMARK    3  A    between atoms: C_2  and  C_17
REMARK    4  A    between atoms: C_3  and  N_4
REMARK    5  A    between atoms: N_10  and  C_11
REMARK    6  A    between atoms: C_13  and  O_14
REMARK    7  A    between atoms: C_20  and  C_21
REMARK                            x       y       z     vdW  Elec       q    Type
REMARK                         _______ _______ _______ _____ _____    ______ ____
ROOT
ATOM      1  N   UNL     1      43.534   6.501  10.766  0.00  0.00    +0.000 N 
ATOM      2  C   UNL     1      44.005   7.726  11.283  0.00  0.00    +0.000 A 
ATOM      3  C   UNL     1      43.407   8.897  10.869  0.00  0.00    +0.000 A 
ATOM      4  C   UNL     1      43.885  10.048  11.442  0.00  0.00    +0.000 A 
ATOM      5  N   UNL     1      44.871  10.068  12.362  0.00  0.00    +0.000 NA
ATOM      6  C   UNL     1      45.420   8.889  12.681  0.00  0.00    +0.000 A 
ATOM      7  N   UNL     1      46.433   8.890  13.652  0.00  0.00    +0.000 N 
ATOM      8  N   UNL     1      45.025   7.726  12.157  0.00  0.00    +0.000 NA
ATOM      9  H   UNL     1      42.538   6.443  10.960  0.00  0.00    +0.000 HD
ATOM     10  H   UNL     1      46.613   9.853  13.908  0.00  0.00    +0.000 HD
ENDROOT
BRANCH   7  11
ATOM     11  C   UNL     1      47.544   7.992  13.662  0.00  0.00    +0.000 C 
ATOM     12  C   UNL     1      48.409   8.072  14.936  0.00  0.00    +0.000 C 
ATOM     13  C   UNL     1      49.663   8.213  14.057  0.00  0.00    +0.000 C 
ATOM     14  C   UNL     1      48.754   8.510  12.848  0.00  0.00    +0.000 C 
BRANCH  13  15
ATOM     15  O   UNL     1      50.510   7.051  13.953  0.00  0.00    +0.000 OA
ATOM     16  H   UNL     1      51.383   7.382  13.680  0.00  0.00    +0.000 HD
ENDBRANCH  13  15
ENDBRANCH   7  11
BRANCH   1  17
ATOM     17  C   UNL     1      44.253   5.328  11.293  0.00  0.00    +0.000 C 
BRANCH  17  19
ATOM     18  C   UNL     1      43.518   2.938  11.690  0.00  0.00    +0.000 C 
ATOM     19  C   UNL     1      43.781   4.011  10.625  0.00  0.00    +0.000 C 
BRANCH  19  20
ATOM     20  C   UNL     1      44.704   3.504   9.517  0.00  0.00    +0.000 A 
ATOM     21  C   UNL     1      45.393   4.380   8.658  0.00  0.00    +0.000 A 
ATOM     22  C   UNL     1      46.305   3.906   7.716  0.00  0.00    +0.000 A 
ATOM     23  C   UNL     1      46.544   2.533   7.613  0.00  0.00    +0.000 A 
ATOM     24  C   UNL     1      45.849   1.649   8.434  0.00  0.00    +0.000 A 
ATOM     25  C   UNL     1      44.934   2.129   9.376  0.00  0.00    +0.000 A 
BRANCH  23  26
ATOM     26  C   UNL     1      47.522   2.054   6.687  0.00  0.00    +0.000 C 
ATOM     27  N   UNL     1      48.323   1.655   5.933  0.00  0.00    +0.000 NA
ENDBRANCH  23  26
ENDBRANCH  19  20
ENDBRANCH  17  19
ENDBRANCH   1  17
TORSDOF 6
ENDMDL
MODEL 3
REMARK VINA RESULT:    -7.715      2.721      4.169
REMARK INTER + INTRA:         -10.916
REMARK INTER:                 -10.658
REMARK INTRA:                  -0.258
REMARK UNBOUND:                -0.721
REMARK  Name = 
REMARK  7 active torsions:
REMARK  status: ('A' for Active; 'I' for Inactive)
REMARK    1  A    between atoms: C_1  and  C_2
REMARK    2  A    between atoms: C_2  and  C_3
REMARK    3  A    between atoms: C_2  and  C_17
REMARK    4  A    between atoms: C_3  and  N_4
REMARK    5  A    between atoms: N_10  and  C_11
REMARK    6  A    between atoms: C_13  and  O_14
REMARK    7  A    between atoms: C_20  and  C_21
REMARK                            x       y       z     vdW  Elec       q    Type
REMARK                         _______ _______ _______ _____ _____    ______ ____
ROOT
ATOM      1  N   UNL     1      46.064   6.148  11.230  0.00  0.00    +0.000 N 
ATOM      2  C   UNL     1      47.138   6.379  12.115  0.00  0.00    +0.000 A 
ATOM      3  C   UNL     1      48.283   6.975  11.630  0.00  0.00    +0.000 A 
ATOM      4  C   UNL     1      49.273   7.209  12.552  0.00  0.00    +0.000 A 
ATOM      5  N   UNL     1      49.162   6.895  13.858  0.00  0.00    +0.000 NA
ATOM      6  C   UNL     1      48.030   6.287  14.237  0.00  0.00    +0.000 A 
ATOM      7  N   UNL     1      47.889   5.973  15.597  0.00  0.00    +0.000 N 
ATOM      8  N   UNL     1      47.027   6.009  13.400  0.00  0.00    +0.000 NA
ATOM      9  H   UNL     1      45.813   7.037  10.806  0.00  0.00    +0.000 HD
ATOM     10  H   UNL     1      48.751   6.230  16.064  0.00  0.00    +0.000 HD
ENDROOT
BRANCH   7  11
ATOM     11  C   UNL     1      47.192   4.829  16.095  0.00  0.00    +0.000 C 
ATOM     12  C   UNL     1      47.063   4.788  17.631  0.00  0.00    +0.000 C 
ATOM     13  C   UNL     1      47.611   3.351  17.624  0.00  0.00    +0.000 C 
ATOM     14  C   UNL     1      48.077   3.561  16.170  0.00  0.00    +0.000 C 
BRANCH  13  15
ATOM     15  O   UNL     1      46.653   2.296  17.845  0.00  0.00    +0.000 OA
ATOM     16  H   UNL     1      46.431   2.333  18.792  0.00  0.00    +0.000 HD
ENDBRANCH  13  15
ENDBRANCH   7  11
BRANCH   1  17
ATOM     17  C   UNL     1      44.901   5.512  11.874  0.00  0.00    +0.000 C 
BRANCH  17  19
ATOM     18  C   UNL     1      42.997   3.873  11.573  0.00  0.00    +0.000 C 
ATOM     19  C   UNL     1      44.000   4.779  10.848  0.00  0.00    +0.000 C 
BRANCH  19  20
ATOM     20  C   UNL     1      44.769   4.029   9.761  0.00  0.00    +0.000 A 
ATOM     21  C   UNL     1      45.513   4.699   8.773  0.00  0.00    +0.000 A 
ATOM     22  C   UNL     1      46.288   4.000   7.847  0.00  0.00    +0.000 A 
ATOM     23  C   UNL     1      46.329   2.604   7.893  0.00  0.00    +0.000 A 
ATOM     24  C   UNL     1      45.576   1.922   8.844  0.00  0.00    +0.000 A 
ATOM     25  C   UNL     1      44.799   2.628   9.769  0.00  0.00    +0.000 A 
BRANCH  23  26
ATOM     26  C   UNL     1      47.169   1.893   6.981  0.00  0.00    +0.000 C 
ATOM     27  N   UNL     1      47.855   1.304   6.238  0.00  0.00    +0.000 NA
ENDBRANCH  23  26
ENDBRANCH  19  20
ENDBRANCH  17  19
ENDBRANCH   1  17
TORSDOF 6
ENDMDL
MODEL 4
REMARK VINA RESULT:    -7.668      2.138      2.461
REMARK INTER + INTRA:         -10.854
REMARK INTER:                 -10.405
REMARK INTRA:                  -0.449
REMARK UNBOUND:                -0.721
REMARK  Name = 
REMARK  7 active torsions:
REMARK  status: ('A' for Active; 'I' for Inactive)
REMARK    1  A    between atoms: C_1  and  C_2
REMARK    2  A    between atoms: C_2  and  C_3
REMARK    3  A    between atoms: C_2  and  C_17
REMARK    4  A    between atoms: C_3  and  N_4
REMARK    5  A    between atoms: N_10  and  C_11
REMARK    6  A    between atoms: C_13  and  O_14
REMARK    7  A    between atoms: C_20  and  C_21
REMARK                            x       y       z     vdW  Elec       q    Type
REMARK                         _______ _______ _______ _____ _____    ______ ____
ROOT
ATOM      1  N   UNL     1      45.418   4.846  12.296  0.00  0.00    +0.000 N 
ATOM      2  C   UNL     1      46.139   5.951  12.796  0.00  0.00    +0.000 A 
ATOM      3  C   UNL     1      47.197   5.724  13.649  0.00  0.00    +0.000 A 
ATOM      4  C   UNL     1      47.880   6.838  14.066  0.00  0.00    +0.000 A 
ATOM      5  N   UNL     1      47.568   8.091  13.678  0.00  0.00    +0.000 NA
ATOM      6  C   UNL     1      46.504   8.224  12.876  0.00  0.00    +0.000 A 
ATOM      7  N   UNL     1      46.177   9.519  12.445  0.00  0.00    +0.000 N 
ATOM      8  N   UNL     1      45.776   7.193  12.440  0.00  0.00    +0.000 NA
ATOM      9  H   UNL     1      46.080   4.226  11.835  0.00  0.00    +0.000 HD
ATOM     10  H   UNL     1      46.816  10.164  12.897  0.00  0.00    +0.000 HD
ENDROOT
BRANCH   7  11
ATOM     11  C   UNL     1      44.846   9.979  12.203  0.00  0.00    +0.000 C 
ATOM     12  C   UNL     1      44.217   9.434  10.905  0.00  0.00    +0.000 C 
ATOM     13  C   UNL     1      43.842  10.870  10.501  0.00  0.00    +0.000 C 
ATOM     14  C   UNL     1      44.795  11.400  11.591  0.00  0.00    +0.000 C 
BRANCH  13  15
ATOM     15  O   UNL     1      42.452  11.233  10.632  0.00  0.00    +0.000 OA
ATOM     16  H   UNL     1      42.154  11.470   9.737  0.00  0.00    +0.000 HD
ENDBRANCH  13  15
ENDBRANCH   7  11
BRANCH   1  17
ATOM     17  C   UNL     1      44.319   5.225  11.391  0.00  0.00    +0.000 C 
BRANCH  17  19
ATOM     18  C   UNL     1      43.363   2.888  11.578  0.00  0.00    +0.000 C 
ATOM     19  C   UNL     1      43.766   4.007  10.608  0.00  0.00    +0.000 C 
BRANCH  19  20
ATOM     20  C   UNL     1      44.691   3.501   9.502  0.00  0.00    +0.000 A 
ATOM     21  C   UNL     1      45.369   4.377   8.635  0.00  0.00    +0.000 A 
ATOM     22  C   UNL     1      46.284   3.905   7.693  0.00  0.00    +0.000 A 
ATOM     23  C   UNL     1      46.536   2.534   7.601  0.00  0.00    +0.000 A 
ATOM     24  C   UNL     1      45.852   1.649   8.429  0.00  0.00    +0.000 A 
ATOM     25  C   UNL     1      44.934   2.127   9.370  0.00  0.00    +0.000 A 
BRANCH  23  26
ATOM     26  C   UNL     1      47.516   2.058   6.676  0.00  0.00    +0.000 C 
ATOM     27  N   UNL     1      48.317   1.673   5.914  0.00  0.00    +0.000 NA
ENDBRANCH  23  26
ENDBRANCH  19  20
ENDBRANCH  17  19
ENDBRANCH   1  17
TORSDOF 6
ENDMDL
MODEL 5
REMARK VINA RESULT:    -7.108      2.877      7.069
REMARK INTER + INTRA:         -10.114
REMARK INTER:                  -9.512
REMARK INTRA:                  -0.602
REMARK UNBOUND:                -0.721
REMARK  Name = 
REMARK  7 active torsions:
REMARK  status: ('A' for Active; 'I' for Inactive)
REMARK    1  A    between atoms: C_1  and  C_2
REMARK    2  A    between atoms: C_2  and  C_3
REMARK    3  A    between atoms: C_2  and  C_17
REMARK    4  A    between atoms: C_3  and  N_4
REMARK    5  A    between atoms: N_10  and  C_11
REMARK    6  A    between atoms: C_13  and  O_14
REMARK    7  A    between atoms: C_20  and  C_21
REMARK                            x       y       z     vdW  Elec       q    Type
REMARK                         _______ _______ _______ _____ _____    ______ ____
ROOT
ATOM      1  N   UNL     1      45.499   5.580  12.628  0.00  0.00    +0.000 N 
ATOM      2  C   UNL     1      44.871   4.508  11.958  0.00  0.00    +0.000 A 
ATOM      3  C   UNL     1      43.867   3.818  12.603  0.00  0.00    +0.000 A 
ATOM      4  C   UNL     1      43.270   2.815  11.880  0.00  0.00    +0.000 A 
ATOM      5  N   UNL     1      43.615   2.504  10.615  0.00  0.00    +0.000 NA
ATOM      6  C   UNL     1      44.624   3.201  10.077  0.00  0.00    +0.000 A 
ATOM      7  N   UNL     1      44.981   2.905   8.753  0.00  0.00    +0.000 N 
ATOM      8  N   UNL     1      45.268   4.181  10.718  0.00  0.00    +0.000 NA
ATOM      9  H   UNL     1      44.777   6.240  12.905  0.00  0.00    +0.000 HD
ATOM     10  H   UNL     1      44.409   2.127   8.446  0.00  0.00    +0.000 HD
ENDROOT
BRANCH   7  11
ATOM     11  C   UNL     1      46.311   2.981   8.237  0.00  0.00    +0.000 C 
ATOM     12  C   UNL     1      46.407   3.589   6.824  0.00  0.00    +0.000 C 
ATOM     13  C   UNL     1      47.249   2.381   6.378  0.00  0.00    +0.000 C 
ATOM     14  C   UNL     1      46.818   1.638   7.658  0.00  0.00    +0.000 C 
BRANCH  13  15
ATOM     15  O   UNL     1      48.663   2.608   6.213  0.00  0.00    +0.000 OA
ATOM     16  H   UNL     1      48.796   2.779   5.264  0.00  0.00    +0.000 HD
ENDBRANCH  13  15
ENDBRANCH   7  11
BRANCH   1  17
ATOM     17  C   UNL     1      46.548   6.236  11.827  0.00  0.00    +0.000 C 
BRANCH  17  19
ATOM     18  C   UNL     1      45.784   8.628  12.149  0.00  0.00    +0.000 C 
ATOM     19  C   UNL     1      46.923   7.629  12.394  0.00  0.00    +0.000 C 
BRANCH  19  20
ATOM     20  C   UNL     1      48.269   8.163  11.906  0.00  0.00    +0.000 A 
ATOM     21  C   UNL     1      48.504   9.535  11.712  0.00  0.00    +0.000 A 
ATOM     22  C   UNL     1      49.766  10.015  11.360  0.00  0.00    +0.000 A 
ATOM     23  C   UNL     1      50.824   9.118  11.192  0.00  0.00    +0.000 A 
ATOM     24  C   UNL     1      50.604   7.753  11.351  0.00  0.00    +0.000 A 
ATOM     25  C   UNL     1      49.336   7.277  11.701  0.00  0.00    +0.000 A 
BRANCH  23  26
ATOM     26  C   UNL     1      52.129   9.617  10.889  0.00  0.00    +0.000 C 
ATOM     27  N   UNL     1      53.199  10.018  10.637  0.00  0.00    +0.000 NA
ENDBRANCH  23  26
ENDBRANCH  19  20
ENDBRANCH  17  19
ENDBRANCH   1  17
TORSDOF 6
ENDMDL
MODEL 6
REMARK VINA RESULT:    -6.690      2.807      7.524
REMARK INTER + INTRA:          -9.561
REMARK INTER:                  -9.918
REMARK INTRA:                   0.357
REMARK UNBOUND:                -0.721
REMARK  Name = 
REMARK  7 active torsions:
REMARK  status: ('A' for Active; 'I' for Inactive)
REMARK    1  A    between atoms: C_1  and  C_2
REMARK    2  A    between atoms: C_2  and  C_3
REMARK    3  A    between atoms: C_2  and  C_17
REMARK    4  A    between atoms: C_3  and  N_4
REMARK    5  A    between atoms: N_10  and  C_11
REMARK    6  A    between atoms: C_13  and  O_14
REMARK    7  A    between atoms: C_20  and  C_21
REMARK                            x       y       z     vdW  Elec       q    Type
REMARK                         _______ _______ _______ _____ _____    ______ ____
ROOT
ATOM      1  N   UNL     1      45.446   5.480  12.630  0.00  0.00    +0.000 N 
ATOM      2  C   UNL     1      44.817   4.426  11.935  0.00  0.00    +0.000 A 
ATOM      3  C   UNL     1      43.795   3.738  12.552  0.00  0.00    +0.000 A 
ATOM      4  C   UNL     1      43.198   2.753  11.805  0.00  0.00    +0.000 A 
ATOM      5  N   UNL     1      43.559   2.458  10.540  0.00  0.00    +0.000 NA
ATOM      6  C   UNL     1      44.584   3.152  10.029  0.00  0.00    +0.000 A 
ATOM      7  N   UNL     1      44.959   2.872   8.706  0.00  0.00    +0.000 N 
ATOM      8  N   UNL     1      45.229   4.113  10.696  0.00  0.00    +0.000 NA
ATOM      9  H   UNL     1      44.727   6.144  12.907  0.00  0.00    +0.000 HD
ATOM     10  H   UNL     1      44.383   2.105   8.379  0.00  0.00    +0.000 HD
ENDROOT
BRANCH   7  11
ATOM     11  C   UNL     1      46.298   2.940   8.213  0.00  0.00    +0.000 C 
ATOM     12  C   UNL     1      46.419   3.536   6.796  0.00  0.00    +0.000 C 
ATOM     13  C   UNL     1      47.265   2.323   6.375  0.00  0.00    +0.000 C 
ATOM     14  C   UNL     1      46.811   1.592   7.653  0.00  0.00    +0.000 C 
BRANCH  13  15
ATOM     15  O   UNL     1      48.683   2.546   6.231  0.00  0.00    +0.000 OA
ATOM     16  H   UNL     1      48.846   2.612   5.275  0.00  0.00    +0.000 HD
ENDBRANCH  13  15
ENDBRANCH   7  11
BRANCH   1  17
ATOM     17  C   UNL     1      46.515   6.136  11.857  0.00  0.00    +0.000 C 
BRANCH  17  19
ATOM     18  C   UNL     1      48.684   7.435  11.975  0.00  0.00    +0.000 C 
ATOM     19  C   UNL     1      47.445   6.986  12.760  0.00  0.00    +0.000 C 
BRANCH  19  20
ATOM     20  C   UNL     1      47.815   6.318  14.084  0.00  0.00    +0.000 A 
ATOM     21  C   UNL     1      48.653   6.939  15.027  0.00  0.00    +0.000 A 
ATOM     22  C   UNL     1      48.903   6.360  16.271  0.00  0.00    +0.000 A 
ATOM     23  C   UNL     1      48.315   5.135  16.594  0.00  0.00    +0.000 A 
ATOM     24  C   UNL     1      47.506   4.490  15.662  0.00  0.00    +0.000 A 
ATOM     25  C   UNL     1      47.261   5.074  14.415  0.00  0.00    +0.000 A 
BRANCH  23  26
ATOM     26  C   UNL     1      48.525   4.572  17.891  0.00  0.00    +0.000 C 
ATOM     27  N   UNL     1      48.702   4.104  18.949  0.00  0.00    +0.000 NA
ENDBRANCH  23  26
ENDBRANCH  19  20
ENDBRANCH  17  19
ENDBRANCH   1  17
TORSDOF 6
ENDMDL
MODEL 7
REMARK VINA RESULT:    -6.594      3.846      7.931
REMARK INTER + INTRA:          -9.435
REMARK INTER:                  -8.874
REMARK INTRA:                  -0.561
REMARK UNBOUND:                -0.721
REMARK  Name = 
REMARK  7 active torsions:
REMARK  status: ('A' for Active; 'I' for Inactive)
REMARK    1  A    between atoms: C_1  and  C_2
REMARK    2  A    between atoms: C_2  and  C_3
REMARK    3  A    between atoms: C_2  and  C_17
REMARK    4  A    between atoms: C_3  and  N_4
REMARK    5  A    between atoms: N_10  and  C_11
REMARK    6  A    between atoms: C_13  and  O_14
REMARK    7  A    between atoms: C_20  and  C_21
REMARK                            x       y       z     vdW  Elec       q    Type
REMARK                         _______ _______ _______ _____ _____    ______ ____
ROOT
ATOM      1  N   UNL     1      47.981   5.804  15.440  0.00  0.00    +0.000 N 
ATOM      2  C   UNL     1      47.689   6.373  14.182  0.00  0.00    +0.000 A 
ATOM      3  C   UNL     1      48.252   7.588  13.855  0.00  0.00    +0.000 A 
ATOM      4  C   UNL     1      47.961   8.065  12.602  0.00  0.00    +0.000 A 
ATOM      5  N   UNL     1      47.183   7.408  11.718  0.00  0.00    +0.000 NA
ATOM      6  C   UNL     1      46.648   6.252  12.131  0.00  0.00    +0.000 A 
ATOM      7  N   UNL     1      45.853   5.545  11.216  0.00  0.00    +0.000 N 
ATOM      8  N   UNL     1      46.867   5.728  13.339  0.00  0.00    +0.000 NA
ATOM      9  H   UNL     1      48.991   5.725  15.519  0.00  0.00    +0.000 HD
ATOM     10  H   UNL     1      45.779   6.106  10.375  0.00  0.00    +0.000 HD
ENDROOT
BRANCH   7  11
ATOM     11  C   UNL     1      44.720   4.750  11.573  0.00  0.00    +0.000 C 
ATOM     12  C   UNL     1      45.038   3.256  11.782  0.00  0.00    +0.000 C 
ATOM     13  C   UNL     1      43.882   2.893  10.834  0.00  0.00    +0.000 C 
ATOM     14  C   UNL     1      43.842   4.360  10.361  0.00  0.00    +0.000 C 
BRANCH  13  15
ATOM     15  O   UNL     1      42.681   2.384  11.450  0.00  0.00    +0.000 OA
ATOM     16  H   UNL     1      42.602   1.462  11.153  0.00  0.00    +0.000 HD
ENDBRANCH  13  15
ENDBRANCH   7  11
BRANCH   1  17
ATOM     17  C   UNL     1      47.322   4.505  15.661  0.00  0.00    +0.000 C 
BRANCH  17  19
ATOM     18  C   UNL     1      47.183   4.918  18.155  0.00  0.00    +0.000 C 
ATOM     19  C   UNL     1      47.630   3.931  17.068  0.00  0.00    +0.000 C 
BRANCH  19  20
ATOM     20  C   UNL     1      49.078   3.484  17.260  0.00  0.00    +0.000 A 
ATOM     21  C   UNL     1      50.031   4.291  17.906  0.00  0.00    +0.000 A 
ATOM     22  C   UNL     1      51.323   3.830  18.159  0.00  0.00    +0.000 A 
ATOM     23  C   UNL     1      51.687   2.540  17.763  0.00  0.00    +0.000 A 
ATOM     24  C   UNL     1      50.767   1.738  17.095  0.00  0.00    +0.000 A 
ATOM     25  C   UNL     1      49.474   2.206  16.842  0.00  0.00    +0.000 A 
BRANCH  23  26
ATOM     26  C   UNL     1      52.993   2.049  18.075  0.00  0.00    +0.000 C 
ATOM     27  N   UNL     1      54.065   1.653  18.328  0.00  0.00    +0.000 NA
ENDBRANCH  23  26
ENDBRANCH  19  20
ENDBRANCH  17  19
ENDBRANCH   1  17
TORSDOF 6
ENDMDL
MODEL 8
REMARK VINA RESULT:    -6.521      2.053      2.394
REMARK INTER + INTRA:          -9.338
REMARK INTER:                  -8.705
REMARK INTRA:                  -0.633
REMARK UNBOUND:                -0.721
REMARK  Name = 
REMARK  7 active torsions:
REMARK  status: ('A' for Active; 'I' for Inactive)
REMARK    1  A    between atoms: C_1  and  C_2
REMARK    2  A    between atoms: C_2  and  C_3
REMARK    3  A    between atoms: C_2  and  C_17
REMARK    4  A    between atoms: C_3  and  N_4
REMARK    5  A    between atoms: N_10  and  C_11
REMARK    6  A    between atoms: C_13  and  O_14
REMARK    7  A    between atoms: C_20  and  C_21
REMARK                            x       y       z     vdW  Elec       q    Type
REMARK                         _______ _______ _______ _____ _____    ______ ____
ROOT
ATOM      1  N   UNL     1      46.005   4.366  14.191  0.00  0.00    +0.000 N 
ATOM      2  C   UNL     1      47.094   4.676  15.033  0.00  0.00    +0.000 A 
ATOM      3  C   UNL     1      47.407   3.812  16.061  0.00  0.00    +0.000 A 
ATOM      4  C   UNL     1      48.501   4.151  16.816  0.00  0.00    +0.000 A 
ATOM      5  N   UNL     1      49.251   5.248  16.589  0.00  0.00    +0.000 NA
ATOM      6  C   UNL     1      48.856   6.051  15.593  0.00  0.00    +0.000 A 
ATOM      7  N   UNL     1      49.637   7.186  15.329  0.00  0.00    +0.000 N 
ATOM      8  N   UNL     1      47.793   5.802  14.822  0.00  0.00    +0.000 NA
ATOM      9  H   UNL     1      46.167   3.441  13.801  0.00  0.00    +0.000 HD
ATOM     10  H   UNL     1      50.373   7.222  16.024  0.00  0.00    +0.000 HD
ENDROOT
BRANCH   7  11
ATOM     11  C   UNL     1      49.120   8.433  14.860  0.00  0.00    +0.000 C 
ATOM     12  C   UNL     1      50.164   9.566  14.797  0.00  0.00    +0.000 C 
ATOM     13  C   UNL     1      49.204  10.474  15.585  0.00  0.00    +0.000 C 
ATOM     14  C   UNL     1      48.369   9.231  15.953  0.00  0.00    +0.000 C 
BRANCH  13  15
ATOM     15  O   UNL     1      48.528  11.502  14.833  0.00  0.00    +0.000 OA
ATOM     16  H   UNL     1      49.228  12.006  14.385  0.00  0.00    +0.000 HD
ENDBRANCH  13  15
ENDBRANCH   7  11
BRANCH   1  17
ATOM     17  C   UNL     1      45.782   5.365  13.131  0.00  0.00    +0.000 C 
BRANCH  17  19
ATOM     18  C   UNL     1      43.677   3.970  12.961  0.00  0.00    +0.000 C 
ATOM     19  C   UNL     1      44.550   5.017  12.258  0.00  0.00    +0.000 C 
BRANCH  19  20
ATOM     20  C   UNL     1      44.891   4.611  10.825  0.00  0.00    +0.000 A 
ATOM     21  C   UNL     1      45.631   5.445   9.967  0.00  0.00    +0.000 A 
ATOM     22  C   UNL     1      46.018   5.021   8.696  0.00  0.00    +0.000 A 
ATOM     23  C   UNL     1      45.664   3.743   8.256  0.00  0.00    +0.000 A 
ATOM     24  C   UNL     1      44.907   2.914   9.078  0.00  0.00    +0.000 A 
ATOM     25  C   UNL     1      44.519   3.346  10.352  0.00  0.00    +0.000 A 
BRANCH  23  26
ATOM     26  C   UNL     1      46.111   3.289   6.976  0.00  0.00    +0.000 C 
ATOM     27  N   UNL     1      46.477   2.924   5.926  0.00  0.00    +0.000 NA
ENDBRANCH  23  26
ENDBRANCH  19  20
ENDBRANCH  17  19
ENDBRANCH   1  17
TORSDOF 6
ENDMDL
MODEL 9
REMARK VINA RESULT:    -6.484      3.304      7.131
REMARK INTER + INTRA:          -9.289
REMARK INTER:                  -8.746
REMARK INTRA:                  -0.543
REMARK UNBOUND:                -0.721
REMARK  Name = 
REMARK  7 active torsions:
REMARK  status: ('A' for Active; 'I' for Inactive)
REMARK    1  A    between atoms: C_1  and  C_2
REMARK    2  A    between atoms: C_2  and  C_3
REMARK    3  A    between atoms: C_2  and  C_17
REMARK    4  A    between atoms: C_3  and  N_4
REMARK    5  A    between atoms: N_10  and  C_11
REMARK    6  A    between atoms: C_13  and  O_14
REMARK    7  A    between atoms: C_20  and  C_21
REMARK                            x       y       z     vdW  Elec       q    Type
REMARK                         _______ _______ _______ _____ _____    ______ ____
ROOT
ATOM      1  N   UNL     1      46.852   3.631  14.594  0.00  0.00    +0.000 N 
ATOM      2  C   UNL     1      46.110   4.150  13.513  0.00  0.00    +0.000 A 
ATOM      3  C   UNL     1      45.695   3.292  12.518  0.00  0.00    +0.000 A 
ATOM      4  C   UNL     1      44.942   3.854  11.517  0.00  0.00    +0.000 A 
ATOM      5  N   UNL     1      44.604   5.158  11.484  0.00  0.00    +0.000 NA
ATOM      6  C   UNL     1      45.078   5.928  12.472  0.00  0.00    +0.000 A 
ATOM      7  N   UNL     1      44.718   7.284  12.465  0.00  0.00    +0.000 N 
ATOM      8  N   UNL     1      45.831   5.463  13.473  0.00  0.00    +0.000 NA
ATOM      9  H   UNL     1      46.307   2.883  15.016  0.00  0.00    +0.000 HD
ATOM     10  H   UNL     1      44.176   7.454  11.625  0.00  0.00    +0.000 HD
ENDROOT
BRANCH   7  11
ATOM     11  C   UNL     1      45.554   8.346  12.929  0.00  0.00    +0.000 C 
ATOM     12  C   UNL     1      45.174   9.735  12.379  0.00  0.00    +0.000 C 
ATOM     13  C   UNL     1      46.637   9.953  11.958  0.00  0.00    +0.000 C 
ATOM     14  C   UNL     1      46.894   8.446  12.162  0.00  0.00    +0.000 C 
BRANCH  13  15
ATOM     15  O   UNL     1      47.414  10.853  12.774  0.00  0.00    +0.000 OA
ATOM     16  H   UNL     1      47.153  11.749  12.502  0.00  0.00    +0.000 HD
ENDBRANCH  13  15
ENDBRANCH   7  11
BRANCH   1  17
ATOM     17  C   UNL     1      47.226   4.650  15.591  0.00  0.00    +0.000 C 
BRANCH  17  19
ATOM     18  C   UNL     1      47.069   4.955  18.099  0.00  0.00    +0.000 C 
ATOM     19  C   UNL     1      47.536   4.022  16.974  0.00  0.00    +0.000 C 
BRANCH  19  20
ATOM     20  C   UNL     1      48.990   3.589  17.154  0.00  0.00    +0.000 A 
ATOM     21  C   UNL     1      49.972   4.458  17.661  0.00  0.00    +0.000 A 
ATOM     22  C   UNL     1      51.273   4.020  17.911  0.00  0.00    +0.000 A 
ATOM     23  C   UNL     1      51.616   2.690  17.652  0.00  0.00    +0.000 A 
ATOM     24  C   UNL     1      50.666   1.823  17.122  0.00  0.00    +0.000 A 
ATOM     25  C   UNL     1      49.364   2.268  16.871  0.00  0.00    +0.000 A 
BRANCH  23  26
ATOM     26  C   UNL     1      52.933   2.228  17.963  0.00  0.00    +0.000 C 
ATOM     27  N   UNL     1      54.010   1.844  18.213  0.00  0.00    +0.000 NA
ENDBRANCH  23  26
ENDBRANCH  19  20
ENDBRANCH  17  19
ENDBRANCH   1  17
TORSDOF 6
ENDMDL
