MODEL 1
REMARK VINA RESULT:    -7.413      0.000      0.000
REMARK INTER + INTRA:         -10.301
REMARK INTER:                  -9.580
REMARK INTRA:                  -0.721
REMARK UNBOUND:                -0.721
REMARK  Name = 
REMARK  8 active torsions:
REMARK  status: ('A' for Active; 'I' for Inactive)
REMARK    1  A    between atoms: C_1  and  C_2
REMARK    2  A    between atoms: C_2  and  C_3
REMARK    3  A    between atoms: C_2  and  C_13
REMARK    4  A    between atoms: C_7  and  S_8
REMARK    5  A    between atoms: S_8  and  C_9
REMARK    6  A    between atoms: C_13  and  C_14
REMARK    7  A    between atoms: C_13  and  N_15
REMARK    8  A    between atoms: C_16  and  C_18
REMARK                            x       y       z     vdW  Elec       q    Type
REMARK                         _______ _______ _______ _____ _____    ______ ____
ROOT
ATOM      1  N   UNL     1      46.860   6.497  11.989  0.00  0.00    +0.000 N 
ATOM      2  C   UNL     1      45.541   6.507  11.615  0.00  0.00    +0.000 C 
ATOM      3  O   UNL     1      44.922   7.552  11.398  0.00  0.00    +0.000 OA
ATOM      4  H   UNL     1      47.232   5.651  12.416  0.00  0.00    +0.000 HD
ENDROOT
BRANCH   2   5
ATOM      5  C   UNL     1      44.900   5.209  11.435  0.00  0.00    +0.000 A 
ATOM      6  C   UNL     1      44.174   4.631  12.464  0.00  0.00    +0.000 A 
ATOM      7  S   UNL     1      43.519   3.105  12.053  0.00  0.00    +0.000 S 
ATOM      8  C   UNL     1      44.220   3.164  10.504  0.00  0.00    +0.000 A 
ATOM      9  N   UNL     1      44.088   2.132   9.626  0.00  0.00    +0.000 NA
ATOM     10  C   UNL     1      44.697   2.304   8.503  0.00  0.00    +0.000 A 
ATOM     11  N   UNL     1      45.423   3.423   8.167  0.00  0.00    +0.000 N 
ATOM     12  C   UNL     1      45.561   4.496   9.006  0.00  0.00    +0.000 A 
ATOM     13  O   UNL     1      46.176   5.506   8.659  0.00  0.00    +0.000 OA
ATOM     14  C   UNL     1      44.914   4.339  10.289  0.00  0.00    +0.000 A 
ATOM     15  H   UNL     1      45.864   3.502   7.266  0.00  0.00    +0.000 HD
ENDBRANCH   2   5
BRANCH   1  16
ATOM     16  C   UNL     1      47.636   7.727  12.149  0.00  0.00    +0.000 C 
ATOM     17  C   UNL     1      49.088   7.464  11.722  0.00  0.00    +0.000 C 
BRANCH  16  19
ATOM     18  C   UNL     1      48.184   9.705  13.743  0.00  0.00    +0.000 C 
ATOM     19  C   UNL     1      47.585   8.294  13.601  0.00  0.00    +0.000 C 
BRANCH  19  20
ATOM     20  C   UNL     1      48.280   7.383  14.612  0.00  0.00    +0.000 A 
ATOM     21  C   UNL     1      49.250   7.899  15.489  0.00  0.00    +0.000 A 
ATOM     22  C   UNL     1      49.802   7.107  16.499  0.00  0.00    +0.000 A 
ATOM     23  C   UNL     1      49.358   5.800  16.683  0.00  0.00    +0.000 A 
ATOM     24  C   UNL     1      48.387   5.286  15.823  0.00  0.00    +0.000 A 
ATOM     25  C   UNL     1      47.901   6.040  14.749  0.00  0.00    +0.000 A 
BRANCH  24  26
ATOM     26  S   UNL     1      47.671   3.691  16.147  0.00  0.00    +0.000 S 
ATOM     27  C   UNL     1      48.918   2.884  17.127  0.00  0.00    +0.000 C 
ATOM     28  O   UNL     1      46.502   3.900  16.985  0.00  0.00    +0.000 OA
ATOM     29  O   UNL     1      47.568   2.982  14.889  0.00  0.00    +0.000 OA
ENDBRANCH  24  26
ENDBRANCH  19  20
ENDBRANCH  16  19
ENDBRANCH   1  16
TORSDOF 5
ENDMDL
MODEL 2
REMARK VINA RESULT:    -7.325      1.440      2.134
REMARK INTER + INTRA:         -10.188
REMARK INTER:                  -9.159
REMARK INTRA:                  -1.028
REMARK UNBOUND:                -0.721
REMARK  Name = 
REMARK  8 active torsions:
REMARK  status: ('A' for Active; 'I' for Inactive)
REMARK    1  A    between atoms: C_1  and  C_2
REMARK    2  A    between atoms: C_2  and  C_3
REMARK    3  A    between atoms: C_2  and  C_13
REMARK    4  A    between atoms: C_7  and  S_8
REMARK    5  A    between atoms: S_8  and  C_9
REMARK    6  A    between atoms: C_13  and  C_14
REMARK    7  A    between atoms: C_13  and  N_15
REMARK    8  A    between atoms: C_16  and  C_18
REMARK                            x       y       z     vdW  Elec       q    Type
REMARK                         _______ _______ _______ _____ _____    ______ ____
ROOT
ATOM      1  N   UNL     1      47.519   6.692  12.042  0.00  0.00    +0.000 N 
ATOM      2  C   UNL     1      46.308   6.886  11.427  0.00  0.00    +0.000 C 
ATOM      3  O   UNL     1      45.781   7.996  11.339  0.00  0.00    +0.000 OA
ATOM      4  H   UNL     1      47.767   5.748  12.327  0.00  0.00    +0.000 HD
ENDROOT
BRANCH   2   5
ATOM      5  C   UNL     1      45.681   5.712  10.830  0.00  0.00    +0.000 A 
ATOM      6  C   UNL     1      45.747   5.493   9.462  0.00  0.00    +0.000 A 
ATOM      7  S   UNL     1      44.936   4.072   8.967  0.00  0.00    +0.000 S 
ATOM      8  C   UNL     1      44.448   3.732  10.561  0.00  0.00    +0.000 A 
ATOM      9  N   UNL     1      43.667   2.654  10.849  0.00  0.00    +0.000 NA
ATOM     10  C   UNL     1      43.351   2.542  12.094  0.00  0.00    +0.000 A 
ATOM     11  N   UNL     1      43.752   3.403  13.088  0.00  0.00    +0.000 N 
ATOM     12  C   UNL     1      44.558   4.485  12.849  0.00  0.00    +0.000 A 
ATOM     13  O   UNL     1      44.942   5.212  13.767  0.00  0.00    +0.000 OA
ATOM     14  C   UNL     1      44.920   4.667  11.462  0.00  0.00    +0.000 A 
ATOM     15  H   UNL     1      43.482   3.251  14.045  0.00  0.00    +0.000 HD
ENDBRANCH   2   5
BRANCH   1  16
ATOM     16  C   UNL     1      48.281   7.794  12.631  0.00  0.00    +0.000 C 
ATOM     17  C   UNL     1      49.773   7.432  12.625  0.00  0.00    +0.000 C 
BRANCH  16  19
ATOM     18  C   UNL     1      48.135   9.602  14.492  0.00  0.00    +0.000 C 
ATOM     19  C   UNL     1      47.809   8.157  14.072  0.00  0.00    +0.000 C 
BRANCH  19  20
ATOM     20  C   UNL     1      48.383   7.218  15.133  0.00  0.00    +0.000 A 
ATOM     21  C   UNL     1      49.149   7.724  16.196  0.00  0.00    +0.000 A 
ATOM     22  C   UNL     1      49.574   6.895  17.236  0.00  0.00    +0.000 A 
ATOM     23  C   UNL     1      49.198   5.554  17.260  0.00  0.00    +0.000 A 
ATOM     24  C   UNL     1      48.426   5.048  16.213  0.00  0.00    +0.000 A 
ATOM     25  C   UNL     1      48.080   5.849  15.118  0.00  0.00    +0.000 A 
BRANCH  24  26
ATOM     26  S   UNL     1      47.780   3.395  16.307  0.00  0.00    +0.000 S 
ATOM     27  C   UNL     1      49.113   2.486  17.057  0.00  0.00    +0.000 C 
ATOM     28  O   UNL     1      46.665   3.416  17.240  0.00  0.00    +0.000 OA
ATOM     29  O   UNL     1      47.611   2.901  14.957  0.00  0.00    +0.000 OA
ENDBRANCH  24  26
ENDBRANCH  19  20
ENDBRANCH  16  19
ENDBRANCH   1  16
TORSDOF 5
ENDMDL
MODEL 3
REMARK VINA RESULT:    -7.261      3.699      5.390
REMARK INTER + INTRA:         -10.104
REMARK INTER:                  -9.471
REMARK INTRA:                  -0.633
REMARK UNBOUND:                -0.721
REMARK  Name = 
REMARK  8 active torsions:
REMARK  status: ('A' for Active; 'I' for Inactive)
REMARK    1  A    between atoms: C_1  and  C_2
REMARK    2  A    between atoms: C_2  and  C_3
REMARK    3  A    between atoms: C_2  and  C_13
REMARK    4  A    between atoms: C_7  and  S_8
REMARK    5  A    between atoms: S_8  and  C_9
REMARK    6  A    between atoms: C_13  and  C_14
REMARK    7  A    between atoms: C_13  and  N_15
REMARK    8  A    between atoms: C_16  and  C_18
REMARK                            x       y       z     vdW  Elec       q    Type
REMARK                         _______ _______ _______ _____ _____    ______ ____
ROOT
ATOM      1  N   UNL     1      47.250   4.786  15.516  0.00  0.00    +0.000 N 
ATOM      2  C   UNL     1      46.928   4.404  14.238  0.00  0.00    +0.000 C 
ATOM      3  O   UNL     1      47.155   3.272  13.808  0.00  0.00    +0.000 OA
ATOM      4  H   UNL     1      47.298   5.781  15.722  0.00  0.00    +0.000 HD
ENDROOT
BRANCH   2   5
ATOM      5  C   UNL     1      46.253   5.396  13.409  0.00  0.00    +0.000 A 
ATOM      6  C   UNL     1      46.836   6.631  13.168  0.00  0.00    +0.000 A 
ATOM      7  S   UNL     1      45.875   7.650  12.186  0.00  0.00    +0.000 S 
ATOM      8  C   UNL     1      44.642   6.481  12.089  0.00  0.00    +0.000 A 
ATOM      9  N   UNL     1      43.483   6.728  11.419  0.00  0.00    +0.000 NA
ATOM     10  C   UNL     1      42.630   5.763  11.456  0.00  0.00    +0.000 A 
ATOM     11  N   UNL     1      42.829   4.561  12.094  0.00  0.00    +0.000 N 
ATOM     12  C   UNL     1      43.988   4.259  12.758  0.00  0.00    +0.000 A 
ATOM     13  O   UNL     1      44.159   3.155  13.280  0.00  0.00    +0.000 OA
ATOM     14  C   UNL     1      44.969   5.322  12.765  0.00  0.00    +0.000 A 
ATOM     15  H   UNL     1      42.127   3.841  12.074  0.00  0.00    +0.000 HD
ENDBRANCH   2   5
BRANCH   1  16
ATOM     16  C   UNL     1      47.877   3.870  16.469  0.00  0.00    +0.000 C 
ATOM     17  C   UNL     1      46.796   3.283  17.388  0.00  0.00    +0.000 C 
BRANCH  16  19
ATOM     18  C   UNL     1      49.555   5.843  16.689  0.00  0.00    +0.000 C 
ATOM     19  C   UNL     1      49.004   4.545  17.309  0.00  0.00    +0.000 C 
BRANCH  19  20
ATOM     20  C   UNL     1      50.184   3.609  17.570  0.00  0.00    +0.000 A 
ATOM     21  C   UNL     1      50.117   2.256  17.197  0.00  0.00    +0.000 A 
ATOM     22  C   UNL     1      51.230   1.421  17.317  0.00  0.00    +0.000 A 
ATOM     23  C   UNL     1      52.445   1.935  17.764  0.00  0.00    +0.000 A 
ATOM     24  C   UNL     1      52.521   3.281  18.125  0.00  0.00    +0.000 A 
ATOM     25  C   UNL     1      51.385   4.099  18.101  0.00  0.00    +0.000 A 
BRANCH  24  26
ATOM     26  S   UNL     1      54.094   4.005  18.523  0.00  0.00    +0.000 S 
ATOM     27  C   UNL     1      54.484   3.276  20.098  0.00  0.00    +0.000 C 
ATOM     28  O   UNL     1      55.057   3.517  17.548  0.00  0.00    +0.000 OA
ATOM     29  O   UNL     1      53.897   5.424  18.727  0.00  0.00    +0.000 OA
ENDBRANCH  24  26
ENDBRANCH  19  20
ENDBRANCH  16  19
ENDBRANCH   1  16
TORSDOF 5
ENDMDL
MODEL 4
REMARK VINA RESULT:    -7.144      2.734      6.735
REMARK INTER + INTRA:          -9.953
REMARK INTER:                  -8.985
REMARK INTRA:                  -0.968
REMARK UNBOUND:                -0.721
REMARK  Name = 
REMARK  8 active torsions:
REMARK  status: ('A' for Active; 'I' for Inactive)
REMARK    1  A    between atoms: C_1  and  C_2
REMARK    2  A    between atoms: C_2  and  C_3
REMARK    3  A    between atoms: C_2  and  C_13
REMARK    4  A    between atoms: C_7  and  S_8
REMARK    5  A    between atoms: S_8  and  C_9
REMARK    6  A    between atoms: C_13  and  C_14
REMARK    7  A    between atoms: C_13  and  N_15
REMARK    8  A    between atoms: C_16  and  C_18
REMARK                            x       y       z     vdW  Elec       q    Type
REMARK                         _______ _______ _______ _____ _____    ______ ____
ROOT
ATOM      1  N   UNL     1      47.977   7.766  13.560  0.00  0.00    +0.000 N 
ATOM      2  C   UNL     1      48.320   6.490  13.930  0.00  0.00    +0.000 C 
ATOM      3  O   UNL     1      48.395   5.563  13.120  0.00  0.00    +0.000 OA
ATOM      4  H   UNL     1      47.664   8.408  14.284  0.00  0.00    +0.000 HD
ENDROOT
BRANCH   2   5
ATOM      5  C   UNL     1      48.642   6.280  15.336  0.00  0.00    +0.000 A 
ATOM      6  C   UNL     1      49.500   7.142  16.002  0.00  0.00    +0.000 A 
ATOM      7  S   UNL     1      49.756   6.710  17.636  0.00  0.00    +0.000 S 
ATOM      8  C   UNL     1      48.757   5.341  17.486  0.00  0.00    +0.000 A 
ATOM      9  N   UNL     1      48.569   4.483  18.525  0.00  0.00    +0.000 NA
ATOM     10  C   UNL     1      47.812   3.476  18.256  0.00  0.00    +0.000 A 
ATOM     11  N   UNL     1      47.210   3.248  17.040  0.00  0.00    +0.000 N 
ATOM     12  C   UNL     1      47.349   4.097  15.975  0.00  0.00    +0.000 A 
ATOM     13  O   UNL     1      46.758   3.894  14.912  0.00  0.00    +0.000 OA
ATOM     14  C   UNL     1      48.210   5.232  16.222  0.00  0.00    +0.000 A 
ATOM     15  H   UNL     1      46.616   2.448  16.898  0.00  0.00    +0.000 HD
ENDBRANCH   2   5
BRANCH   1  16
ATOM     16  C   UNL     1      47.686   8.124  12.171  0.00  0.00    +0.000 C 
ATOM     17  C   UNL     1      48.293   9.503  11.871  0.00  0.00    +0.000 C 
BRANCH  16  19
ATOM     18  C   UNL     1      45.293   8.840  12.892  0.00  0.00    +0.000 C 
ATOM     19  C   UNL     1      46.161   8.113  11.847  0.00  0.00    +0.000 C 
BRANCH  19  20
ATOM     20  C   UNL     1      45.607   6.699  11.676  0.00  0.00    +0.000 A 
ATOM     21  C   UNL     1      44.772   6.136  12.657  0.00  0.00    +0.000 A 
ATOM     22  C   UNL     1      44.160   4.896  12.455  0.00  0.00    +0.000 A 
ATOM     23  C   UNL     1      44.331   4.219  11.250  0.00  0.00    +0.000 A 
ATOM     24  C   UNL     1      45.149   4.779  10.268  0.00  0.00    +0.000 A 
ATOM     25  C   UNL     1      45.843   5.973  10.500  0.00  0.00    +0.000 A 
BRANCH  24  26
ATOM     26  S   UNL     1      45.238   4.033   8.657  0.00  0.00    +0.000 S 
ATOM     27  C   UNL     1      45.580   2.326   9.026  0.00  0.00    +0.000 C 
ATOM     28  O   UNL     1      43.912   4.112   8.067  0.00  0.00    +0.000 OA
ATOM     29  O   UNL     1      46.391   4.578   7.973  0.00  0.00    +0.000 OA
ENDBRANCH  24  26
ENDBRANCH  19  20
ENDBRANCH  16  19
ENDBRANCH   1  16
TORSDOF 5
ENDMDL
MODEL 5
REMARK VINA RESULT:    -6.970      3.441      7.519
REMARK INTER + INTRA:          -9.729
REMARK INTER:                  -8.770
REMARK INTRA:                  -0.958
REMARK UNBOUND:                -0.721
REMARK  Name = 
REMARK  8 active torsions:
REMARK  status: ('A' for Active; 'I' for Inactive)
REMARK    1  A    between atoms: C_1  and  C_2
REMARK    2  A    between atoms: C_2  and  C_3
REMARK    3  A    between atoms: C_2  and  C_13
REMARK    4  A    between atoms: C_7  and  S_8
REMARK    5  A    between atoms: S_8  and  C_9
REMARK    6  A    between atoms: C_13  and  C_14
REMARK    7  A    between atoms: C_13  and  N_15
REMARK    8  A    between atoms: C_16  and  C_18
REMARK                            x       y       z     vdW  Elec       q    Type
REMARK                         _______ _______ _______ _____ _____    ______ ____
ROOT
ATOM      1  N   UNL     1      48.404   7.929  14.814  0.00  0.00    +0.000 N 
ATOM      2  C   UNL     1      49.182   7.338  15.777  0.00  0.00    +0.000 C 
ATOM      3  O   UNL     1      50.080   6.540  15.505  0.00  0.00    +0.000 OA
ATOM      4  H   UNL     1      47.522   8.348  15.099  0.00  0.00    +0.000 HD
ENDROOT
BRANCH   2   5
ATOM      5  C   UNL     1      48.929   7.735  17.158  0.00  0.00    +0.000 A 
ATOM      6  C   UNL     1      49.316   8.986  17.617  0.00  0.00    +0.000 A 
ATOM      7  S   UNL     1      48.941   9.245  19.264  0.00  0.00    +0.000 S 
ATOM      8  C   UNL     1      48.286   7.682  19.415  0.00  0.00    +0.000 A 
ATOM      9  N   UNL     1      47.810   7.225  20.606  0.00  0.00    +0.000 NA
ATOM     10  C   UNL     1      47.373   6.013  20.576  0.00  0.00    +0.000 A 
ATOM     11  N   UNL     1      47.355   5.211  19.459  0.00  0.00    +0.000 N 
ATOM     12  C   UNL     1      47.798   5.637  18.235  0.00  0.00    +0.000 A 
ATOM     13  O   UNL     1      47.724   4.913  17.240  0.00  0.00    +0.000 OA
ATOM     14  C   UNL     1      48.321   6.984  18.223  0.00  0.00    +0.000 A 
ATOM     15  H   UNL     1      46.985   4.276  19.498  0.00  0.00    +0.000 HD
ENDBRANCH   2   5
BRANCH   1  16
ATOM     16  C   UNL     1      48.591   7.662  13.388  0.00  0.00    +0.000 C 
ATOM     17  C   UNL     1      49.483   8.758  12.785  0.00  0.00    +0.000 C 
BRANCH  16  19
ATOM     18  C   UNL     1      46.130   8.466  13.156  0.00  0.00    +0.000 C 
ATOM     19  C   UNL     1      47.246   7.558  12.606  0.00  0.00    +0.000 C 
BRANCH  19  20
ATOM     20  C   UNL     1      46.707   6.129  12.553  0.00  0.00    +0.000 A 
ATOM     21  C   UNL     1      47.217   5.141  13.412  0.00  0.00    +0.000 A 
ATOM     22  C   UNL     1      46.649   3.865  13.459  0.00  0.00    +0.000 A 
ATOM     23  C   UNL     1      45.529   3.569  12.686  0.00  0.00    +0.000 A 
ATOM     24  C   UNL     1      45.011   4.550  11.839  0.00  0.00    +0.000 A 
ATOM     25  C   UNL     1      45.634   5.797  11.713  0.00  0.00    +0.000 A 
BRANCH  24  26
ATOM     26  S   UNL     1      43.481   4.262  10.981  0.00  0.00    +0.000 S 
ATOM     27  C   UNL     1      42.372   5.428  11.739  0.00  0.00    +0.000 C 
ATOM     28  O   UNL     1      43.678   4.658   9.596  0.00  0.00    +0.000 OA
ATOM     29  O   UNL     1      43.023   2.930  11.316  0.00  0.00    +0.000 OA
ENDBRANCH  24  26
ENDBRANCH  19  20
ENDBRANCH  16  19
ENDBRANCH   1  16
TORSDOF 5
ENDMDL
MODEL 6
REMARK VINA RESULT:    -6.811      3.281      5.012
REMARK INTER + INTRA:          -9.523
REMARK INTER:                  -8.675
REMARK INTRA:                  -0.848
REMARK UNBOUND:                -0.721
REMARK  Name = 
REMARK  8 active torsions:
REMARK  status: ('A' for Active; 'I' for Inactive)
REMARK    1  A    between atoms: C_1  and  C_2
REMARK    2  A    between atoms: C_2  and  C_3
REMARK    3  A    between atoms: C_2  and  C_13
REMARK    4  A    between atoms: C_7  and  S_8
REMARK    5  A    between atoms: S_8  and  C_9
REMARK    6  A    between atoms: C_13  and  C_14
REMARK    7  A    between atoms: C_13  and  N_15
REMARK    8  A    between atoms: C_16  and  C_18
REMARK                            x       y       z     vdW  Elec       q    Type
REMARK                         _______ _______ _______ _____ _____    ______ ____
ROOT
ATOM      1  N   UNL     1      47.185   4.843  15.482  0.00  0.00    +0.000 N 
ATOM      2  C   UNL     1      47.001   4.546  14.156  0.00  0.00    +0.000 C 
ATOM      3  O   UNL     1      47.452   3.523  13.637  0.00  0.00    +0.000 OA
ATOM      4  H   UNL     1      47.039   5.803  15.784  0.00  0.00    +0.000 HD
ENDROOT
BRANCH   2   5
ATOM      5  C   UNL     1      46.196   5.484  13.380  0.00  0.00    +0.000 A 
ATOM      6  C   UNL     1      46.577   6.811  13.260  0.00  0.00    +0.000 A 
ATOM      7  S   UNL     1      45.490   7.742  12.324  0.00  0.00    +0.000 S 
ATOM      8  C   UNL     1      44.466   6.404  12.087  0.00  0.00    +0.000 A 
ATOM      9  N   UNL     1      43.300   6.518  11.393  0.00  0.00    +0.000 NA
ATOM     10  C   UNL     1      42.614   5.429  11.321  0.00  0.00    +0.000 A 
ATOM     11  N   UNL     1      42.989   4.226  11.871  0.00  0.00    +0.000 N 
ATOM     12  C   UNL     1      44.164   4.058  12.555  0.00  0.00    +0.000 A 
ATOM     13  O   UNL     1      44.497   2.956  12.994  0.00  0.00    +0.000 OA
ATOM     14  C   UNL     1      44.958   5.259  12.682  0.00  0.00    +0.000 A 
ATOM     15  H   UNL     1      42.413   3.407  11.767  0.00  0.00    +0.000 HD
ENDBRANCH   2   5
BRANCH   1  16
ATOM     16  C   UNL     1      47.923   3.959  16.385  0.00  0.00    +0.000 C 
ATOM     17  C   UNL     1      46.928   3.229  17.299  0.00  0.00    +0.000 C 
BRANCH  16  19
ATOM     18  C   UNL     1      49.377   3.994  18.539  0.00  0.00    +0.000 C 
ATOM     19  C   UNL     1      48.996   4.711  17.230  0.00  0.00    +0.000 C 
BRANCH  19  20
ATOM     20  C   UNL     1      48.575   6.138  17.579  0.00  0.00    +0.000 A 
ATOM     21  C   UNL     1      47.791   6.393  18.718  0.00  0.00    +0.000 A 
ATOM     22  C   UNL     1      47.503   7.700  19.116  0.00  0.00    +0.000 A 
ATOM     23  C   UNL     1      48.036   8.778  18.413  0.00  0.00    +0.000 A 
ATOM     24  C   UNL     1      48.825   8.532  17.289  0.00  0.00    +0.000 A 
ATOM     25  C   UNL     1      49.036   7.227  16.827  0.00  0.00    +0.000 A 
BRANCH  24  26
ATOM     26  S   UNL     1      49.665   9.875  16.483  0.00  0.00    +0.000 S 
ATOM     27  C   UNL     1      51.095   9.087  15.777  0.00  0.00    +0.000 C 
ATOM     28  O   UNL     1      48.815  10.330  15.395  0.00  0.00    +0.000 OA
ATOM     29  O   UNL     1      50.123  10.794  17.504  0.00  0.00    +0.000 OA
ENDBRANCH  24  26
ENDBRANCH  19  20
ENDBRANCH  16  19
ENDBRANCH   1  16
TORSDOF 5
ENDMDL
MODEL 7
REMARK VINA RESULT:    -6.804      3.841      5.402
REMARK INTER + INTRA:          -9.514
REMARK INTER:                  -8.201
REMARK INTRA:                  -1.313
REMARK UNBOUND:                -0.721
REMARK  Name = 
REMARK  8 active torsions:
REMARK  status: ('A' for Active; 'I' for Inactive)
REMARK    1  A    between atoms: C_1  and  C_2
REMARK    2  A    between atoms: C_2  and  C_3
REMARK    3  A    between atoms: C_2  and  C_13
REMARK    4  A    between atoms: C_7  and  S_8
REMARK    5  A    between atoms: S_8  and  C_9
REMARK    6  A    between atoms: C_13  and  C_14
REMARK    7  A    between atoms: C_13  and  N_15
REMARK    8  A    between atoms: C_16  and  C_18
REMARK                            x       y       z     vdW  Elec       q    Type
REMARK                         _______ _______ _______ _____ _____    ______ ____
ROOT
ATOM      1  N   UNL     1      47.915   5.645  16.041  0.00  0.00    +0.000 N 
ATOM      2  C   UNL     1      48.284   6.177  14.831  0.00  0.00    +0.000 C 
ATOM      3  O   UNL     1      49.420   6.605  14.615  0.00  0.00    +0.000 OA
ATOM      4  H   UNL     1      46.923   5.569  16.249  0.00  0.00    +0.000 HD
ENDROOT
BRANCH   2   5
ATOM      5  C   UNL     1      47.275   6.173  13.779  0.00  0.00    +0.000 A 
ATOM      6  C   UNL     1      46.853   7.361  13.199  0.00  0.00    +0.000 A 
ATOM      7  S   UNL     1      45.656   7.137  11.999  0.00  0.00    +0.000 S 
ATOM      8  C   UNL     1      45.646   5.454  12.249  0.00  0.00    +0.000 A 
ATOM      9  N   UNL     1      44.797   4.641  11.561  0.00  0.00    +0.000 NA
ATOM     10  C   UNL     1      44.881   3.394  11.877  0.00  0.00    +0.000 A 
ATOM     11  N   UNL     1      45.745   2.876  12.813  0.00  0.00    +0.000 N 
ATOM     12  C   UNL     1      46.633   3.652  13.509  0.00  0.00    +0.000 A 
ATOM     13  O   UNL     1      47.431   3.154  14.307  0.00  0.00    +0.000 OA
ATOM     14  C   UNL     1      46.561   5.063  13.206  0.00  0.00    +0.000 A 
ATOM     15  H   UNL     1      45.771   1.888  13.003  0.00  0.00    +0.000 HD
ENDBRANCH   2   5
BRANCH   1  16
ATOM     16  C   UNL     1      48.848   5.535  17.163  0.00  0.00    +0.000 C 
ATOM     17  C   UNL     1      49.201   4.057  17.380  0.00  0.00    +0.000 C 
BRANCH  16  19
ATOM     18  C   UNL     1      46.896   5.662  18.874  0.00  0.00    +0.000 C 
ATOM     19  C   UNL     1      48.295   6.167  18.477  0.00  0.00    +0.000 C 
BRANCH  19  20
ATOM     20  C   UNL     1      48.247   7.694  18.420  0.00  0.00    +0.000 A 
ATOM     21  C   UNL     1      47.298   8.406  19.173  0.00  0.00    +0.000 A 
ATOM     22  C   UNL     1      47.323   9.802  19.227  0.00  0.00    +0.000 A 
ATOM     23  C   UNL     1      48.326  10.509  18.569  0.00  0.00    +0.000 A 
ATOM     24  C   UNL     1      49.278   9.807  17.828  0.00  0.00    +0.000 A 
ATOM     25  C   UNL     1      49.202   8.416  17.690  0.00  0.00    +0.000 A 
BRANCH  24  26
ATOM     26  S   UNL     1      50.670  10.665  17.132  0.00  0.00    +0.000 S 
ATOM     27  C   UNL     1      51.724   9.340  16.586  0.00  0.00    +0.000 C 
ATOM     28  O   UNL     1      50.197  11.380  15.958  0.00  0.00    +0.000 OA
ATOM     29  O   UNL     1      51.350  11.361  18.204  0.00  0.00    +0.000 OA
ENDBRANCH  24  26
ENDBRANCH  19  20
ENDBRANCH  16  19
ENDBRANCH   1  16
TORSDOF 5
ENDMDL
MODEL 8
REMARK VINA RESULT:    -6.782      4.283      8.361
REMARK INTER + INTRA:          -9.485
REMARK INTER:                  -8.805
REMARK INTRA:                  -0.680
REMARK UNBOUND:                -0.721
REMARK  Name = 
REMARK  8 active torsions:
REMARK  status: ('A' for Active; 'I' for Inactive)
REMARK    1  A    between atoms: C_1  and  C_2
REMARK    2  A    between atoms: C_2  and  C_3
REMARK    3  A    between atoms: C_2  and  C_13
REMARK    4  A    between atoms: C_7  and  S_8
REMARK    5  A    between atoms: S_8  and  C_9
REMARK    6  A    between atoms: C_13  and  C_14
REMARK    7  A    between atoms: C_13  and  N_15
REMARK    8  A    between atoms: C_16  and  C_18
REMARK                            x       y       z     vdW  Elec       q    Type
REMARK                         _______ _______ _______ _____ _____    ______ ____
ROOT
ATOM      1  N   UNL     1      49.295   4.475  17.813  0.00  0.00    +0.000 N 
ATOM      2  C   UNL     1      50.557   4.803  17.387  0.00  0.00    +0.000 C 
ATOM      3  O   UNL     1      50.763   5.656  16.521  0.00  0.00    +0.000 OA
ATOM      4  H   UNL     1      49.168   3.596  18.308  0.00  0.00    +0.000 HD
ENDROOT
BRANCH   2   5
ATOM      5  C   UNL     1      51.667   4.124  18.045  0.00  0.00    +0.000 A 
ATOM      6  C   UNL     1      52.536   4.823  18.870  0.00  0.00    +0.000 A 
ATOM      7  S   UNL     1      53.774   3.845  19.528  0.00  0.00    +0.000 S 
ATOM      8  C   UNL     1      53.203   2.473  18.700  0.00  0.00    +0.000 A 
ATOM      9  N   UNL     1      53.844   1.275  18.787  0.00  0.00    +0.000 NA
ATOM     10  C   UNL     1      53.315   0.334  18.082  0.00  0.00    +0.000 A 
ATOM     11  N   UNL     1      52.191   0.474  17.301  0.00  0.00    +0.000 N 
ATOM     12  C   UNL     1      51.499   1.652  17.204  0.00  0.00    +0.000 A 
ATOM     13  O   UNL     1      50.467   1.736  16.536  0.00  0.00    +0.000 OA
ATOM     14  C   UNL     1      52.069   2.745  17.960  0.00  0.00    +0.000 A 
ATOM     15  H   UNL     1      51.818  -0.305  16.785  0.00  0.00    +0.000 HD
ENDBRANCH   2   5
BRANCH   1  16
ATOM     16  C   UNL     1      48.097   5.123  17.277  0.00  0.00    +0.000 C 
ATOM     17  C   UNL     1      47.235   5.628  18.443  0.00  0.00    +0.000 C 
BRANCH  16  19
ATOM     18  C   UNL     1      47.921   2.820  16.086  0.00  0.00    +0.000 C 
ATOM     19  C   UNL     1      47.267   4.190  16.344  0.00  0.00    +0.000 C 
BRANCH  19  20
ATOM     20  C   UNL     1      46.965   4.831  14.990  0.00  0.00    +0.000 A 
ATOM     21  C   UNL     1      47.848   5.771  14.433  0.00  0.00    +0.000 A 
ATOM     22  C   UNL     1      47.648   6.271  13.143  0.00  0.00    +0.000 A 
ATOM     23  C   UNL     1      46.591   5.801  12.368  0.00  0.00    +0.000 A 
ATOM     24  C   UNL     1      45.718   4.858  12.911  0.00  0.00    +0.000 A 
ATOM     25  C   UNL     1      45.854   4.427  14.236  0.00  0.00    +0.000 A 
BRANCH  24  26
ATOM     26  S   UNL     1      44.474   4.108  11.887  0.00  0.00    +0.000 S 
ATOM     27  C   UNL     1      43.152   5.298  11.926  0.00  0.00    +0.000 C 
ATOM     28  O   UNL     1      44.998   4.058  10.531  0.00  0.00    +0.000 OA
ATOM     29  O   UNL     1      44.011   2.907  12.550  0.00  0.00    +0.000 OA
ENDBRANCH  24  26
ENDBRANCH  19  20
ENDBRANCH  16  19
ENDBRANCH   1  16
TORSDOF 5
ENDMDL
MODEL 9
REMARK VINA RESULT:    -6.699      3.416      5.540
REMARK INTER + INTRA:          -9.379
REMARK INTER:                  -8.243
REMARK INTRA:                  -1.135
REMARK UNBOUND:                -0.721
REMARK  Name = 
REMARK  8 active torsions:
REMARK  status: ('A' for Active; 'I' for Inactive)
REMARK    1  A    between atoms: C_1  and  C_2
REMARK    2  A    between atoms: C_2  and  C_3
REMARK    3  A    between atoms: C_2  and  C_13
REMARK    4  A    between atoms: C_7  and  S_8
REMARK    5  A    between atoms: S_8  and  C_9
REMARK    6  A    between atoms: C_13  and  C_14
REMARK    7  A    between atoms: C_13  and  N_15
REMARK    8  A    between atoms: C_16  and  C_18
REMARK                            x       y       z     vdW  Elec       q    Type
REMARK                         _______ _______ _______ _____ _____    ______ ____
ROOT
ATOM      1  N   UNL     1      47.403   4.523  16.025  0.00  0.00    +0.000 N 
ATOM      2  C   UNL     1      47.108   4.084  14.759  0.00  0.00    +0.000 C 
ATOM      3  O   UNL     1      47.422   2.961  14.358  0.00  0.00    +0.000 OA
ATOM      4  H   UNL     1      47.374   5.523  16.205  0.00  0.00    +0.000 HD
ENDROOT
BRANCH   2   5
ATOM      5  C   UNL     1      46.355   4.998  13.908  0.00  0.00    +0.000 A 
ATOM      6  C   UNL     1      45.079   4.672  13.475  0.00  0.00    +0.000 A 
ATOM      7  S   UNL     1      44.379   5.870  12.476  0.00  0.00    +0.000 S 
ATOM      8  C   UNL     1      45.777   6.836  12.567  0.00  0.00    +0.000 A 
ATOM      9  N   UNL     1      45.870   8.013  11.889  0.00  0.00    +0.000 NA
ATOM     10  C   UNL     1      46.998   8.621  12.028  0.00  0.00    +0.000 A 
ATOM     11  N   UNL     1      48.046   8.167  12.794  0.00  0.00    +0.000 N 
ATOM     12  C   UNL     1      47.988   7.003  13.514  0.00  0.00    +0.000 A 
ATOM     13  O   UNL     1      48.924   6.646  14.231  0.00  0.00    +0.000 OA
ATOM     14  C   UNL     1      46.749   6.273  13.371  0.00  0.00    +0.000 A 
ATOM     15  H   UNL     1      48.898   8.698  12.873  0.00  0.00    +0.000 HD
ENDBRANCH   2   5
BRANCH   1  16
ATOM     16  C   UNL     1      48.103   3.684  16.999  0.00  0.00    +0.000 C 
ATOM     17  C   UNL     1      47.088   2.756  17.683  0.00  0.00    +0.000 C 
BRANCH  16  19
ATOM     18  C   UNL     1      48.363   5.946  18.253  0.00  0.00    +0.000 C 
ATOM     19  C   UNL     1      48.892   4.513  18.059  0.00  0.00    +0.000 C 
BRANCH  19  20
ATOM     20  C   UNL     1      50.385   4.599  17.744  0.00  0.00    +0.000 A 
ATOM     21  C   UNL     1      50.978   5.834  17.433  0.00  0.00    +0.000 A 
ATOM     22  C   UNL     1      52.361   5.947  17.266  0.00  0.00    +0.000 A 
ATOM     23  C   UNL     1      53.181   4.837  17.456  0.00  0.00    +0.000 A 
ATOM     24  C   UNL     1      52.598   3.610  17.776  0.00  0.00    +0.000 A 
ATOM     25  C   UNL     1      51.207   3.468  17.849  0.00  0.00    +0.000 A 
BRANCH  24  26
ATOM     26  S   UNL     1      53.627   2.225  18.203  0.00  0.00    +0.000 S 
ATOM     27  C   UNL     1      52.620   0.827  17.759  0.00  0.00    +0.000 C 
ATOM     28  O   UNL     1      54.780   2.251  17.318  0.00  0.00    +0.000 OA
ATOM     29  O   UNL     1      53.792   2.214  19.641  0.00  0.00    +0.000 OA
ENDBRANCH  24  26
ENDBRANCH  19  20
ENDBRANCH  16  19
ENDBRANCH   1  16
TORSDOF 5
ENDMDL
