MODEL 1
REMARK VINA RESULT:    -8.638      0.000      0.000
REMARK INTER + INTRA:         -12.962
REMARK INTER:                 -12.172
REMARK INTRA:                  -0.789
REMARK UNBOUND:                -0.789
REMARK  Name = 
REMARK  9 active torsions:
REMARK  status: ('A' for Active; 'I' for Inactive)
REMARK    1  A    between atoms: C_1  and  C_2
REMARK    2  A    between atoms: C_2  and  C_3
REMARK    3  A    between atoms: C_6  and  N_7
REMARK    4  A    between atoms: N_7  and  C_8
REMARK    5  A    between atoms: C_12  and  C_13
REMARK    6  A    between atoms: C_13  and  C_14
REMARK    7  A    between atoms: C_14  and  N_15
REMARK    8  A    between atoms: N_15  and  C_16
REMARK    9  A    between atoms: C_19  and  C_20
REMARK                            x       y       z     vdW  Elec       q    Type
REMARK                         _______ _______ _______ _____ _____    ______ ____
ROOT
ATOM      1  C   UNL     1      47.659   6.135  14.419  0.00  0.00    +0.000 A 
ATOM      2  C   UNL     1      48.414   6.872  13.505  0.00  0.00    +0.000 A 
ATOM      3  C   UNL     1      48.025   6.962  12.168  0.00  0.00    +0.000 A 
ATOM      4  C   UNL     1      46.900   6.268  11.715  0.00  0.00    +0.000 A 
ATOM      5  C   UNL     1      46.165   5.463  12.593  0.00  0.00    +0.000 A 
ATOM      6  C   UNL     1      46.566   5.413  13.939  0.00  0.00    +0.000 A 
ENDROOT
BRANCH   1   7
ATOM      7  N   UNL     1      48.097   6.063  15.738  0.00  0.00    +0.000 N 
ATOM      8  H   UNL     1      48.934   6.631  15.858  0.00  0.00    +0.000 HD
BRANCH   7  14
ATOM      9  C   UNL     1      48.332   5.191  20.283  0.00  0.00    +0.000 C 
ATOM     10  C   UNL     1      48.039   5.608  18.842  0.00  0.00    +0.000 C 
ATOM     11  C   UNL     1      47.899   7.137  18.768  0.00  0.00    +0.000 C 
ATOM     12  N   UNL     1      46.790   4.970  18.386  0.00  0.00    +0.000 NA
ATOM     13  C   UNL     1      47.058   4.236  17.129  0.00  0.00    +0.000 C 
ATOM     14  C   UNL     1      48.298   4.771  16.387  0.00  0.00    +0.000 C 
ATOM     15  S   UNL     1      49.408   5.072  17.767  0.00  0.00    +0.000 S 
ATOM     16  H   UNL     1      46.115   5.702  18.169  0.00  0.00    +0.000 HD
ENDBRANCH   7  14
ENDBRANCH   1   7
BRANCH   5  17
ATOM     17  C   UNL     1      44.989   4.655  12.066  0.00  0.00    +0.000 C 
BRANCH  17  18
ATOM     18  C   UNL     1      44.104   5.430  11.081  0.00  0.00    +0.000 C 
BRANCH  18  19
ATOM     19  N   UNL     1      43.589   4.606   9.988  0.00  0.00    +0.000 N 
ATOM     20  H   UNL     1      43.011   5.144   9.345  0.00  0.00    +0.000 HD
BRANCH  19  21
ATOM     21  C   UNL     1      44.578   3.880   9.285  0.00  0.00    +0.000 A 
ATOM     22  C   UNL     1      44.668   2.479   9.324  0.00  0.00    +0.000 A 
ATOM     23  C   UNL     1      45.622   1.790   8.569  0.00  0.00    +0.000 A 
ATOM     24  C   UNL     1      46.482   2.485   7.723  0.00  0.00    +0.000 A 
ATOM     25  C   UNL     1      46.391   3.879   7.648  0.00  0.00    +0.000 A 
ATOM     26  C   UNL     1      45.434   4.563   8.411  0.00  0.00    +0.000 A 
BRANCH  24  27
ATOM     27  C   UNL     1      47.459   1.703   6.922  0.00  0.00    +0.000 C 
ATOM     28  N   UNL     1      48.544   2.372   6.440  0.00  0.00    +0.000 N 
ATOM     29  O   UNL     1      47.278   0.519   6.663  0.00  0.00    +0.000 OA
ATOM     30  H   UNL     1      48.583   3.376   6.403  0.00  0.00    +0.000 HD
ATOM     31  H   UNL     1      49.121   1.858   5.781  0.00  0.00    +0.000 HD
ENDBRANCH  24  27
ENDBRANCH  19  21
ENDBRANCH  18  19
ENDBRANCH  17  18
ENDBRANCH   5  17
TORSDOF 7
ENDMDL
MODEL 2
REMARK VINA RESULT:    -8.425      2.826      4.027
REMARK INTER + INTRA:         -12.661
REMARK INTER:                 -11.382
REMARK INTRA:                  -1.279
REMARK UNBOUND:                -0.789
REMARK  Name = 
REMARK  9 active torsions:
REMARK  status: ('A' for Active; 'I' for Inactive)
REMARK    1  A    between atoms: C_1  and  C_2
REMARK    2  A    between atoms: C_2  and  C_3
REMARK    3  A    between atoms: C_6  and  N_7
REMARK    4  A    between atoms: N_7  and  C_8
REMARK    5  A    between atoms: C_12  and  C_13
REMARK    6  A    between atoms: C_13  and  C_14
REMARK    7  A    between atoms: C_14  and  N_15
REMARK    8  A    between atoms: N_15  and  C_16
REMARK    9  A    between atoms: C_19  and  C_20
REMARK                            x       y       z     vdW  Elec       q    Type
REMARK                         _______ _______ _______ _____ _____    ______ ____
ROOT
ATOM      1  C   UNL     1      46.798   6.070  13.569  0.00  0.00    +0.000 A 
ATOM      2  C   UNL     1      47.395   4.816  13.711  0.00  0.00    +0.000 A 
ATOM      3  C   UNL     1      46.713   3.655  13.344  0.00  0.00    +0.000 A 
ATOM      4  C   UNL     1      45.399   3.731  12.876  0.00  0.00    +0.000 A 
ATOM      5  C   UNL     1      44.749   4.967  12.791  0.00  0.00    +0.000 A 
ATOM      6  C   UNL     1      45.470   6.121  13.144  0.00  0.00    +0.000 A 
ENDROOT
BRANCH   1   7
ATOM      7  N   UNL     1      47.513   7.196  13.964  0.00  0.00    +0.000 N 
ATOM      8  H   UNL     1      46.954   8.034  13.810  0.00  0.00    +0.000 HD
BRANCH   7  14
ATOM      9  C   UNL     1      48.944  10.533  11.085  0.00  0.00    +0.000 C 
ATOM     10  C   UNL     1      48.359   9.623  12.166  0.00  0.00    +0.000 C 
ATOM     11  C   UNL     1      46.839   9.838  12.250  0.00  0.00    +0.000 C 
ATOM     12  N   UNL     1      48.980   9.937  13.466  0.00  0.00    +0.000 NA
ATOM     13  C   UNL     1      49.538   8.694  14.043  0.00  0.00    +0.000 C 
ATOM     14  C   UNL     1      48.868   7.428  13.474  0.00  0.00    +0.000 C 
ATOM     15  S   UNL     1      48.704   7.886  11.745  0.00  0.00    +0.000 S 
ATOM     16  H   UNL     1      48.251  10.263  14.101  0.00  0.00    +0.000 HD
ENDBRANCH   7  14
ENDBRANCH   1   7
BRANCH   5  17
ATOM     17  C   UNL     1      43.294   5.024  12.352  0.00  0.00    +0.000 C 
BRANCH  17  18
ATOM     18  C   UNL     1      43.030   4.329  11.010  0.00  0.00    +0.000 C 
BRANCH  18  19
ATOM     19  N   UNL     1      43.763   4.923   9.892  0.00  0.00    +0.000 N 
ATOM     20  H   UNL     1      44.224   5.792  10.158  0.00  0.00    +0.000 HD
BRANCH  19  21
ATOM     21  C   UNL     1      44.673   4.048   9.256  0.00  0.00    +0.000 A 
ATOM     22  C   UNL     1      44.621   2.653   9.405  0.00  0.00    +0.000 A 
ATOM     23  C   UNL     1      45.499   1.814   8.713  0.00  0.00    +0.000 A 
ATOM     24  C   UNL     1      46.424   2.350   7.822  0.00  0.00    +0.000 A 
ATOM     25  C   UNL     1      46.476   3.735   7.637  0.00  0.00    +0.000 A 
ATOM     26  C   UNL     1      45.593   4.570   8.338  0.00  0.00    +0.000 A 
BRANCH  24  27
ATOM     27  C   UNL     1      47.316   1.412   7.091  0.00  0.00    +0.000 C 
ATOM     28  N   UNL     1      48.326   1.960   6.357  0.00  0.00    +0.000 N 
ATOM     29  O   UNL     1      47.129   0.201   7.106  0.00  0.00    +0.000 OA
ATOM     30  H   UNL     1      48.342   2.934   6.108  0.00  0.00    +0.000 HD
ATOM     31  H   UNL     1      48.833   1.316   5.756  0.00  0.00    +0.000 HD
ENDBRANCH  24  27
ENDBRANCH  19  21
ENDBRANCH  18  19
ENDBRANCH  17  18
ENDBRANCH   5  17
TORSDOF 7
ENDMDL
MODEL 3
REMARK VINA RESULT:    -8.011      1.490      2.018
REMARK INTER + INTRA:         -12.079
REMARK INTER:                 -11.160
REMARK INTRA:                  -0.919
REMARK UNBOUND:                -0.789
REMARK  Name = 
REMARK  9 active torsions:
REMARK  status: ('A' for Active; 'I' for Inactive)
REMARK    1  A    between atoms: C_1  and  C_2
REMARK    2  A    between atoms: C_2  and  C_3
REMARK    3  A    between atoms: C_6  and  N_7
REMARK    4  A    between atoms: N_7  and  C_8
REMARK    5  A    between atoms: C_12  and  C_13
REMARK    6  A    between atoms: C_13  and  C_14
REMARK    7  A    between atoms: C_14  and  N_15
REMARK    8  A    between atoms: N_15  and  C_16
REMARK    9  A    between atoms: C_19  and  C_20
REMARK                            x       y       z     vdW  Elec       q    Type
REMARK                         _______ _______ _______ _____ _____    ______ ____
ROOT
ATOM      1  C   UNL     1      47.320   5.984  13.887  0.00  0.00    +0.000 A 
ATOM      2  C   UNL     1      48.032   6.612  12.864  0.00  0.00    +0.000 A 
ATOM      3  C   UNL     1      47.398   6.982  11.677  0.00  0.00    +0.000 A 
ATOM      4  C   UNL     1      46.049   6.679  11.478  0.00  0.00    +0.000 A 
ATOM      5  C   UNL     1      45.328   5.985  12.456  0.00  0.00    +0.000 A 
ATOM      6  C   UNL     1      45.987   5.650  13.652  0.00  0.00    +0.000 A 
ENDROOT
BRANCH   1   7
ATOM      7  N   UNL     1      48.001   5.621  15.045  0.00  0.00    +0.000 N 
ATOM      8  H   UNL     1      47.412   5.021  15.621  0.00  0.00    +0.000 HD
BRANCH   7  14
ATOM      9  C   UNL     1      50.277   4.964  19.028  0.00  0.00    +0.000 C 
ATOM     10  C   UNL     1      49.678   4.994  17.622  0.00  0.00    +0.000 C 
ATOM     11  C   UNL     1      49.188   3.587  17.243  0.00  0.00    +0.000 C 
ATOM     12  N   UNL     1      50.700   5.443  16.658  0.00  0.00    +0.000 NA
ATOM     13  C   UNL     1      50.166   6.593  15.895  0.00  0.00    +0.000 C 
ATOM     14  C   UNL     1      48.625   6.634  15.891  0.00  0.00    +0.000 C 
ATOM     15  S   UNL     1      48.276   6.155  17.587  0.00  0.00    +0.000 S 
ATOM     16  H   UNL     1      50.866   4.690  15.991  0.00  0.00    +0.000 HD
ENDBRANCH   7  14
ENDBRANCH   1   7
BRANCH   5  17
ATOM     17  C   UNL     1      43.881   5.597  12.192  0.00  0.00    +0.000 C 
BRANCH  17  18
ATOM     18  C   UNL     1      43.627   5.119  10.756  0.00  0.00    +0.000 C 
BRANCH  18  19
ATOM     19  N   UNL     1      43.866   3.688  10.568  0.00  0.00    +0.000 N 
ATOM     20  H   UNL     1      42.996   3.161  10.505  0.00  0.00    +0.000 HD
BRANCH  19  21
ATOM     21  C   UNL     1      44.721   3.373   9.487  0.00  0.00    +0.000 A 
ATOM     22  C   UNL     1      45.344   4.353   8.697  0.00  0.00    +0.000 A 
ATOM     23  C   UNL     1      46.231   4.006   7.673  0.00  0.00    +0.000 A 
ATOM     24  C   UNL     1      46.548   2.671   7.443  0.00  0.00    +0.000 A 
ATOM     25  C   UNL     1      45.960   1.680   8.237  0.00  0.00    +0.000 A 
ATOM     26  C   UNL     1      45.069   2.036   9.259  0.00  0.00    +0.000 A 
BRANCH  24  27
ATOM     27  C   UNL     1      47.517   2.358   6.361  0.00  0.00    +0.000 C 
ATOM     28  N   UNL     1      47.484   3.149   5.250  0.00  0.00    +0.000 N 
ATOM     29  O   UNL     1      48.283   1.405   6.436  0.00  0.00    +0.000 OA
ATOM     30  H   UNL     1      46.706   3.753   5.043  0.00  0.00    +0.000 HD
ATOM     31  H   UNL     1      48.051   2.835   4.469  0.00  0.00    +0.000 HD
ENDBRANCH  24  27
ENDBRANCH  19  21
ENDBRANCH  18  19
ENDBRANCH  17  18
ENDBRANCH   5  17
TORSDOF 7
ENDMDL
MODEL 4
REMARK VINA RESULT:    -7.959      2.805      3.848
REMARK INTER + INTRA:         -12.005
REMARK INTER:                 -11.043
REMARK INTRA:                  -0.962
REMARK UNBOUND:                -0.789
REMARK  Name = 
REMARK  9 active torsions:
REMARK  status: ('A' for Active; 'I' for Inactive)
REMARK    1  A    between atoms: C_1  and  C_2
REMARK    2  A    between atoms: C_2  and  C_3
REMARK    3  A    between atoms: C_6  and  N_7
REMARK    4  A    between atoms: N_7  and  C_8
REMARK    5  A    between atoms: C_12  and  C_13
REMARK    6  A    between atoms: C_13  and  C_14
REMARK    7  A    between atoms: C_14  and  N_15
REMARK    8  A    between atoms: N_15  and  C_16
REMARK    9  A    between atoms: C_19  and  C_20
REMARK                            x       y       z     vdW  Elec       q    Type
REMARK                         _______ _______ _______ _____ _____    ______ ____
ROOT
ATOM      1  C   UNL     1      46.858   6.742  13.540  0.00  0.00    +0.000 A 
ATOM      2  C   UNL     1      47.387   5.536  14.005  0.00  0.00    +0.000 A 
ATOM      3  C   UNL     1      46.709   4.334  13.800  0.00  0.00    +0.000 A 
ATOM      4  C   UNL     1      45.461   4.330  13.171  0.00  0.00    +0.000 A 
ATOM      5  C   UNL     1      44.872   5.531  12.760  0.00  0.00    +0.000 A 
ATOM      6  C   UNL     1      45.592   6.722  12.956  0.00  0.00    +0.000 A 
ENDROOT
BRANCH   1   7
ATOM      7  N   UNL     1      47.565   7.915  13.782  0.00  0.00    +0.000 N 
ATOM      8  H   UNL     1      46.999   8.553  14.340  0.00  0.00    +0.000 HD
BRANCH   7  14
ATOM      9  C   UNL     1      52.063   8.847  13.168  0.00  0.00    +0.000 C 
ATOM     10  C   UNL     1      50.657   8.297  13.407  0.00  0.00    +0.000 C 
ATOM     11  C   UNL     1      50.614   7.568  14.760  0.00  0.00    +0.000 C 
ATOM     12  N   UNL     1      50.301   7.361  12.325  0.00  0.00    +0.000 NA
ATOM     13  C   UNL     1      49.016   7.787  11.725  0.00  0.00    +0.000 C 
ATOM     14  C   UNL     1      48.178   8.656  12.684  0.00  0.00    +0.000 C 
ATOM     15  S   UNL     1      49.464   9.672  13.421  0.00  0.00    +0.000 S 
ATOM     16  H   UNL     1      50.151   6.438  12.733  0.00  0.00    +0.000 HD
ENDBRANCH   7  14
ENDBRANCH   1   7
BRANCH   5  17
ATOM     17  C   UNL     1      43.481   5.515  12.146  0.00  0.00    +0.000 C 
BRANCH  17  18
ATOM     18  C   UNL     1      43.468   5.117  10.664  0.00  0.00    +0.000 C 
BRANCH  18  19
ATOM     19  N   UNL     1      43.655   3.682  10.445  0.00  0.00    +0.000 N 
ATOM     20  H   UNL     1      42.770   3.201  10.296  0.00  0.00    +0.000 HD
BRANCH  19  21
ATOM     21  C   UNL     1      44.579   3.360   9.425  0.00  0.00    +0.000 A 
ATOM     22  C   UNL     1      45.175   4.328   8.601  0.00  0.00    +0.000 A 
ATOM     23  C   UNL     1      46.129   3.980   7.641  0.00  0.00    +0.000 A 
ATOM     24  C   UNL     1      46.542   2.657   7.511  0.00  0.00    +0.000 A 
ATOM     25  C   UNL     1      45.981   1.679   8.340  0.00  0.00    +0.000 A 
ATOM     26  C   UNL     1      45.021   2.037   9.298  0.00  0.00    +0.000 A 
BRANCH  24  27
ATOM     27  C   UNL     1      47.579   2.345   6.493  0.00  0.00    +0.000 C 
ATOM     28  N   UNL     1      47.557   3.073   5.340  0.00  0.00    +0.000 N 
ATOM     29  O   UNL     1      48.391   1.441   6.656  0.00  0.00    +0.000 OA
ATOM     30  H   UNL     1      46.759   3.619   5.065  0.00  0.00    +0.000 HD
ATOM     31  H   UNL     1      48.179   2.751   4.605  0.00  0.00    +0.000 HD
ENDBRANCH  24  27
ENDBRANCH  19  21
ENDBRANCH  18  19
ENDBRANCH  17  18
ENDBRANCH   5  17
TORSDOF 7
ENDMDL
MODEL 5
REMARK VINA RESULT:    -6.782      3.526      7.826
REMARK INTER + INTRA:         -10.346
REMARK INTER:                  -9.034
REMARK INTRA:                  -1.312
REMARK UNBOUND:                -0.789
REMARK  Name = 
REMARK  9 active torsions:
REMARK  status: ('A' for Active; 'I' for Inactive)
REMARK    1  A    between atoms: C_1  and  C_2
REMARK    2  A    between atoms: C_2  and  C_3
REMARK    3  A    between atoms: C_6  and  N_7
REMARK    4  A    between atoms: N_7  and  C_8
REMARK    5  A    between atoms: C_12  and  C_13
REMARK    6  A    between atoms: C_13  and  C_14
REMARK    7  A    between atoms: C_14  and  N_15
REMARK    8  A    between atoms: N_15  and  C_16
REMARK    9  A    between atoms: C_19  and  C_20
REMARK                            x       y       z     vdW  Elec       q    Type
REMARK                         _______ _______ _______ _____ _____    ______ ____
ROOT
ATOM      1  C   UNL     1      47.873   6.811  12.672  0.00  0.00    +0.000 A 
ATOM      2  C   UNL     1      48.594   7.334  11.597  0.00  0.00    +0.000 A 
ATOM      3  C   UNL     1      49.739   8.102  11.812  0.00  0.00    +0.000 A 
ATOM      4  C   UNL     1      50.148   8.402  13.113  0.00  0.00    +0.000 A 
ATOM      5  C   UNL     1      49.404   7.953  14.210  0.00  0.00    +0.000 A 
ATOM      6  C   UNL     1      48.272   7.159  13.962  0.00  0.00    +0.000 A 
ENDROOT
BRANCH   1   7
ATOM      7  N   UNL     1      46.730   6.064  12.405  0.00  0.00    +0.000 N 
ATOM      8  H   UNL     1      46.080   6.612  11.844  0.00  0.00    +0.000 HD
BRANCH   7  14
ATOM      9  C   UNL     1      43.387   2.876  12.032  0.00  0.00    +0.000 C 
ATOM     10  C   UNL     1      44.622   3.777  11.994  0.00  0.00    +0.000 C 
ATOM     11  C   UNL     1      44.949   4.138  10.536  0.00  0.00    +0.000 C 
ATOM     12  N   UNL     1      45.766   3.072  12.601  0.00  0.00    +0.000 NA
ATOM     13  C   UNL     1      46.337   3.920  13.672  0.00  0.00    +0.000 C 
ATOM     14  C   UNL     1      45.997   5.412  13.486  0.00  0.00    +0.000 C 
ATOM     15  S   UNL     1      44.291   5.298  12.937  0.00  0.00    +0.000 S 
ATOM     16  H   UNL     1      46.489   2.958  11.890  0.00  0.00    +0.000 HD
ENDBRANCH   7  14
ENDBRANCH   1   7
BRANCH   5  17
ATOM     17  C   UNL     1      49.822   8.353  15.617  0.00  0.00    +0.000 C 
BRANCH  17  18
ATOM     18  C   UNL     1      48.663   8.362  16.622  0.00  0.00    +0.000 C 
BRANCH  18  19
ATOM     19  N   UNL     1      48.968   7.661  17.870  0.00  0.00    +0.000 N 
ATOM     20  H   UNL     1      48.254   7.817  18.579  0.00  0.00    +0.000 HD
BRANCH  19  21
ATOM     21  C   UNL     1      49.230   6.280  17.717  0.00  0.00    +0.000 A 
ATOM     22  C   UNL     1      48.278   5.373  17.225  0.00  0.00    +0.000 A 
ATOM     23  C   UNL     1      48.590   4.023  17.031  0.00  0.00    +0.000 A 
ATOM     24  C   UNL     1      49.877   3.559  17.286  0.00  0.00    +0.000 A 
ATOM     25  C   UNL     1      50.849   4.451  17.751  0.00  0.00    +0.000 A 
ATOM     26  C   UNL     1      50.527   5.802  17.946  0.00  0.00    +0.000 A 
BRANCH  24  27
ATOM     27  C   UNL     1      50.163   2.122  17.037  0.00  0.00    +0.000 C 
ATOM     28  N   UNL     1      51.100   1.529  17.832  0.00  0.00    +0.000 N 
ATOM     29  O   UNL     1      49.620   1.504  16.129  0.00  0.00    +0.000 OA
ATOM     30  H   UNL     1      51.746   2.061  18.390  0.00  0.00    +0.000 HD
ATOM     31  H   UNL     1      51.383   0.593  17.555  0.00  0.00    +0.000 HD
ENDBRANCH  24  27
ENDBRANCH  19  21
ENDBRANCH  18  19
ENDBRANCH  17  18
ENDBRANCH   5  17
TORSDOF 7
ENDMDL
MODEL 6
REMARK VINA RESULT:    -6.647      3.656      8.368
REMARK INTER + INTRA:         -10.157
REMARK INTER:                  -9.050
REMARK INTRA:                  -1.107
REMARK UNBOUND:                -0.789
REMARK  Name = 
REMARK  9 active torsions:
REMARK  status: ('A' for Active; 'I' for Inactive)
REMARK    1  A    between atoms: C_1  and  C_2
REMARK    2  A    between atoms: C_2  and  C_3
REMARK    3  A    between atoms: C_6  and  N_7
REMARK    4  A    between atoms: N_7  and  C_8
REMARK    5  A    between atoms: C_12  and  C_13
REMARK    6  A    between atoms: C_13  and  C_14
REMARK    7  A    between atoms: C_14  and  N_15
REMARK    8  A    between atoms: N_15  and  C_16
REMARK    9  A    between atoms: C_19  and  C_20
REMARK                            x       y       z     vdW  Elec       q    Type
REMARK                         _______ _______ _______ _____ _____    ______ ____
ROOT
ATOM      1  C   UNL     1      44.701   4.069  10.564  0.00  0.00    +0.000 A 
ATOM      2  C   UNL     1      43.408   3.892  11.058  0.00  0.00    +0.000 A 
ATOM      3  C   UNL     1      42.693   4.968  11.587  0.00  0.00    +0.000 A 
ATOM      4  C   UNL     1      43.286   6.229  11.676  0.00  0.00    +0.000 A 
ATOM      5  C   UNL     1      44.607   6.421  11.255  0.00  0.00    +0.000 A 
ATOM      6  C   UNL     1      45.292   5.325  10.703  0.00  0.00    +0.000 A 
ENDROOT
BRANCH   1   7
ATOM      7  N   UNL     1      45.378   2.962  10.061  0.00  0.00    +0.000 N 
ATOM      8  H   UNL     1      46.331   3.223   9.810  0.00  0.00    +0.000 HD
BRANCH   7  14
ATOM      9  C   UNL     1      46.460   3.086   5.557  0.00  0.00    +0.000 C 
ATOM     10  C   UNL     1      46.357   3.027   7.081  0.00  0.00    +0.000 C 
ATOM     11  C   UNL     1      47.225   4.136   7.697  0.00  0.00    +0.000 C 
ATOM     12  N   UNL     1      46.818   1.709   7.556  0.00  0.00    +0.000 NA
ATOM     13  C   UNL     1      45.761   1.107   8.398  0.00  0.00    +0.000 C 
ATOM     14  C   UNL     1      44.802   2.162   8.985  0.00  0.00    +0.000 C 
ATOM     15  S   UNL     1      44.622   3.266   7.580  0.00  0.00    +0.000 S 
ATOM     16  H   UNL     1      47.633   1.850   8.153  0.00  0.00    +0.000 HD
ENDBRANCH   7  14
ENDBRANCH   1   7
BRANCH   5  17
ATOM     17  C   UNL     1      45.262   7.783  11.429  0.00  0.00    +0.000 C 
BRANCH  17  18
ATOM     18  C   UNL     1      45.906   7.983  12.807  0.00  0.00    +0.000 C 
BRANCH  18  19
ATOM     19  N   UNL     1      47.265   7.449  12.898  0.00  0.00    +0.000 N 
ATOM     20  H   UNL     1      47.955   8.185  13.037  0.00  0.00    +0.000 HD
BRANCH  19  21
ATOM     21  C   UNL     1      47.428   6.421  13.856  0.00  0.00    +0.000 A 
ATOM     22  C   UNL     1      48.270   6.546  14.972  0.00  0.00    +0.000 A 
ATOM     23  C   UNL     1      48.362   5.533  15.932  0.00  0.00    +0.000 A 
ATOM     24  C   UNL     1      47.581   4.387  15.817  0.00  0.00    +0.000 A 
ATOM     25  C   UNL     1      46.715   4.253  14.726  0.00  0.00    +0.000 A 
ATOM     26  C   UNL     1      46.632   5.273  13.767  0.00  0.00    +0.000 A 
BRANCH  24  27
ATOM     27  C   UNL     1      47.697   3.352  16.877  0.00  0.00    +0.000 C 
ATOM     28  N   UNL     1      48.943   2.856  17.127  0.00  0.00    +0.000 N 
ATOM     29  O   UNL     1      46.715   2.926  17.472  0.00  0.00    +0.000 OA
ATOM     30  H   UNL     1      49.709   2.981  16.488  0.00  0.00    +0.000 HD
ATOM     31  H   UNL     1      48.980   2.055  17.750  0.00  0.00    +0.000 HD
ENDBRANCH  24  27
ENDBRANCH  19  21
ENDBRANCH  18  19
ENDBRANCH  17  18
ENDBRANCH   5  17
TORSDOF 7
ENDMDL
MODEL 7
REMARK VINA RESULT:    -6.481      2.795      3.564
REMARK INTER + INTRA:          -9.922
REMARK INTER:                  -8.888
REMARK INTRA:                  -1.034
REMARK UNBOUND:                -0.789
REMARK  Name = 
REMARK  9 active torsions:
REMARK  status: ('A' for Active; 'I' for Inactive)
REMARK    1  A    between atoms: C_1  and  C_2
REMARK    2  A    between atoms: C_2  and  C_3
REMARK    3  A    between atoms: C_6  and  N_7
REMARK    4  A    between atoms: N_7  and  C_8
REMARK    5  A    between atoms: C_12  and  C_13
REMARK    6  A    between atoms: C_13  and  C_14
REMARK    7  A    between atoms: C_14  and  N_15
REMARK    8  A    between atoms: N_15  and  C_16
REMARK    9  A    between atoms: C_19  and  C_20
REMARK                            x       y       z     vdW  Elec       q    Type
REMARK                         _______ _______ _______ _____ _____    ______ ____
ROOT
ATOM      1  C   UNL     1      48.510   7.736  14.483  0.00  0.00    +0.000 A 
ATOM      2  C   UNL     1      49.675   7.540  13.739  0.00  0.00    +0.000 A 
ATOM      3  C   UNL     1      49.808   8.090  12.464  0.00  0.00    +0.000 A 
ATOM      4  C   UNL     1      48.750   8.802  11.893  0.00  0.00    +0.000 A 
ATOM      5  C   UNL     1      47.543   8.952  12.585  0.00  0.00    +0.000 A 
ATOM      6  C   UNL     1      47.449   8.410  13.878  0.00  0.00    +0.000 A 
ENDROOT
BRANCH   1   7
ATOM      7  N   UNL     1      48.420   7.154  15.744  0.00  0.00    +0.000 N 
ATOM      8  H   UNL     1      48.872   7.750  16.435  0.00  0.00    +0.000 HD
BRANCH   7  14
ATOM      9  C   UNL     1      48.520   4.822  19.747  0.00  0.00    +0.000 C 
ATOM     10  C   UNL     1      48.246   5.654  18.494  0.00  0.00    +0.000 C 
ATOM     11  C   UNL     1      47.801   7.067  18.904  0.00  0.00    +0.000 C 
ATOM     12  N   UNL     1      47.188   5.010  17.694  0.00  0.00    +0.000 NA
ATOM     13  C   UNL     1      47.685   4.811  16.314  0.00  0.00    +0.000 C 
ATOM     14  C   UNL     1      48.837   5.772  15.958  0.00  0.00    +0.000 C 
ATOM     15  S   UNL     1      49.765   5.761  17.496  0.00  0.00    +0.000 S 
ATOM     16  H   UNL     1      46.393   5.647  17.639  0.00  0.00    +0.000 HD
ENDBRANCH   7  14
ENDBRANCH   1   7
BRANCH   5  17
ATOM     17  C   UNL     1      46.377   9.664  11.917  0.00  0.00    +0.000 C 
BRANCH  17  18
ATOM     18  C   UNL     1      45.004   9.150  12.368  0.00  0.00    +0.000 C 
BRANCH  18  19
ATOM     19  N   UNL     1      44.206   8.587  11.278  0.00  0.00    +0.000 N 
ATOM     20  H   UNL     1      44.518   8.919  10.367  0.00  0.00    +0.000 HD
BRANCH  19  21
ATOM     21  C   UNL     1      44.108   7.177  11.291  0.00  0.00    +0.000 A 
ATOM     22  C   UNL     1      42.884   6.498  11.404  0.00  0.00    +0.000 A 
ATOM     23  C   UNL     1      42.818   5.102  11.353  0.00  0.00    +0.000 A 
ATOM     24  C   UNL     1      43.973   4.354  11.145  0.00  0.00    +0.000 A 
ATOM     25  C   UNL     1      45.200   5.010  11.003  0.00  0.00    +0.000 A 
ATOM     26  C   UNL     1      45.258   6.411  11.059  0.00  0.00    +0.000 A 
BRANCH  24  27
ATOM     27  C   UNL     1      43.844   2.875  11.073  0.00  0.00    +0.000 C 
ATOM     28  N   UNL     1      44.643   2.225  10.179  0.00  0.00    +0.000 N 
ATOM     29  O   UNL     1      43.024   2.265  11.749  0.00  0.00    +0.000 OA
ATOM     30  H   UNL     1      45.119   2.706   9.434  0.00  0.00    +0.000 HD
ATOM     31  H   UNL     1      44.441   1.239  10.044  0.00  0.00    +0.000 HD
ENDBRANCH  24  27
ENDBRANCH  19  21
ENDBRANCH  18  19
ENDBRANCH  17  18
ENDBRANCH   5  17
TORSDOF 7
ENDMDL
MODEL 8
REMARK VINA RESULT:    -6.456      3.934      7.903
REMARK INTER + INTRA:          -9.887
REMARK INTER:                  -8.671
REMARK INTRA:                  -1.216
REMARK UNBOUND:                -0.789
REMARK  Name = 
REMARK  9 active torsions:
REMARK  status: ('A' for Active; 'I' for Inactive)
REMARK    1  A    between atoms: C_1  and  C_2
REMARK    2  A    between atoms: C_2  and  C_3
REMARK    3  A    between atoms: C_6  and  N_7
REMARK    4  A    between atoms: N_7  and  C_8
REMARK    5  A    between atoms: C_12  and  C_13
REMARK    6  A    between atoms: C_13  and  C_14
REMARK    7  A    between atoms: C_14  and  N_15
REMARK    8  A    between atoms: N_15  and  C_16
REMARK    9  A    between atoms: C_19  and  C_20
REMARK                            x       y       z     vdW  Elec       q    Type
REMARK                         _______ _______ _______ _____ _____    ______ ____
ROOT
ATOM      1  C   UNL     1      45.424   8.029  12.357  0.00  0.00    +0.000 A 
ATOM      2  C   UNL     1      44.887   9.239  11.912  0.00  0.00    +0.000 A 
ATOM      3  C   UNL     1      45.696  10.366  11.763  0.00  0.00    +0.000 A 
ATOM      4  C   UNL     1      47.048  10.311  12.110  0.00  0.00    +0.000 A 
ATOM      5  C   UNL     1      47.597   9.133  12.629  0.00  0.00    +0.000 A 
ATOM      6  C   UNL     1      46.764   8.007  12.741  0.00  0.00    +0.000 A 
ENDROOT
BRANCH   1   7
ATOM      7  N   UNL     1      44.573   6.938  12.503  0.00  0.00    +0.000 N 
ATOM      8  H   UNL     1      45.085   6.148  12.894  0.00  0.00    +0.000 HD
BRANCH   7  14
ATOM      9  C   UNL     1      44.372   2.657  10.740  0.00  0.00    +0.000 C 
ATOM     10  C   UNL     1      44.403   3.954  11.549  0.00  0.00    +0.000 C 
ATOM     11  C   UNL     1      45.479   3.850  12.642  0.00  0.00    +0.000 C 
ATOM     12  N   UNL     1      43.084   4.183  12.167  0.00  0.00    +0.000 NA
ATOM     13  C   UNL     1      42.606   5.532  11.790  0.00  0.00    +0.000 C 
ATOM     14  C   UNL     1      43.758   6.474  11.385  0.00  0.00    +0.000 C 
ATOM     15  S   UNL     1      44.793   5.347  10.444  0.00  0.00    +0.000 S 
ATOM     16  H   UNL     1      43.198   4.178  13.181  0.00  0.00    +0.000 HD
ENDBRANCH   7  14
ENDBRANCH   1   7
BRANCH   5  17
ATOM     17  C   UNL     1      49.052   9.113  13.072  0.00  0.00    +0.000 C 
BRANCH  17  18
ATOM     18  C   UNL     1      49.576   7.708  13.395  0.00  0.00    +0.000 C 
BRANCH  18  19
ATOM     19  N   UNL     1      50.090   7.577  14.759  0.00  0.00    +0.000 N 
ATOM     20  H   UNL     1      50.108   8.471  15.247  0.00  0.00    +0.000 HD
BRANCH  19  21
ATOM     21  C   UNL     1      49.439   6.594  15.539  0.00  0.00    +0.000 A 
ATOM     22  C   UNL     1      48.260   5.951  15.128  0.00  0.00    +0.000 A 
ATOM     23  C   UNL     1      47.675   4.940  15.897  0.00  0.00    +0.000 A 
ATOM     24  C   UNL     1      48.281   4.520  17.077  0.00  0.00    +0.000 A 
ATOM     25  C   UNL     1      49.471   5.127  17.492  0.00  0.00    +0.000 A 
ATOM     26  C   UNL     1      50.048   6.143  16.717  0.00  0.00    +0.000 A 
BRANCH  24  27
ATOM     27  C   UNL     1      47.633   3.423  17.843  0.00  0.00    +0.000 C 
ATOM     28  N   UNL     1      48.262   3.003  18.979  0.00  0.00    +0.000 N 
ATOM     29  O   UNL     1      46.604   2.884  17.453  0.00  0.00    +0.000 OA
ATOM     30  H   UNL     1      49.222   3.229  19.176  0.00  0.00    +0.000 HD
ATOM     31  H   UNL     1      47.881   2.164  19.407  0.00  0.00    +0.000 HD
ENDBRANCH  24  27
ENDBRANCH  19  21
ENDBRANCH  18  19
ENDBRANCH  17  18
ENDBRANCH   5  17
TORSDOF 7
ENDMDL
MODEL 9
REMARK VINA RESULT:    -6.106      3.730      5.454
REMARK INTER + INTRA:          -9.394
REMARK INTER:                  -7.967
REMARK INTRA:                  -1.427
REMARK UNBOUND:                -0.789
REMARK  Name = 
REMARK  9 active torsions:
REMARK  status: ('A' for Active; 'I' for Inactive)
REMARK    1  A    between atoms: C_1  and  C_2
REMARK    2  A    between atoms: C_2  and  C_3
REMARK    3  A    between atoms: C_6  and  N_7
REMARK    4  A    between atoms: N_7  and  C_8
REMARK    5  A    between atoms: C_12  and  C_13
REMARK    6  A    between atoms: C_13  and  C_14
REMARK    7  A    between atoms: C_14  and  N_15
REMARK    8  A    between atoms: N_15  and  C_16
REMARK    9  A    between atoms: C_19  and  C_20
REMARK                            x       y       z     vdW  Elec       q    Type
REMARK                         _______ _______ _______ _____ _____    ______ ____
ROOT
ATOM      1  C   UNL     1      49.052   7.627  17.794  0.00  0.00    +0.000 A 
ATOM      2  C   UNL     1      48.349   8.788  18.119  0.00  0.00    +0.000 A 
ATOM      3  C   UNL     1      48.166   9.799  17.175  0.00  0.00    +0.000 A 
ATOM      4  C   UNL     1      48.732   9.682  15.903  0.00  0.00    +0.000 A 
ATOM      5  C   UNL     1      49.503   8.563  15.572  0.00  0.00    +0.000 A 
ATOM      6  C   UNL     1      49.648   7.550  16.535  0.00  0.00    +0.000 A 
ENDROOT
BRANCH   1   7
ATOM      7  N   UNL     1      49.221   6.655  18.775  0.00  0.00    +0.000 N 
ATOM      8  H   UNL     1      49.842   5.922  18.435  0.00  0.00    +0.000 HD
BRANCH   7  14
ATOM      9  C   UNL     1      47.282   2.561  17.798  0.00  0.00    +0.000 C 
ATOM     10  C   UNL     1      48.143   3.781  18.125  0.00  0.00    +0.000 C 
ATOM     11  C   UNL     1      49.257   3.920  17.075  0.00  0.00    +0.000 C 
ATOM     12  N   UNL     1      48.739   3.620  19.465  0.00  0.00    +0.000 NA
ATOM     13  C   UNL     1      48.405   4.807  20.283  0.00  0.00    +0.000 C 
ATOM     14  C   UNL     1      48.066   6.040  19.422  0.00  0.00    +0.000 C 
ATOM     15  S   UNL     1      47.105   5.276  18.111  0.00  0.00    +0.000 S 
ATOM     16  H   UNL     1      49.754   3.599  19.366  0.00  0.00    +0.000 HD
ENDBRANCH   7  14
ENDBRANCH   1   7
BRANCH   5  17
ATOM     17  C   UNL     1      50.174   8.488  14.209  0.00  0.00    +0.000 C 
BRANCH  17  18
ATOM     18  C   UNL     1      49.210   8.142  13.068  0.00  0.00    +0.000 C 
BRANCH  18  19
ATOM     19  N   UNL     1      49.069   6.704  12.839  0.00  0.00    +0.000 N 
ATOM     20  H   UNL     1      49.692   6.161  13.435  0.00  0.00    +0.000 HD
BRANCH  19  21
ATOM     21  C   UNL     1      47.743   6.223  12.930  0.00  0.00    +0.000 A 
ATOM     22  C   UNL     1      46.734   6.588  12.024  0.00  0.00    +0.000 A 
ATOM     23  C   UNL     1      45.448   6.047  12.109  0.00  0.00    +0.000 A 
ATOM     24  C   UNL     1      45.152   5.093  13.078  0.00  0.00    +0.000 A 
ATOM     25  C   UNL     1      46.149   4.693  13.975  0.00  0.00    +0.000 A 
ATOM     26  C   UNL     1      47.436   5.244  13.885  0.00  0.00    +0.000 A 
BRANCH  24  27
ATOM     27  C   UNL     1      43.777   4.529  13.108  0.00  0.00    +0.000 C 
ATOM     28  N   UNL     1      42.742   5.415  13.060  0.00  0.00    +0.000 N 
ATOM     29  O   UNL     1      43.576   3.325  13.218  0.00  0.00    +0.000 OA
ATOM     30  H   UNL     1      42.865   6.396  13.240  0.00  0.00    +0.000 HD
ATOM     31  H   UNL     1      41.819   5.022  13.224  0.00  0.00    +0.000 HD
ENDBRANCH  24  27
ENDBRANCH  19  21
ENDBRANCH  18  19
ENDBRANCH  17  18
ENDBRANCH   5  17
TORSDOF 7
ENDMDL
