MODEL 1
REMARK VINA RESULT:    -7.587      0.000      0.000
REMARK INTER + INTRA:         -10.164
REMARK INTER:                  -9.805
REMARK INTRA:                  -0.359
REMARK UNBOUND:                -0.359
REMARK  Name = 
REMARK  5 active torsions:
REMARK  status: ('A' for Active; 'I' for Inactive)
REMARK    1  A    between atoms: C_2  and  C_3
REMARK    2  A    between atoms: N_7  and  C_8
REMARK    3  A    between atoms: C_8  and  C_9
REMARK    4  A    between atoms: C_12  and  O_13
REMARK    5  A    between atoms: O_13  and  C_14
REMARK                            x       y       z     vdW  Elec       q    Type
REMARK                         _______ _______ _______ _____ _____    ______ ____
ROOT
ATOM      1  C   UNL     1      44.072   4.813  11.653  0.00  0.00    +0.000 C 
ATOM      2  C   UNL     1      43.290   6.072  11.283  0.00  0.00    +0.000 C 
ATOM      3  C   UNL     1      42.550   4.808  11.567  0.00  0.00    +0.000 C 
ENDROOT
BRANCH   1   8
ATOM      4  C   UNL     1      48.054   6.208  14.574  0.00  0.00    +0.000 A 
ATOM      5  C   UNL     1      47.337   6.833  13.594  0.00  0.00    +0.000 A 
ATOM      6  N   UNL     1      46.220   6.315  13.046  0.00  0.00    +0.000 NA
ATOM      7  C   UNL     1      45.786   5.122  13.498  0.00  0.00    +0.000 A 
ATOM      8  N   UNL     1      44.655   4.527  12.963  0.00  0.00    +0.000 N 
ATOM      9  N   UNL     1      46.410   4.454  14.488  0.00  0.00    +0.000 NA
ATOM     10  C   UNL     1      47.538   5.005  14.992  0.00  0.00    +0.000 A 
ATOM     11  H   UNL     1      44.374   3.720  13.502  0.00  0.00    +0.000 HD
BRANCH   4  13
ATOM     12  N   UNL     1      50.215   7.228  15.534  0.00  0.00    +0.000 NA
ATOM     13  C   UNL     1      49.241   6.765  15.106  0.00  0.00    +0.000 C 
ENDBRANCH   4  13
ENDBRANCH   1   8
BRANCH   1  14
ATOM     14  C   UNL     1      44.874   4.267  10.469  0.00  0.00    +0.000 A 
ATOM     15  C   UNL     1      44.760   2.929  10.059  0.00  0.00    +0.000 A 
ATOM     16  C   UNL     1      45.181   2.525   8.790  0.00  0.00    +0.000 A 
ATOM     17  C   UNL     1      45.718   3.456   7.907  0.00  0.00    +0.000 A 
ATOM     18  C   UNL     1      46.017   4.737   8.368  0.00  0.00    +0.000 A 
ATOM     19  C   UNL     1      45.605   5.136   9.642  0.00  0.00    +0.000 A 
BRANCH  17  20
ATOM     20  O   UNL     1      46.010   3.214   6.599  0.00  0.00    +0.000 OA
BRANCH  20  21
ATOM     21  C   UNL     1      47.158   2.423   6.307  0.00  0.00    +0.000 C 
ATOM     22  F   UNL     1      48.211   2.631   7.127  0.00  0.00    +0.000 F 
ATOM     23  F   UNL     1      46.824   1.115   6.398  0.00  0.00    +0.000 F 
ATOM     24  F   UNL     1      47.549   2.668   5.037  0.00  0.00    +0.000 F 
ENDBRANCH  20  21
ENDBRANCH  17  20
ENDBRANCH   1  14
TORSDOF 5
ENDMDL
MODEL 2
REMARK VINA RESULT:    -7.351      1.187      1.866
REMARK INTER + INTRA:          -9.859
REMARK INTER:                  -9.672
REMARK INTRA:                  -0.188
REMARK UNBOUND:                -0.359
REMARK  Name = 
REMARK  5 active torsions:
REMARK  status: ('A' for Active; 'I' for Inactive)
REMARK    1  A    between atoms: C_2  and  C_3
REMARK    2  A    between atoms: N_7  and  C_8
REMARK    3  A    between atoms: C_8  and  C_9
REMARK    4  A    between atoms: C_12  and  O_13
REMARK    5  A    between atoms: O_13  and  C_14
REMARK                            x       y       z     vdW  Elec       q    Type
REMARK                         _______ _______ _______ _____ _____    ______ ____
ROOT
ATOM      1  C   UNL     1      43.752   5.448  11.456  0.00  0.00    +0.000 C 
ATOM      2  C   UNL     1      42.255   5.546  11.744  0.00  0.00    +0.000 C 
ATOM      3  C   UNL     1      43.162   4.964  12.775  0.00  0.00    +0.000 C 
ENDROOT
BRANCH   1   8
ATOM      4  C   UNL     1      48.081   6.744  13.888  0.00  0.00    +0.000 A 
ATOM      5  C   UNL     1      47.521   5.552  13.530  0.00  0.00    +0.000 A 
ATOM      6  N   UNL     1      46.420   5.451  12.759  0.00  0.00    +0.000 NA
ATOM      7  C   UNL     1      45.851   6.588  12.314  0.00  0.00    +0.000 A 
ATOM      8  N   UNL     1      44.707   6.553  11.533  0.00  0.00    +0.000 N 
ATOM      9  N   UNL     1      46.359   7.805  12.587  0.00  0.00    +0.000 NA
ATOM     10  C   UNL     1      47.454   7.856  13.381  0.00  0.00    +0.000 A 
ATOM     11  H   UNL     1      44.491   7.466  11.156  0.00  0.00    +0.000 HD
BRANCH   4  13
ATOM     12  N   UNL     1      50.158   6.882  15.406  0.00  0.00    +0.000 NA
ATOM     13  C   UNL     1      49.220   6.815  14.725  0.00  0.00    +0.000 C 
ENDBRANCH   4  13
ENDBRANCH   1   8
BRANCH   1  14
ATOM     14  C   UNL     1      44.062   4.417  10.369  0.00  0.00    +0.000 A 
ATOM     15  C   UNL     1      44.481   4.805   9.087  0.00  0.00    +0.000 A 
ATOM     16  C   UNL     1      45.113   3.900   8.230  0.00  0.00    +0.000 A 
ATOM     17  C   UNL     1      45.341   2.592   8.645  0.00  0.00    +0.000 A 
ATOM     18  C   UNL     1      44.758   2.144   9.829  0.00  0.00    +0.000 A 
ATOM     19  C   UNL     1      44.117   3.047  10.680  0.00  0.00    +0.000 A 
BRANCH  17  20
ATOM     20  O   UNL     1      46.084   1.676   7.967  0.00  0.00    +0.000 OA
BRANCH  20  21
ATOM     21  C   UNL     1      47.126   2.157   7.122  0.00  0.00    +0.000 C 
ATOM     22  F   UNL     1      47.556   3.405   7.408  0.00  0.00    +0.000 F 
ATOM     23  F   UNL     1      48.190   1.326   7.221  0.00  0.00    +0.000 F 
ATOM     24  F   UNL     1      46.696   2.135   5.841  0.00  0.00    +0.000 F 
ENDBRANCH  20  21
ENDBRANCH  17  20
ENDBRANCH   1  14
TORSDOF 5
ENDMDL
MODEL 3
REMARK VINA RESULT:    -7.038      3.944      6.449
REMARK INTER + INTRA:          -9.454
REMARK INTER:                  -8.793
REMARK INTRA:                  -0.661
REMARK UNBOUND:                -0.359
REMARK  Name = 
REMARK  5 active torsions:
REMARK  status: ('A' for Active; 'I' for Inactive)
REMARK    1  A    between atoms: C_2  and  C_3
REMARK    2  A    between atoms: N_7  and  C_8
REMARK    3  A    between atoms: C_8  and  C_9
REMARK    4  A    between atoms: C_12  and  O_13
REMARK    5  A    between atoms: O_13  and  C_14
REMARK                            x       y       z     vdW  Elec       q    Type
REMARK                         _______ _______ _______ _____ _____    ______ ____
ROOT
ATOM      1  C   UNL     1      43.990   4.947  12.075  0.00  0.00    +0.000 C 
ATOM      2  C   UNL     1      42.655   5.129  12.796  0.00  0.00    +0.000 C 
ATOM      3  C   UNL     1      42.806   5.627  11.398  0.00  0.00    +0.000 C 
ENDROOT
BRANCH   1   8
ATOM      4  C   UNL     1      45.986   3.236   7.668  0.00  0.00    +0.000 A 
ATOM      5  C   UNL     1      46.000   4.444   8.304  0.00  0.00    +0.000 A 
ATOM      6  N   UNL     1      45.515   4.634   9.547  0.00  0.00    +0.000 NA
ATOM      7  C   UNL     1      44.998   3.572  10.195  0.00  0.00    +0.000 A 
ATOM      8  N   UNL     1      44.466   3.705  11.468  0.00  0.00    +0.000 N 
ATOM      9  N   UNL     1      44.979   2.336   9.658  0.00  0.00    +0.000 NA
ATOM     10  C   UNL     1      45.460   2.200   8.400  0.00  0.00    +0.000 A 
ATOM     11  H   UNL     1      44.260   2.803  11.876  0.00  0.00    +0.000 HD
BRANCH   4  13
ATOM     12  N   UNL     1      46.867   2.942   5.265  0.00  0.00    +0.000 NA
ATOM     13  C   UNL     1      46.475   3.077   6.349  0.00  0.00    +0.000 C 
ENDBRANCH   4  13
ENDBRANCH   1   8
BRANCH   1  14
ATOM     14  C   UNL     1      45.091   5.822  12.677  0.00  0.00    +0.000 A 
ATOM     15  C   UNL     1      46.231   5.261  13.273  0.00  0.00    +0.000 A 
ATOM     16  C   UNL     1      47.386   6.020  13.480  0.00  0.00    +0.000 A 
ATOM     17  C   UNL     1      47.420   7.354  13.086  0.00  0.00    +0.000 A 
ATOM     18  C   UNL     1      46.239   7.972  12.677  0.00  0.00    +0.000 A 
ATOM     19  C   UNL     1      45.083   7.214  12.482  0.00  0.00    +0.000 A 
BRANCH  17  20
ATOM     20  O   UNL     1      48.531   8.140  13.088  0.00  0.00    +0.000 OA
BRANCH  20  21
ATOM     21  C   UNL     1      49.272   8.250  11.875  0.00  0.00    +0.000 C 
ATOM     22  F   UNL     1      50.579   7.926  11.980  0.00  0.00    +0.000 F 
ATOM     23  F   UNL     1      48.722   7.431  10.950  0.00  0.00    +0.000 F 
ATOM     24  F   UNL     1      49.180   9.519  11.419  0.00  0.00    +0.000 F 
ENDBRANCH  20  21
ENDBRANCH  17  20
ENDBRANCH   1  14
TORSDOF 5
ENDMDL
MODEL 4
REMARK VINA RESULT:    -6.867      1.514      2.332
REMARK INTER + INTRA:          -9.234
REMARK INTER:                  -9.607
REMARK INTRA:                   0.373
REMARK UNBOUND:                -0.359
REMARK  Name = 
REMARK  5 active torsions:
REMARK  status: ('A' for Active; 'I' for Inactive)
REMARK    1  A    between atoms: C_2  and  C_3
REMARK    2  A    between atoms: N_7  and  C_8
REMARK    3  A    between atoms: C_8  and  C_9
REMARK    4  A    between atoms: C_12  and  O_13
REMARK    5  A    between atoms: O_13  and  C_14
REMARK                            x       y       z     vdW  Elec       q    Type
REMARK                         _______ _______ _______ _____ _____    ______ ____
ROOT
ATOM      1  C   UNL     1      45.064   5.081  12.264  0.00  0.00    +0.000 C 
ATOM      2  C   UNL     1      43.731   5.593  12.807  0.00  0.00    +0.000 C 
ATOM      3  C   UNL     1      44.250   4.272  13.266  0.00  0.00    +0.000 C 
ENDROOT
BRANCH   1   8
ATOM      4  C   UNL     1      48.126   4.861  16.376  0.00  0.00    +0.000 A 
ATOM      5  C   UNL     1      47.134   4.056  15.894  0.00  0.00    +0.000 A 
ATOM      6  N   UNL     1      46.544   4.241  14.696  0.00  0.00    +0.000 NA
ATOM      7  C   UNL     1      46.965   5.268  13.934  0.00  0.00    +0.000 A 
ATOM      8  N   UNL     1      46.387   5.523  12.701  0.00  0.00    +0.000 N 
ATOM      9  N   UNL     1      47.964   6.089  14.314  0.00  0.00    +0.000 NA
ATOM     10  C   UNL     1      48.511   5.875  15.534  0.00  0.00    +0.000 A 
ATOM     11  H   UNL     1      46.906   6.224  12.189  0.00  0.00    +0.000 HD
BRANCH   4  13
ATOM     12  N   UNL     1      49.179   4.501  18.699  0.00  0.00    +0.000 NA
ATOM     13  C   UNL     1      48.703   4.658  17.652  0.00  0.00    +0.000 C 
ENDBRANCH   4  13
ENDBRANCH   1   8
BRANCH   1  14
ATOM     14  C   UNL     1      44.976   4.713  10.781  0.00  0.00    +0.000 A 
ATOM     15  C   UNL     1      45.683   5.429   9.803  0.00  0.00    +0.000 A 
ATOM     16  C   UNL     1      45.908   4.890   8.534  0.00  0.00    +0.000 A 
ATOM     17  C   UNL     1      45.433   3.620   8.225  0.00  0.00    +0.000 A 
ATOM     18  C   UNL     1      44.566   2.984   9.112  0.00  0.00    +0.000 A 
ATOM     19  C   UNL     1      44.334   3.530  10.377  0.00  0.00    +0.000 A 
BRANCH  17  20
ATOM     20  O   UNL     1      45.727   2.932   7.088  0.00  0.00    +0.000 OA
BRANCH  20  21
ATOM     21  C   UNL     1      46.893   2.112   7.088  0.00  0.00    +0.000 C 
ATOM     22  F   UNL     1      47.062   1.370   5.972  0.00  0.00    +0.000 F 
ATOM     23  F   UNL     1      47.984   2.902   7.222  0.00  0.00    +0.000 F 
ATOM     24  F   UNL     1      46.846   1.281   8.152  0.00  0.00    +0.000 F 
ENDBRANCH  20  21
ENDBRANCH  17  20
ENDBRANCH   1  14
TORSDOF 5
ENDMDL
MODEL 5
REMARK VINA RESULT:    -6.041      2.079      2.978
REMARK INTER + INTRA:          -8.166
REMARK INTER:                  -8.274
REMARK INTRA:                   0.107
REMARK UNBOUND:                -0.359
REMARK  Name = 
REMARK  5 active torsions:
REMARK  status: ('A' for Active; 'I' for Inactive)
REMARK    1  A    between atoms: C_2  and  C_3
REMARK    2  A    between atoms: N_7  and  C_8
REMARK    3  A    between atoms: C_8  and  C_9
REMARK    4  A    between atoms: C_12  and  O_13
REMARK    5  A    between atoms: O_13  and  C_14
REMARK                            x       y       z     vdW  Elec       q    Type
REMARK                         _______ _______ _______ _____ _____    ______ ____
ROOT
ATOM      1  C   UNL     1      45.589   5.309  12.280  0.00  0.00    +0.000 C 
ATOM      2  C   UNL     1      45.123   4.416  13.428  0.00  0.00    +0.000 C 
ATOM      3  C   UNL     1      46.584   4.591  13.183  0.00  0.00    +0.000 C 
ENDROOT
BRANCH   1   8
ATOM      4  C   UNL     1      48.968   9.166  12.073  0.00  0.00    +0.000 A 
ATOM      5  C   UNL     1      48.966   7.887  11.597  0.00  0.00    +0.000 A 
ATOM      6  N   UNL     1      47.891   7.076  11.651  0.00  0.00    +0.000 NA
ATOM      7  C   UNL     1      46.758   7.560  12.197  0.00  0.00    +0.000 A 
ATOM      8  N   UNL     1      45.624   6.771  12.300  0.00  0.00    +0.000 N 
ATOM      9  N   UNL     1      46.660   8.822  12.657  0.00  0.00    +0.000 NA
ATOM     10  C   UNL     1      47.772   9.592  12.598  0.00  0.00    +0.000 A 
ATOM     11  H   UNL     1      44.822   7.316  12.588  0.00  0.00    +0.000 HD
BRANCH   4  13
ATOM     12  N   UNL     1      51.077  10.643  11.999  0.00  0.00    +0.000 NA
ATOM     13  C   UNL     1      50.124   9.981  12.029  0.00  0.00    +0.000 C 
ENDBRANCH   4  13
ENDBRANCH   1   8
BRANCH   1  14
ATOM     14  C   UNL     1      45.268   4.701  10.913  0.00  0.00    +0.000 A 
ATOM     15  C   UNL     1      45.624   5.348   9.719  0.00  0.00    +0.000 A 
ATOM     16  C   UNL     1      45.677   4.653   8.509  0.00  0.00    +0.000 A 
ATOM     17  C   UNL     1      45.380   3.294   8.475  0.00  0.00    +0.000 A 
ATOM     18  C   UNL     1      44.838   2.688   9.607  0.00  0.00    +0.000 A 
ATOM     19  C   UNL     1      44.775   3.389  10.814  0.00  0.00    +0.000 A 
BRANCH  17  20
ATOM     20  O   UNL     1      45.554   2.484   7.395  0.00  0.00    +0.000 OA
BRANCH  20  21
ATOM     21  C   UNL     1      46.854   1.950   7.165  0.00  0.00    +0.000 C 
ATOM     22  F   UNL     1      47.865   2.829   7.335  0.00  0.00    +0.000 F 
ATOM     23  F   UNL     1      47.063   0.920   8.017  0.00  0.00    +0.000 F 
ATOM     24  F   UNL     1      46.914   1.468   5.904  0.00  0.00    +0.000 F 
ENDBRANCH  20  21
ENDBRANCH  17  20
ENDBRANCH   1  14
TORSDOF 5
ENDMDL
MODEL 6
REMARK VINA RESULT:    -5.659      2.359      3.898
REMARK INTER + INTRA:          -7.672
REMARK INTER:                  -8.376
REMARK INTRA:                   0.704
REMARK UNBOUND:                -0.359
REMARK  Name = 
REMARK  5 active torsions:
REMARK  status: ('A' for Active; 'I' for Inactive)
REMARK    1  A    between atoms: C_2  and  C_3
REMARK    2  A    between atoms: N_7  and  C_8
REMARK    3  A    between atoms: C_8  and  C_9
REMARK    4  A    between atoms: C_12  and  O_13
REMARK    5  A    between atoms: O_13  and  C_14
REMARK                            x       y       z     vdW  Elec       q    Type
REMARK                         _______ _______ _______ _____ _____    ______ ____
ROOT
ATOM      1  C   UNL     1      47.102   6.063  13.466  0.00  0.00    +0.000 C 
ATOM      2  C   UNL     1      48.201   6.529  12.512  0.00  0.00    +0.000 C 
ATOM      3  C   UNL     1      47.345   7.542  13.195  0.00  0.00    +0.000 C 
ENDROOT
BRANCH   1   8
ATOM      4  C   UNL     1      50.769   5.894  17.052  0.00  0.00    +0.000 A 
ATOM      5  C   UNL     1      50.519   6.723  15.997  0.00  0.00    +0.000 A 
ATOM      6  N   UNL     1      49.397   6.660  15.253  0.00  0.00    +0.000 NA
ATOM      7  C   UNL     1      48.472   5.735  15.577  0.00  0.00    +0.000 A 
ATOM      8  N   UNL     1      47.306   5.607  14.840  0.00  0.00    +0.000 N 
ATOM      9  N   UNL     1      48.620   4.903  16.626  0.00  0.00    +0.000 NA
ATOM     10  C   UNL     1      49.772   4.991  17.330  0.00  0.00    +0.000 A 
ATOM     11  H   UNL     1      46.653   4.981  15.292  0.00  0.00    +0.000 HD
BRANCH   4  13
ATOM     12  N   UNL     1      52.954   6.023  18.410  0.00  0.00    +0.000 NA
ATOM     13  C   UNL     1      51.972   5.967  17.794  0.00  0.00    +0.000 C 
ENDBRANCH   4  13
ENDBRANCH   1   8
BRANCH   1  14
ATOM     14  C   UNL     1      45.961   5.360  12.728  0.00  0.00    +0.000 A 
ATOM     15  C   UNL     1      45.383   5.912  11.574  0.00  0.00    +0.000 A 
ATOM     16  C   UNL     1      44.625   5.128  10.700  0.00  0.00    +0.000 A 
ATOM     17  C   UNL     1      44.439   3.776  10.965  0.00  0.00    +0.000 A 
ATOM     18  C   UNL     1      44.837   3.263  12.198  0.00  0.00    +0.000 A 
ATOM     19  C   UNL     1      45.585   4.052  13.076  0.00  0.00    +0.000 A 
BRANCH  17  20
ATOM     20  O   UNL     1      43.862   2.886  10.111  0.00  0.00    +0.000 OA
BRANCH  20  21
ATOM     21  C   UNL     1      44.672   2.334   9.076  0.00  0.00    +0.000 C 
ATOM     22  F   UNL     1      44.464   1.021   8.835  0.00  0.00    +0.000 F 
ATOM     23  F   UNL     1      44.430   3.003   7.926  0.00  0.00    +0.000 F 
ATOM     24  F   UNL     1      45.973   2.509   9.397  0.00  0.00    +0.000 F 
ENDBRANCH  20  21
ENDBRANCH  17  20
ENDBRANCH   1  14
TORSDOF 5
ENDMDL
MODEL 7
REMARK VINA RESULT:    -5.654      6.119      8.927
REMARK INTER + INTRA:          -7.667
REMARK INTER:                  -6.998
REMARK INTRA:                  -0.669
REMARK UNBOUND:                -0.359
REMARK  Name = 
REMARK  5 active torsions:
REMARK  status: ('A' for Active; 'I' for Inactive)
REMARK    1  A    between atoms: C_2  and  C_3
REMARK    2  A    between atoms: N_7  and  C_8
REMARK    3  A    between atoms: C_8  and  C_9
REMARK    4  A    between atoms: C_12  and  O_13
REMARK    5  A    between atoms: O_13  and  C_14
REMARK                            x       y       z     vdW  Elec       q    Type
REMARK                         _______ _______ _______ _____ _____    ______ ____
ROOT
ATOM      1  C   UNL     1      48.222   7.751  13.672  0.00  0.00    +0.000 C 
ATOM      2  C   UNL     1      49.242   8.498  12.815  0.00  0.00    +0.000 C 
ATOM      3  C   UNL     1      49.083   7.024  12.645  0.00  0.00    +0.000 C 
ENDROOT
BRANCH   1   8
ATOM      4  C   UNL     1      44.488   4.463  12.415  0.00  0.00    +0.000 A 
ATOM      5  C   UNL     1      45.694   4.327  13.039  0.00  0.00    +0.000 A 
ATOM      6  N   UNL     1      46.469   5.371  13.394  0.00  0.00    +0.000 NA
ATOM      7  C   UNL     1      46.021   6.613  13.125  0.00  0.00    +0.000 A 
ATOM      8  N   UNL     1      46.777   7.728  13.448  0.00  0.00    +0.000 N 
ATOM      9  N   UNL     1      44.825   6.841  12.547  0.00  0.00    +0.000 NA
ATOM     10  C   UNL     1      44.093   5.759  12.191  0.00  0.00    +0.000 A 
ATOM     11  H   UNL     1      46.247   8.580  13.324  0.00  0.00    +0.000 HD
BRANCH   4  13
ATOM     12  N   UNL     1      43.087   2.419  11.712  0.00  0.00    +0.000 NA
ATOM     13  C   UNL     1      43.714   3.343  12.027  0.00  0.00    +0.000 C 
ENDBRANCH   4  13
ENDBRANCH   1   8
BRANCH   1  14
ATOM     14  C   UNL     1      48.636   7.700  15.143  0.00  0.00    +0.000 A 
ATOM     15  C   UNL     1      48.294   8.725  16.039  0.00  0.00    +0.000 A 
ATOM     16  C   UNL     1      48.334   8.520  17.421  0.00  0.00    +0.000 A 
ATOM     17  C   UNL     1      48.711   7.281  17.928  0.00  0.00    +0.000 A 
ATOM     18  C   UNL     1      49.239   6.324  17.064  0.00  0.00    +0.000 A 
ATOM     19  C   UNL     1      49.209   6.535  15.683  0.00  0.00    +0.000 A 
BRANCH  17  20
ATOM     20  O   UNL     1      48.632   6.917  19.238  0.00  0.00    +0.000 OA
BRANCH  20  21
ATOM     21  C   UNL     1      47.594   6.018  19.618  0.00  0.00    +0.000 C 
ATOM     22  F   UNL     1      46.573   5.929  18.738  0.00  0.00    +0.000 F 
ATOM     23  F   UNL     1      48.118   4.779  19.762  0.00  0.00    +0.000 F 
ATOM     24  F   UNL     1      47.096   6.404  20.814  0.00  0.00    +0.000 F 
ENDBRANCH  20  21
ENDBRANCH  17  20
ENDBRANCH   1  14
TORSDOF 5
ENDMDL
MODEL 8
REMARK VINA RESULT:    -5.605      3.924      5.530
REMARK INTER + INTRA:          -7.603
REMARK INTER:                  -7.175
REMARK INTRA:                  -0.428
REMARK UNBOUND:                -0.359
REMARK  Name = 
REMARK  5 active torsions:
REMARK  status: ('A' for Active; 'I' for Inactive)
REMARK    1  A    between atoms: C_2  and  C_3
REMARK    2  A    between atoms: N_7  and  C_8
REMARK    3  A    between atoms: C_8  and  C_9
REMARK    4  A    between atoms: C_12  and  O_13
REMARK    5  A    between atoms: O_13  and  C_14
REMARK                            x       y       z     vdW  Elec       q    Type
REMARK                         _______ _______ _______ _____ _____    ______ ____
ROOT
ATOM      1  C   UNL     1      48.213   7.768  13.711  0.00  0.00    +0.000 C 
ATOM      2  C   UNL     1      49.415   7.875  12.775  0.00  0.00    +0.000 C 
ATOM      3  C   UNL     1      48.391   8.960  12.779  0.00  0.00    +0.000 C 
ENDROOT
BRANCH   1   8
ATOM      4  C   UNL     1      50.305   6.006  18.053  0.00  0.00    +0.000 A 
ATOM      5  C   UNL     1      50.691   5.986  16.744  0.00  0.00    +0.000 A 
ATOM      6  N   UNL     1      50.037   6.644  15.767  0.00  0.00    +0.000 NA
ATOM      7  C   UNL     1      48.951   7.367  16.106  0.00  0.00    +0.000 A 
ATOM      8  N   UNL     1      48.224   8.051  15.146  0.00  0.00    +0.000 N 
ATOM      9  N   UNL     1      48.522   7.473  17.379  0.00  0.00    +0.000 NA
ATOM     10  C   UNL     1      49.201   6.778  18.321  0.00  0.00    +0.000 A 
ATOM     11  H   UNL     1      47.538   8.661  15.570  0.00  0.00    +0.000 HD
BRANCH   4  13
ATOM     12  N   UNL     1      51.562   4.671  19.862  0.00  0.00    +0.000 NA
ATOM     13  C   UNL     1      50.996   5.277  19.050  0.00  0.00    +0.000 C 
ENDBRANCH   4  13
ENDBRANCH   1   8
BRANCH   1  14
ATOM     14  C   UNL     1      47.258   6.648  13.294  0.00  0.00    +0.000 A 
ATOM     15  C   UNL     1      47.473   5.316  13.684  0.00  0.00    +0.000 A 
ATOM     16  C   UNL     1      46.442   4.374  13.633  0.00  0.00    +0.000 A 
ATOM     17  C   UNL     1      45.177   4.751  13.197  0.00  0.00    +0.000 A 
ATOM     18  C   UNL     1      45.002   6.010  12.626  0.00  0.00    +0.000 A 
ATOM     19  C   UNL     1      46.037   6.948  12.666  0.00  0.00    +0.000 A 
BRANCH  17  20
ATOM     20  O   UNL     1      44.065   3.969  13.259  0.00  0.00    +0.000 OA
BRANCH  20  21
ATOM     21  C   UNL     1      43.725   3.201  12.108  0.00  0.00    +0.000 C 
ATOM     22  F   UNL     1      44.729   3.041  11.218  0.00  0.00    +0.000 F 
ATOM     23  F   UNL     1      43.330   1.969  12.503  0.00  0.00    +0.000 F 
ATOM     24  F   UNL     1      42.685   3.791  11.478  0.00  0.00    +0.000 F 
ENDBRANCH  20  21
ENDBRANCH  17  20
ENDBRANCH   1  14
TORSDOF 5
ENDMDL
MODEL 9
REMARK VINA RESULT:    -5.428      6.514      9.263
REMARK INTER + INTRA:          -7.374
REMARK INTER:                  -7.139
REMARK INTRA:                  -0.235
REMARK UNBOUND:                -0.359
REMARK  Name = 
REMARK  5 active torsions:
REMARK  status: ('A' for Active; 'I' for Inactive)
REMARK    1  A    between atoms: C_2  and  C_3
REMARK    2  A    between atoms: N_7  and  C_8
REMARK    3  A    between atoms: C_8  and  C_9
REMARK    4  A    between atoms: C_12  and  O_13
REMARK    5  A    between atoms: O_13  and  C_14
REMARK                            x       y       z     vdW  Elec       q    Type
REMARK                         _______ _______ _______ _____ _____    ______ ____
ROOT
ATOM      1  C   UNL     1      48.282   3.196  16.897  0.00  0.00    +0.000 C 
ATOM      2  C   UNL     1      47.508   3.020  18.203  0.00  0.00    +0.000 C 
ATOM      3  C   UNL     1      47.624   4.379  17.598  0.00  0.00    +0.000 C 
ENDROOT
BRANCH   1   8
ATOM      4  C   UNL     1      46.278   5.494  12.769  0.00  0.00    +0.000 A 
ATOM      5  C   UNL     1      47.120   5.905  13.762  0.00  0.00    +0.000 A 
ATOM      6  N   UNL     1      47.634   5.074  14.691  0.00  0.00    +0.000 NA
ATOM      7  C   UNL     1      47.305   3.769  14.627  0.00  0.00    +0.000 A 
ATOM      8  N   UNL     1      47.785   2.867  15.562  0.00  0.00    +0.000 N 
ATOM      9  N   UNL     1      46.511   3.271  13.659  0.00  0.00    +0.000 NA
ATOM     10  C   UNL     1      46.004   4.148  12.761  0.00  0.00    +0.000 A 
ATOM     11  H   UNL     1      47.575   1.915  15.296  0.00  0.00    +0.000 HD
BRANCH   4  13
ATOM     12  N   UNL     1      45.277   7.132  11.052  0.00  0.00    +0.000 NA
ATOM     13  C   UNL     1      45.731   6.398  11.828  0.00  0.00    +0.000 C 
ENDBRANCH   4  13
ENDBRANCH   1   8
BRANCH   1  14
ATOM     14  C   UNL     1      49.784   2.976  17.087  0.00  0.00    +0.000 A 
ATOM     15  C   UNL     1      50.610   3.971  17.632  0.00  0.00    +0.000 A 
ATOM     16  C   UNL     1      51.871   3.662  18.147  0.00  0.00    +0.000 A 
ATOM     17  C   UNL     1      52.324   2.347  18.130  0.00  0.00    +0.000 A 
ATOM     18  C   UNL     1      51.604   1.388  17.419  0.00  0.00    +0.000 A 
ATOM     19  C   UNL     1      50.348   1.703  16.895  0.00  0.00    +0.000 A 
BRANCH  17  20
ATOM     20  O   UNL     1      53.455   1.903  18.744  0.00  0.00    +0.000 OA
BRANCH  20  21
ATOM     21  C   UNL     1      54.710   2.301  18.199  0.00  0.00    +0.000 C 
ATOM     22  F   UNL     1      54.679   2.627  16.888  0.00  0.00    +0.000 F 
ATOM     23  F   UNL     1      55.159   3.382  18.877  0.00  0.00    +0.000 F 
ATOM     24  F   UNL     1      55.601   1.300  18.371  0.00  0.00    +0.000 F 
ENDBRANCH  20  21
ENDBRANCH  17  20
ENDBRANCH   1  14
TORSDOF 5
ENDMDL
