MODEL 1
REMARK VINA RESULT:    -8.108      0.000      0.000
REMARK INTER + INTRA:         -12.086
REMARK INTER:                 -10.951
REMARK INTRA:                  -1.134
REMARK UNBOUND:                -1.134
REMARK  Name = 
REMARK  6 active torsions:
REMARK  status: ('A' for Active; 'I' for Inactive)
REMARK    1  A    between atoms: C_2  and  C_25
REMARK    2  A    between atoms: N_3  and  C_4
REMARK    3  A    between atoms: C_4  and  C_5
REMARK    4  A    between atoms: C_8  and  C_9
REMARK    5  A    between atoms: C_9  and  N_10
REMARK    6  A    between atoms: C_11  and  C_13
REMARK                            x       y       z     vdW  Elec       q    Type
REMARK                         _______ _______ _______ _____ _____    ______ ____
ROOT
ATOM      1  C   UNL     1      44.799   5.666  10.873  0.00  0.00    +0.000 A 
ATOM      2  C   UNL     1      46.144   5.958  10.610  0.00  0.00    +0.000 A 
ATOM      3  C   UNL     1      46.882   6.772  11.476  0.00  0.00    +0.000 A 
ATOM      4  C   UNL     1      46.296   7.296  12.637  0.00  0.00    +0.000 A 
ATOM      5  C   UNL     1      44.947   7.013  12.894  0.00  0.00    +0.000 A 
ATOM      6  C   UNL     1      44.210   6.197  12.029  0.00  0.00    +0.000 A 
ENDROOT
BRANCH   1   7
ATOM      7  C   UNL     1      44.013   4.767   9.952  0.00  0.00    +0.000 C 
BRANCH   7  10
ATOM      8  O   UNL     1      45.123   2.213   9.749  0.00  0.00    +0.000 OA
ATOM      9  C   UNL     1      45.331   3.017   8.844  0.00  0.00    +0.000 C 
ATOM     10  N   UNL     1      44.832   4.296   8.864  0.00  0.00    +0.000 N 
ATOM     11  H   UNL     1      44.910   4.868   8.039  0.00  0.00    +0.000 HD
BRANCH   9  12
ATOM     12  C   UNL     1      46.109   2.681   7.668  0.00  0.00    +0.000 A 
ATOM     13  C   UNL     1      46.328   3.360   6.480  0.00  0.00    +0.000 A 
ATOM     14  C   UNL     1      47.187   2.574   5.671  0.00  0.00    +0.000 A 
ATOM     15  C   UNL     1      47.479   1.432   6.379  0.00  0.00    +0.000 A 
ATOM     16  N   UNL     1      46.832   1.507   7.584  0.00  0.00    +0.000 N 
ATOM     17  H   UNL     1      46.865   0.813   8.321  0.00  0.00    +0.000 HD
ENDBRANCH   9  12
ENDBRANCH   7  10
ENDBRANCH   1   7
BRANCH   4  18
ATOM     18  C   UNL     1      47.079   8.188  13.567  0.00  0.00    +0.000 C 
BRANCH  18  19
ATOM     19  N   UNL     1      47.548   7.450  14.712  0.00  0.00    +0.000 N 
ATOM     20  C   UNL     1      48.798   6.885  14.747  0.00  0.00    +0.000 C 
ATOM     21  O   UNL     1      49.604   7.024  13.831  0.00  0.00    +0.000 OA
ATOM     22  H   UNL     1      46.840   7.123  15.360  0.00  0.00    +0.000 HD
BRANCH  20  23
ATOM     23  C   UNL     1      49.145   6.156  15.974  0.00  0.00    +0.000 A 
ATOM     24  C   UNL     1      50.243   6.550  16.728  0.00  0.00    +0.000 A 
ATOM     25  S   UNL     1      50.448   5.646  18.161  0.00  0.00    +0.000 S 
ATOM     26  C   UNL     1      49.111   4.661  17.797  0.00  0.00    +0.000 A 
ATOM     27  N   UNL     1      48.735   3.652  18.631  0.00  0.00    +0.000 NA
ATOM     28  C   UNL     1      47.724   2.965  18.216  0.00  0.00    +0.000 A 
ATOM     29  N   UNL     1      47.054   3.194  17.042  0.00  0.00    +0.000 N 
ATOM     30  C   UNL     1      47.385   4.211  16.180  0.00  0.00    +0.000 A 
ATOM     31  O   UNL     1      46.747   4.403  15.149  0.00  0.00    +0.000 OA
ATOM     32  C   UNL     1      48.513   5.019  16.602  0.00  0.00    +0.000 A 
ATOM     33  H   UNL     1      46.269   2.619  16.772  0.00  0.00    +0.000 HD
ENDBRANCH  20  23
ENDBRANCH  18  19
ENDBRANCH   4  18
TORSDOF 6
ENDMDL
MODEL 2
REMARK VINA RESULT:    -7.574      1.722      1.904
REMARK INTER + INTRA:         -11.366
REMARK INTER:                 -10.530
REMARK INTRA:                  -0.836
REMARK UNBOUND:                -1.134
REMARK  Name = 
REMARK  6 active torsions:
REMARK  status: ('A' for Active; 'I' for Inactive)
REMARK    1  A    between atoms: C_2  and  C_25
REMARK    2  A    between atoms: N_3  and  C_4
REMARK    3  A    between atoms: C_4  and  C_5
REMARK    4  A    between atoms: C_8  and  C_9
REMARK    5  A    between atoms: C_9  and  N_10
REMARK    6  A    between atoms: C_11  and  C_13
REMARK                            x       y       z     vdW  Elec       q    Type
REMARK                         _______ _______ _______ _____ _____    ______ ____
ROOT
ATOM      1  C   UNL     1      45.261   4.928  11.790  0.00  0.00    +0.000 A 
ATOM      2  C   UNL     1      45.411   6.230  11.292  0.00  0.00    +0.000 A 
ATOM      3  C   UNL     1      46.282   7.135  11.909  0.00  0.00    +0.000 A 
ATOM      4  C   UNL     1      47.038   6.752  13.025  0.00  0.00    +0.000 A 
ATOM      5  C   UNL     1      46.878   5.453  13.529  0.00  0.00    +0.000 A 
ATOM      6  C   UNL     1      46.009   4.547  12.912  0.00  0.00    +0.000 A 
ENDROOT
BRANCH   1   7
ATOM      7  C   UNL     1      44.341   3.947  11.108  0.00  0.00    +0.000 C 
BRANCH   7  10
ATOM      8  O   UNL     1      44.705   4.423   8.381  0.00  0.00    +0.000 OA
ATOM      9  C   UNL     1      45.204   3.414   8.872  0.00  0.00    +0.000 C 
ATOM     10  N   UNL     1      45.069   3.096  10.201  0.00  0.00    +0.000 N 
ATOM     11  H   UNL     1      45.612   2.340  10.584  0.00  0.00    +0.000 HD
BRANCH   9  12
ATOM     12  C   UNL     1      45.992   2.479   8.095  0.00  0.00    +0.000 A 
ATOM     13  C   UNL     1      46.870   2.664   7.038  0.00  0.00    +0.000 A 
ATOM     14  C   UNL     1      47.378   1.398   6.656  0.00  0.00    +0.000 A 
ATOM     15  C   UNL     1      46.806   0.463   7.487  0.00  0.00    +0.000 A 
ATOM     16  N   UNL     1      45.978   1.123   8.355  0.00  0.00    +0.000 N 
ATOM     17  H   UNL     1      45.425   0.696   9.089  0.00  0.00    +0.000 HD
ENDBRANCH   9  12
ENDBRANCH   7  10
ENDBRANCH   1   7
BRANCH   4  18
ATOM     18  C   UNL     1      47.966   7.725  13.706  0.00  0.00    +0.000 C 
BRANCH  18  19
ATOM     19  N   UNL     1      47.923   7.559  15.137  0.00  0.00    +0.000 N 
ATOM     20  C   UNL     1      48.993   7.068  15.842  0.00  0.00    +0.000 C 
ATOM     21  O   UNL     1      50.061   6.796  15.303  0.00  0.00    +0.000 OA
ATOM     22  H   UNL     1      47.003   7.546  15.562  0.00  0.00    +0.000 HD
BRANCH  20  23
ATOM     23  C   UNL     1      48.810   6.946  17.294  0.00  0.00    +0.000 A 
ATOM     24  C   UNL     1      48.605   8.084  18.065  0.00  0.00    +0.000 A 
ATOM     25  S   UNL     1      48.328   7.750  19.716  0.00  0.00    +0.000 S 
ATOM     26  C   UNL     1      48.528   6.079  19.470  0.00  0.00    +0.000 A 
ATOM     27  N   UNL     1      48.426   5.200  20.504  0.00  0.00    +0.000 NA
ATOM     28  C   UNL     1      48.632   3.968  20.179  0.00  0.00    +0.000 A 
ATOM     29  N   UNL     1      48.932   3.533  18.914  0.00  0.00    +0.000 N 
ATOM     30  C   UNL     1      49.025   4.381  17.837  0.00  0.00    +0.000 A 
ATOM     31  O   UNL     1      49.270   3.955  16.713  0.00  0.00    +0.000 OA
ATOM     32  C   UNL     1      48.797   5.780  18.146  0.00  0.00    +0.000 A 
ATOM     33  H   UNL     1      49.082   2.554  18.724  0.00  0.00    +0.000 HD
ENDBRANCH  20  23
ENDBRANCH  18  19
ENDBRANCH   4  18
TORSDOF 6
ENDMDL
MODEL 3
REMARK VINA RESULT:    -7.388      2.364      2.723
REMARK INTER + INTRA:         -11.114
REMARK INTER:                 -10.122
REMARK INTRA:                  -0.992
REMARK UNBOUND:                -1.134
REMARK  Name = 
REMARK  6 active torsions:
REMARK  status: ('A' for Active; 'I' for Inactive)
REMARK    1  A    between atoms: C_2  and  C_25
REMARK    2  A    between atoms: N_3  and  C_4
REMARK    3  A    between atoms: C_4  and  C_5
REMARK    4  A    between atoms: C_8  and  C_9
REMARK    5  A    between atoms: C_9  and  N_10
REMARK    6  A    between atoms: C_11  and  C_13
REMARK                            x       y       z     vdW  Elec       q    Type
REMARK                         _______ _______ _______ _____ _____    ______ ____
ROOT
ATOM      1  C   UNL     1      45.282   5.061  11.682  0.00  0.00    +0.000 A 
ATOM      2  C   UNL     1      45.507   6.398  11.325  0.00  0.00    +0.000 A 
ATOM      3  C   UNL     1      46.398   7.193  12.056  0.00  0.00    +0.000 A 
ATOM      4  C   UNL     1      47.100   6.662  13.147  0.00  0.00    +0.000 A 
ATOM      5  C   UNL     1      46.865   5.328  13.510  0.00  0.00    +0.000 A 
ATOM      6  C   UNL     1      45.976   4.533  12.779  0.00  0.00    +0.000 A 
ENDROOT
BRANCH   1   7
ATOM      7  C   UNL     1      44.341   4.200  10.878  0.00  0.00    +0.000 C 
BRANCH   7  10
ATOM      8  O   UNL     1      44.884   4.489   8.155  0.00  0.00    +0.000 OA
ATOM      9  C   UNL     1      45.295   3.486   8.731  0.00  0.00    +0.000 C 
ATOM     10  N   UNL     1      45.067   3.257  10.066  0.00  0.00    +0.000 N 
ATOM     11  H   UNL     1      45.541   2.495  10.523  0.00  0.00    +0.000 HD
BRANCH   9  12
ATOM     12  C   UNL     1      46.067   2.461   8.057  0.00  0.00    +0.000 A 
ATOM     13  C   UNL     1      47.056   2.537   7.088  0.00  0.00    +0.000 A 
ATOM     14  C   UNL     1      47.483   1.221   6.787  0.00  0.00    +0.000 A 
ATOM     15  C   UNL     1      46.753   0.364   7.577  0.00  0.00    +0.000 A 
ATOM     16  N   UNL     1      45.906   1.121   8.344  0.00  0.00    +0.000 N 
ATOM     17  H   UNL     1      45.249   0.767   9.029  0.00  0.00    +0.000 HD
ENDBRANCH   9  12
ENDBRANCH   7  10
ENDBRANCH   1   7
BRANCH   4  18
ATOM     18  C   UNL     1      48.049   7.515  13.950  0.00  0.00    +0.000 C 
BRANCH  18  19
ATOM     19  N   UNL     1      48.017   7.146  15.342  0.00  0.00    +0.000 N 
ATOM     20  C   UNL     1      49.130   6.673  15.992  0.00  0.00    +0.000 C 
ATOM     21  O   UNL     1      50.224   6.592  15.440  0.00  0.00    +0.000 OA
ATOM     22  H   UNL     1      47.102   6.978  15.744  0.00  0.00    +0.000 HD
BRANCH  20  23
ATOM     23  C   UNL     1      48.955   6.330  17.409  0.00  0.00    +0.000 A 
ATOM     24  C   UNL     1      49.330   5.074  17.870  0.00  0.00    +0.000 A 
ATOM     25  S   UNL     1      49.135   4.877  19.554  0.00  0.00    +0.000 S 
ATOM     26  C   UNL     1      48.490   6.442  19.719  0.00  0.00    +0.000 A 
ATOM     27  N   UNL     1      48.096   6.914  20.933  0.00  0.00    +0.000 NA
ATOM     28  C   UNL     1      47.596   8.104  20.906  0.00  0.00    +0.000 A 
ATOM     29  N   UNL     1      47.453   8.865  19.776  0.00  0.00    +0.000 N 
ATOM     30  C   UNL     1      47.854   8.439  18.533  0.00  0.00    +0.000 A 
ATOM     31  O   UNL     1      47.735   9.156  17.545  0.00  0.00    +0.000 OA
ATOM     32  C   UNL     1      48.428   7.107  18.507  0.00  0.00    +0.000 A 
ATOM     33  H   UNL     1      47.053   9.791  19.821  0.00  0.00    +0.000 HD
ENDBRANCH  20  23
ENDBRANCH  18  19
ENDBRANCH   4  18
TORSDOF 6
ENDMDL
MODEL 4
REMARK VINA RESULT:    -7.010      1.998      2.762
REMARK INTER + INTRA:         -10.603
REMARK INTER:                  -9.951
REMARK INTRA:                  -0.652
REMARK UNBOUND:                -1.134
REMARK  Name = 
REMARK  6 active torsions:
REMARK  status: ('A' for Active; 'I' for Inactive)
REMARK    1  A    between atoms: C_2  and  C_25
REMARK    2  A    between atoms: N_3  and  C_4
REMARK    3  A    between atoms: C_4  and  C_5
REMARK    4  A    between atoms: C_8  and  C_9
REMARK    5  A    between atoms: C_9  and  N_10
REMARK    6  A    between atoms: C_11  and  C_13
REMARK                            x       y       z     vdW  Elec       q    Type
REMARK                         _______ _______ _______ _____ _____    ______ ____
ROOT
ATOM      1  C   UNL     1      45.010   5.156  11.315  0.00  0.00    +0.000 A 
ATOM      2  C   UNL     1      45.288   4.665  12.599  0.00  0.00    +0.000 A 
ATOM      3  C   UNL     1      46.126   5.372  13.468  0.00  0.00    +0.000 A 
ATOM      4  C   UNL     1      46.689   6.595  13.080  0.00  0.00    +0.000 A 
ATOM      5  C   UNL     1      46.420   7.080  11.792  0.00  0.00    +0.000 A 
ATOM      6  C   UNL     1      45.580   6.374  10.924  0.00  0.00    +0.000 A 
ENDROOT
BRANCH   1   7
ATOM      7  C   UNL     1      44.085   4.405  10.390  0.00  0.00    +0.000 C 
BRANCH   7  10
ATOM      8  O   UNL     1      45.496   4.761   8.007  0.00  0.00    +0.000 OA
ATOM      9  C   UNL     1      45.468   3.641   8.510  0.00  0.00    +0.000 C 
ATOM     10  N   UNL     1      44.793   3.372   9.675  0.00  0.00    +0.000 N 
ATOM     11  H   UNL     1      44.915   2.478  10.121  0.00  0.00    +0.000 HD
BRANCH   9  12
ATOM     12  C   UNL     1      46.157   2.507   7.926  0.00  0.00    +0.000 A 
ATOM     13  C   UNL     1      47.103   2.420   6.916  0.00  0.00    +0.000 A 
ATOM     14  C   UNL     1      47.450   1.057   6.750  0.00  0.00    +0.000 A 
ATOM     15  C   UNL     1      46.715   0.336   7.662  0.00  0.00    +0.000 A 
ATOM     16  N   UNL     1      45.944   1.218   8.371  0.00  0.00    +0.000 N 
ATOM     17  H   UNL     1      45.302   0.979   9.117  0.00  0.00    +0.000 HD
ENDBRANCH   9  12
ENDBRANCH   7  10
ENDBRANCH   1   7
BRANCH   4  18
ATOM     18  C   UNL     1      47.608   7.355  14.004  0.00  0.00    +0.000 C 
BRANCH  18  19
ATOM     19  N   UNL     1      48.183   6.478  14.991  0.00  0.00    +0.000 N 
ATOM     20  C   UNL     1      48.924   6.957  16.042  0.00  0.00    +0.000 C 
ATOM     21  O   UNL     1      49.091   8.158  16.230  0.00  0.00    +0.000 OA
ATOM     22  H   UNL     1      48.263   5.501  14.734  0.00  0.00    +0.000 HD
BRANCH  20  23
ATOM     23  C   UNL     1      49.455   5.950  16.971  0.00  0.00    +0.000 A 
ATOM     24  C   UNL     1      48.586   5.215  17.768  0.00  0.00    +0.000 A 
ATOM     25  S   UNL     1      49.366   4.036  18.723  0.00  0.00    +0.000 S 
ATOM     26  C   UNL     1      50.898   4.503  18.149  0.00  0.00    +0.000 A 
ATOM     27  N   UNL     1      52.029   3.886  18.585  0.00  0.00    +0.000 NA
ATOM     28  C   UNL     1      53.122   4.363  18.091  0.00  0.00    +0.000 A 
ATOM     29  N   UNL     1      53.188   5.403  17.200  0.00  0.00    +0.000 N 
ATOM     30  C   UNL     1      52.072   6.043  16.717  0.00  0.00    +0.000 A 
ATOM     31  O   UNL     1      52.165   6.953  15.901  0.00  0.00    +0.000 OA
ATOM     32  C   UNL     1      50.814   5.541  17.238  0.00  0.00    +0.000 A 
ATOM     33  H   UNL     1      54.075   5.731  16.850  0.00  0.00    +0.000 HD
ENDBRANCH  20  23
ENDBRANCH  18  19
ENDBRANCH   4  18
TORSDOF 6
ENDMDL
MODEL 5
REMARK VINA RESULT:    -6.946      2.183      2.757
REMARK INTER + INTRA:         -10.517
REMARK INTER:                  -9.991
REMARK INTRA:                  -0.527
REMARK UNBOUND:                -1.134
REMARK  Name = 
REMARK  6 active torsions:
REMARK  status: ('A' for Active; 'I' for Inactive)
REMARK    1  A    between atoms: C_2  and  C_25
REMARK    2  A    between atoms: N_3  and  C_4
REMARK    3  A    between atoms: C_4  and  C_5
REMARK    4  A    between atoms: C_8  and  C_9
REMARK    5  A    between atoms: C_9  and  N_10
REMARK    6  A    between atoms: C_11  and  C_13
REMARK                            x       y       z     vdW  Elec       q    Type
REMARK                         _______ _______ _______ _____ _____    ______ ____
ROOT
ATOM      1  C   UNL     1      44.636   4.604  11.706  0.00  0.00    +0.000 A 
ATOM      2  C   UNL     1      44.106   5.810  11.225  0.00  0.00    +0.000 A 
ATOM      3  C   UNL     1      44.553   7.037  11.729  0.00  0.00    +0.000 A 
ATOM      4  C   UNL     1      45.554   7.086  12.709  0.00  0.00    +0.000 A 
ATOM      5  C   UNL     1      46.075   5.879  13.196  0.00  0.00    +0.000 A 
ATOM      6  C   UNL     1      45.630   4.652  12.692  0.00  0.00    +0.000 A 
ENDROOT
BRANCH   1   7
ATOM      7  C   UNL     1      44.171   3.284  11.144  0.00  0.00    +0.000 C 
BRANCH   7  10
ATOM      8  O   UNL     1      44.175   4.003   8.446  0.00  0.00    +0.000 OA
ATOM      9  C   UNL     1      45.022   3.207   8.842  0.00  0.00    +0.000 C 
ATOM     10  N   UNL     1      45.090   2.791  10.148  0.00  0.00    +0.000 N 
ATOM     11  H   UNL     1      45.884   2.252  10.454  0.00  0.00    +0.000 HD
BRANCH   9  12
ATOM     12  C   UNL     1      46.034   2.648   7.968  0.00  0.00    +0.000 A 
ATOM     13  C   UNL     1      46.821   3.220   6.980  0.00  0.00    +0.000 A 
ATOM     14  C   UNL     1      47.658   2.213   6.440  0.00  0.00    +0.000 A 
ATOM     15  C   UNL     1      47.370   1.045   7.107  0.00  0.00    +0.000 A 
ATOM     16  N   UNL     1      46.396   1.317   8.030  0.00  0.00    +0.000 N 
ATOM     17  H   UNL     1      45.986   0.652   8.675  0.00  0.00    +0.000 HD
ENDBRANCH   9  12
ENDBRANCH   7  10
ENDBRANCH   1   7
BRANCH   4  18
ATOM     18  C   UNL     1      46.030   8.403  13.269  0.00  0.00    +0.000 C 
BRANCH  18  19
ATOM     19  N   UNL     1      47.359   8.279  13.811  0.00  0.00    +0.000 N 
ATOM     20  C   UNL     1      48.466   8.201  13.005  0.00  0.00    +0.000 C 
ATOM     21  O   UNL     1      48.392   8.287  11.782  0.00  0.00    +0.000 OA
ATOM     22  H   UNL     1      47.426   7.971  14.774  0.00  0.00    +0.000 HD
BRANCH  20  23
ATOM     23  C   UNL     1      49.759   8.072  13.691  0.00  0.00    +0.000 A 
ATOM     24  C   UNL     1      50.878   8.723  13.188  0.00  0.00    +0.000 A 
ATOM     25  S   UNL     1      52.271   8.533  14.155  0.00  0.00    +0.000 S 
ATOM     26  C   UNL     1      51.443   7.529  15.250  0.00  0.00    +0.000 A 
ATOM     27  N   UNL     1      52.075   7.000  16.333  0.00  0.00    +0.000 NA
ATOM     28  C   UNL     1      51.335   6.232  17.060  0.00  0.00    +0.000 A 
ATOM     29  N   UNL     1      50.020   5.943  16.803  0.00  0.00    +0.000 N 
ATOM     30  C   UNL     1      49.335   6.470  15.734  0.00  0.00    +0.000 A 
ATOM     31  O   UNL     1      48.151   6.211  15.548  0.00  0.00    +0.000 OA
ATOM     32  C   UNL     1      50.121   7.345  14.885  0.00  0.00    +0.000 A 
ATOM     33  H   UNL     1      49.494   5.334  17.411  0.00  0.00    +0.000 HD
ENDBRANCH  20  23
ENDBRANCH  18  19
ENDBRANCH   4  18
TORSDOF 6
ENDMDL
MODEL 6
REMARK VINA RESULT:    -6.943      1.787      2.189
REMARK INTER + INTRA:         -10.513
REMARK INTER:                  -9.570
REMARK INTRA:                  -0.943
REMARK UNBOUND:                -1.134
REMARK  Name = 
REMARK  6 active torsions:
REMARK  status: ('A' for Active; 'I' for Inactive)
REMARK    1  A    between atoms: C_2  and  C_25
REMARK    2  A    between atoms: N_3  and  C_4
REMARK    3  A    between atoms: C_4  and  C_5
REMARK    4  A    between atoms: C_8  and  C_9
REMARK    5  A    between atoms: C_9  and  N_10
REMARK    6  A    between atoms: C_11  and  C_13
REMARK                            x       y       z     vdW  Elec       q    Type
REMARK                         _______ _______ _______ _____ _____    ______ ____
ROOT
ATOM      1  C   UNL     1      45.134   4.764  11.687  0.00  0.00    +0.000 A 
ATOM      2  C   UNL     1      45.751   4.449  12.906  0.00  0.00    +0.000 A 
ATOM      3  C   UNL     1      46.499   5.408  13.597  0.00  0.00    +0.000 A 
ATOM      4  C   UNL     1      46.629   6.711  13.096  0.00  0.00    +0.000 A 
ATOM      5  C   UNL     1      46.021   7.021  11.871  0.00  0.00    +0.000 A 
ATOM      6  C   UNL     1      45.272   6.063  11.180  0.00  0.00    +0.000 A 
ENDROOT
BRANCH   1   7
ATOM      7  C   UNL     1      44.308   3.735  10.956  0.00  0.00    +0.000 C 
BRANCH   7  10
ATOM      8  O   UNL     1      44.621   4.416   8.266  0.00  0.00    +0.000 OA
ATOM      9  C   UNL     1      45.210   3.426   8.693  0.00  0.00    +0.000 C 
ATOM     10  N   UNL     1      45.107   3.013   9.998  0.00  0.00    +0.000 N 
ATOM     11  H   UNL     1      45.716   2.284  10.334  0.00  0.00    +0.000 HD
BRANCH   9  12
ATOM     12  C   UNL     1      46.075   2.616   7.860  0.00  0.00    +0.000 A 
ATOM     13  C   UNL     1      46.499   1.301   7.972  0.00  0.00    +0.000 A 
ATOM     14  C   UNL     1      47.337   1.009   6.867  0.00  0.00    +0.000 A 
ATOM     15  C   UNL     1      47.408   2.147   6.098  0.00  0.00    +0.000 A 
ATOM     16  N   UNL     1      46.640   3.109   6.700  0.00  0.00    +0.000 N 
ATOM     17  H   UNL     1      46.494   4.052   6.360  0.00  0.00    +0.000 HD
ENDBRANCH   9  12
ENDBRANCH   7  10
ENDBRANCH   1   7
BRANCH   4  18
ATOM     18  C   UNL     1      47.446   7.746  13.826  0.00  0.00    +0.000 C 
BRANCH  18  19
ATOM     19  N   UNL     1      48.601   7.146  14.443  0.00  0.00    +0.000 N 
ATOM     20  C   UNL     1      49.346   7.809  15.386  0.00  0.00    +0.000 C 
ATOM     21  O   UNL     1      49.038   8.925  15.796  0.00  0.00    +0.000 OA
ATOM     22  H   UNL     1      49.007   6.350  13.964  0.00  0.00    +0.000 HD
BRANCH  20  23
ATOM     23  C   UNL     1      50.500   7.081  15.929  0.00  0.00    +0.000 A 
ATOM     24  C   UNL     1      51.788   7.540  15.682  0.00  0.00    +0.000 A 
ATOM     25  S   UNL     1      53.001   6.623  16.457  0.00  0.00    +0.000 S 
ATOM     26  C   UNL     1      51.853   5.547  17.104  0.00  0.00    +0.000 A 
ATOM     27  N   UNL     1      52.235   4.496  17.879  0.00  0.00    +0.000 NA
ATOM     28  C   UNL     1      51.263   3.744  18.276  0.00  0.00    +0.000 A 
ATOM     29  N   UNL     1      49.943   3.947  17.968  0.00  0.00    +0.000 N 
ATOM     30  C   UNL     1      49.509   5.006  17.207  0.00  0.00    +0.000 A 
ATOM     31  O   UNL     1      48.316   5.173  16.972  0.00  0.00    +0.000 OA
ATOM     32  C   UNL     1      50.562   5.886  16.738  0.00  0.00    +0.000 A 
ATOM     33  H   UNL     1      49.228   3.322  18.310  0.00  0.00    +0.000 HD
ENDBRANCH  20  23
ENDBRANCH  18  19
ENDBRANCH   4  18
TORSDOF 6
ENDMDL
MODEL 7
REMARK VINA RESULT:    -6.791      1.230      1.722
REMARK INTER + INTRA:         -10.307
REMARK INTER:                  -9.540
REMARK INTRA:                  -0.767
REMARK UNBOUND:                -1.134
REMARK  Name = 
REMARK  6 active torsions:
REMARK  status: ('A' for Active; 'I' for Inactive)
REMARK    1  A    between atoms: C_2  and  C_25
REMARK    2  A    between atoms: N_3  and  C_4
REMARK    3  A    between atoms: C_4  and  C_5
REMARK    4  A    between atoms: C_8  and  C_9
REMARK    5  A    between atoms: C_9  and  N_10
REMARK    6  A    between atoms: C_11  and  C_13
REMARK                            x       y       z     vdW  Elec       q    Type
REMARK                         _______ _______ _______ _____ _____    ______ ____
ROOT
ATOM      1  C   UNL     1      45.458   6.763  11.531  0.00  0.00    +0.000 A 
ATOM      2  C   UNL     1      44.974   7.722  12.431  0.00  0.00    +0.000 A 
ATOM      3  C   UNL     1      45.852   8.452  13.240  0.00  0.00    +0.000 A 
ATOM      4  C   UNL     1      47.237   8.253  13.152  0.00  0.00    +0.000 A 
ATOM      5  C   UNL     1      47.720   7.285  12.259  0.00  0.00    +0.000 A 
ATOM      6  C   UNL     1      46.841   6.557  11.449  0.00  0.00    +0.000 A 
ENDROOT
BRANCH   1   7
ATOM      7  C   UNL     1      44.510   5.997  10.643  0.00  0.00    +0.000 C 
BRANCH   7  10
ATOM      8  O   UNL     1      43.839   3.345  10.082  0.00  0.00    +0.000 OA
ATOM      9  C   UNL     1      44.821   3.831   9.527  0.00  0.00    +0.000 C 
ATOM     10  N   UNL     1      45.229   5.123   9.749  0.00  0.00    +0.000 N 
ATOM     11  H   UNL     1      45.949   5.519   9.168  0.00  0.00    +0.000 HD
BRANCH   9  12
ATOM     12  C   UNL     1      45.626   3.089   8.578  0.00  0.00    +0.000 A 
ATOM     13  C   UNL     1      45.853   1.730   8.423  0.00  0.00    +0.000 A 
ATOM     14  C   UNL     1      46.723   1.549   7.319  0.00  0.00    +0.000 A 
ATOM     15  C   UNL     1      47.011   2.798   6.819  0.00  0.00    +0.000 A 
ATOM     16  N   UNL     1      46.341   3.719   7.579  0.00  0.00    +0.000 N 
ATOM     17  H   UNL     1      46.354   4.723   7.445  0.00  0.00    +0.000 HD
ENDBRANCH   9  12
ENDBRANCH   7  10
ENDBRANCH   1   7
BRANCH   4  18
ATOM     18  C   UNL     1      48.191   9.022  14.031  0.00  0.00    +0.000 C 
BRANCH  18  19
ATOM     19  N   UNL     1      48.308   8.401  15.326  0.00  0.00    +0.000 N 
ATOM     20  C   UNL     1      49.188   7.374  15.560  0.00  0.00    +0.000 C 
ATOM     21  O   UNL     1      49.960   6.966  14.697  0.00  0.00    +0.000 OA
ATOM     22  H   UNL     1      47.538   8.548  15.968  0.00  0.00    +0.000 HD
BRANCH  20  23
ATOM     23  C   UNL     1      49.200   6.831  16.924  0.00  0.00    +0.000 A 
ATOM     24  C   UNL     1      49.648   7.616  17.979  0.00  0.00    +0.000 A 
ATOM     25  S   UNL     1      49.515   6.857  19.502  0.00  0.00    +0.000 S 
ATOM     26  C   UNL     1      48.906   5.432  18.800  0.00  0.00    +0.000 A 
ATOM     27  N   UNL     1      48.585   4.353  19.566  0.00  0.00    +0.000 NA
ATOM     28  C   UNL     1      48.166   3.331  18.900  0.00  0.00    +0.000 A 
ATOM     29  N   UNL     1      48.037   3.287  17.536  0.00  0.00    +0.000 N 
ATOM     30  C   UNL     1      48.329   4.356  16.724  0.00  0.00    +0.000 A 
ATOM     31  O   UNL     1      48.178   4.291  15.509  0.00  0.00    +0.000 OA
ATOM     32  C   UNL     1      48.801   5.535  17.425  0.00  0.00    +0.000 A 
ATOM     33  H   UNL     1      47.703   2.455  17.073  0.00  0.00    +0.000 HD
ENDBRANCH  20  23
ENDBRANCH  18  19
ENDBRANCH   4  18
TORSDOF 6
ENDMDL
MODEL 8
REMARK VINA RESULT:    -6.638      3.639      5.045
REMARK INTER + INTRA:         -10.100
REMARK INTER:                  -9.206
REMARK INTRA:                  -0.895
REMARK UNBOUND:                -1.134
REMARK  Name = 
REMARK  6 active torsions:
REMARK  status: ('A' for Active; 'I' for Inactive)
REMARK    1  A    between atoms: C_2  and  C_25
REMARK    2  A    between atoms: N_3  and  C_4
REMARK    3  A    between atoms: C_4  and  C_5
REMARK    4  A    between atoms: C_8  and  C_9
REMARK    5  A    between atoms: C_9  and  N_10
REMARK    6  A    between atoms: C_11  and  C_13
REMARK                            x       y       z     vdW  Elec       q    Type
REMARK                         _______ _______ _______ _____ _____    ______ ____
ROOT
ATOM      1  C   UNL     1      47.271   5.971  13.972  0.00  0.00    +0.000 A 
ATOM      2  C   UNL     1      46.761   4.750  14.434  0.00  0.00    +0.000 A 
ATOM      3  C   UNL     1      47.232   4.184  15.625  0.00  0.00    +0.000 A 
ATOM      4  C   UNL     1      48.207   4.837  16.390  0.00  0.00    +0.000 A 
ATOM      5  C   UNL     1      48.725   6.053  15.920  0.00  0.00    +0.000 A 
ATOM      6  C   UNL     1      48.253   6.620  14.732  0.00  0.00    +0.000 A 
ENDROOT
BRANCH   1   7
ATOM      7  C   UNL     1      46.744   6.591  12.702  0.00  0.00    +0.000 C 
BRANCH   7  10
ATOM      8  O   UNL     1      44.277   6.406  11.407  0.00  0.00    +0.000 OA
ATOM      9  C   UNL     1      45.139   5.570  11.149  0.00  0.00    +0.000 C 
ATOM     10  N   UNL     1      46.377   5.579  11.744  0.00  0.00    +0.000 N 
ATOM     11  H   UNL     1      47.094   4.963  11.398  0.00  0.00    +0.000 HD
BRANCH   9  12
ATOM     12  C   UNL     1      44.931   4.510  10.183  0.00  0.00    +0.000 A 
ATOM     13  C   UNL     1      44.614   3.169  10.337  0.00  0.00    +0.000 A 
ATOM     14  C   UNL     1      44.518   2.585   9.050  0.00  0.00    +0.000 A 
ATOM     15  C   UNL     1      44.775   3.578   8.133  0.00  0.00    +0.000 A 
ATOM     16  N   UNL     1      45.016   4.736   8.824  0.00  0.00    +0.000 N 
ATOM     17  H   UNL     1      45.229   5.638   8.416  0.00  0.00    +0.000 HD
ENDBRANCH   9  12
ENDBRANCH   7  10
ENDBRANCH   1   7
BRANCH   4  18
ATOM     18  C   UNL     1      48.732   4.227  17.665  0.00  0.00    +0.000 C 
BRANCH  18  19
ATOM     19  N   UNL     1      50.115   3.849  17.521  0.00  0.00    +0.000 N 
ATOM     20  C   UNL     1      51.047   4.131  18.488  0.00  0.00    +0.000 C 
ATOM     21  O   UNL     1      50.746   4.668  19.550  0.00  0.00    +0.000 OA
ATOM     22  H   UNL     1      50.428   3.630  16.582  0.00  0.00    +0.000 HD
BRANCH  20  23
ATOM     23  C   UNL     1      52.422   3.694  18.209  0.00  0.00    +0.000 A 
ATOM     24  C   UNL     1      53.473   4.596  18.322  0.00  0.00    +0.000 A 
ATOM     25  S   UNL     1      55.005   3.898  18.044  0.00  0.00    +0.000 S 
ATOM     26  C   UNL     1      54.315   2.379  17.709  0.00  0.00    +0.000 A 
ATOM     27  N   UNL     1      55.093   1.312  17.380  0.00  0.00    +0.000 NA
ATOM     28  C   UNL     1      54.435   0.232  17.120  0.00  0.00    +0.000 A 
ATOM     29  N   UNL     1      53.070   0.121  17.159  0.00  0.00    +0.000 N 
ATOM     30  C   UNL     1      52.246   1.165  17.506  0.00  0.00    +0.000 A 
ATOM     31  O   UNL     1      51.029   1.024  17.556  0.00  0.00    +0.000 OA
ATOM     32  C   UNL     1      52.936   2.403  17.812  0.00  0.00    +0.000 A 
ATOM     33  H   UNL     1      52.614  -0.754  16.945  0.00  0.00    +0.000 HD
ENDBRANCH  20  23
ENDBRANCH  18  19
ENDBRANCH   4  18
TORSDOF 6
ENDMDL
MODEL 9
REMARK VINA RESULT:    -6.585      4.709      7.261
REMARK INTER + INTRA:         -10.029
REMARK INTER:                  -9.150
REMARK INTRA:                  -0.879
REMARK UNBOUND:                -1.134
REMARK  Name = 
REMARK  6 active torsions:
REMARK  status: ('A' for Active; 'I' for Inactive)
REMARK    1  A    between atoms: C_2  and  C_25
REMARK    2  A    between atoms: N_3  and  C_4
REMARK    3  A    between atoms: C_4  and  C_5
REMARK    4  A    between atoms: C_8  and  C_9
REMARK    5  A    between atoms: C_9  and  N_10
REMARK    6  A    between atoms: C_11  and  C_13
REMARK                            x       y       z     vdW  Elec       q    Type
REMARK                         _______ _______ _______ _____ _____    ______ ____
ROOT
ATOM      1  C   UNL     1      50.642   8.841  11.289  0.00  0.00    +0.000 A 
ATOM      2  C   UNL     1      50.135   7.569  11.588  0.00  0.00    +0.000 A 
ATOM      3  C   UNL     1      48.819   7.411  12.036  0.00  0.00    +0.000 A 
ATOM      4  C   UNL     1      47.973   8.520  12.173  0.00  0.00    +0.000 A 
ATOM      5  C   UNL     1      48.484   9.793  11.884  0.00  0.00    +0.000 A 
ATOM      6  C   UNL     1      49.799   9.951  11.435  0.00  0.00    +0.000 A 
ENDROOT
BRANCH   1   7
ATOM      7  C   UNL     1      52.053   9.006  10.782  0.00  0.00    +0.000 C 
BRANCH   7  10
ATOM      8  O   UNL     1      53.889   6.909  10.942  0.00  0.00    +0.000 OA
ATOM      9  C   UNL     1      53.256   7.056   9.900  0.00  0.00    +0.000 C 
ATOM     10  N   UNL     1      52.340   8.064   9.730  0.00  0.00    +0.000 N 
ATOM     11  H   UNL     1      51.747   8.059   8.916  0.00  0.00    +0.000 HD
BRANCH   9  12
ATOM     12  C   UNL     1      53.411   6.171   8.763  0.00  0.00    +0.000 A 
ATOM     13  C   UNL     1      52.796   6.145   7.521  0.00  0.00    +0.000 A 
ATOM     14  C   UNL     1      53.334   5.062   6.782  0.00  0.00    +0.000 A 
ATOM     15  C   UNL     1      54.268   4.447   7.583  0.00  0.00    +0.000 A 
ATOM     16  N   UNL     1      54.313   5.125   8.772  0.00  0.00    +0.000 N 
ATOM     17  H   UNL     1      54.914   4.908   9.557  0.00  0.00    +0.000 HD
ENDBRANCH   9  12
ENDBRANCH   7  10
ENDBRANCH   1   7
BRANCH   4  18
ATOM     18  C   UNL     1      46.558   8.361  12.671  0.00  0.00    +0.000 C 
BRANCH  18  19
ATOM     19  N   UNL     1      46.077   7.024  12.432  0.00  0.00    +0.000 N 
ATOM     20  C   UNL     1      44.942   6.782  11.700  0.00  0.00    +0.000 C 
ATOM     21  O   UNL     1      44.306   7.684  11.162  0.00  0.00    +0.000 OA
ATOM     22  H   UNL     1      46.433   6.300  13.046  0.00  0.00    +0.000 HD
BRANCH  20  23
ATOM     23  C   UNL     1      44.564   5.372  11.539  0.00  0.00    +0.000 A 
ATOM     24  C   UNL     1      43.883   4.716  12.557  0.00  0.00    +0.000 A 
ATOM     25  S   UNL     1      43.451   3.112  12.168  0.00  0.00    +0.000 S 
ATOM     26  C   UNL     1      44.206   3.218  10.647  0.00  0.00    +0.000 A 
ATOM     27  N   UNL     1      44.213   2.160   9.792  0.00  0.00    +0.000 NA
ATOM     28  C   UNL     1      44.848   2.369   8.688  0.00  0.00    +0.000 A 
ATOM     29  N   UNL     1      45.479   3.541   8.361  0.00  0.00    +0.000 N 
ATOM     30  C   UNL     1      45.482   4.642   9.184  0.00  0.00    +0.000 A 
ATOM     31  O   UNL     1      46.035   5.684   8.849  0.00  0.00    +0.000 OA
ATOM     32  C   UNL     1      44.776   4.461  10.438  0.00  0.00    +0.000 A 
ATOM     33  H   UNL     1      45.961   3.643   7.480  0.00  0.00    +0.000 HD
ENDBRANCH  20  23
ENDBRANCH  18  19
ENDBRANCH   4  18
TORSDOF 6
ENDMDL
