MODEL 1
REMARK VINA RESULT:    -8.144      0.000      0.000
REMARK INTER + INTRA:         -12.291
REMARK INTER:                 -11.477
REMARK INTRA:                  -0.814
REMARK UNBOUND:                -0.814
REMARK  Name = 
REMARK  8 active torsions:
REMARK  status: ('A' for Active; 'I' for Inactive)
REMARK    1  A    between atoms: C_1  and  O_2
REMARK    2  A    between atoms: O_2  and  C_3
REMARK    3  A    between atoms: C_7  and  N_8
REMARK    4  A    between atoms: N_8  and  C_9
REMARK    5  A    between atoms: C_9  and  C_10
REMARK    6  A    between atoms: C_13  and  C_14
REMARK    7  A    between atoms: C_14  and  N_15
REMARK    8  A    between atoms: C_16  and  C_18
REMARK                            x       y       z     vdW  Elec       q    Type
REMARK                         _______ _______ _______ _____ _____    ______ ____
ROOT
ATOM      1  C   UNL     1      44.882   5.249  11.865  0.00  0.00    +0.000 A 
ATOM      2  C   UNL     1      45.329   4.701  13.063  0.00  0.00    +0.000 A 
ATOM      3  N   UNL     1      46.427   5.152  13.723  0.00  0.00    +0.000 NA
ATOM      4  C   UNL     1      47.097   6.175  13.129  0.00  0.00    +0.000 A 
ATOM      5  C   UNL     1      46.649   6.722  11.931  0.00  0.00    +0.000 A 
ATOM      6  N   UNL     1      45.550   6.274  11.275  0.00  0.00    +0.000 NA
ENDROOT
BRANCH   1   7
ATOM      7  C   UNL     1      43.643   4.711  11.184  0.00  0.00    +0.000 C 
BRANCH   7   8
ATOM      8  N   UNL     1      43.766   4.808   9.737  0.00  0.00    +0.000 N 
ATOM      9  H   UNL     1      42.870   4.865   9.253  0.00  0.00    +0.000 HD
BRANCH   8  14
ATOM     10  C   UNL     1      46.060   3.470   7.381  0.00  0.00    +0.000 A 
ATOM     11  C   UNL     1      46.210   2.139   7.725  0.00  0.00    +0.000 A 
ATOM     12  C   UNL     1      45.460   1.658   8.787  0.00  0.00    +0.000 A 
ATOM     13  C   UNL     1      44.610   2.529   9.467  0.00  0.00    +0.000 A 
ATOM     14  C   UNL     1      44.517   3.857   9.060  0.00  0.00    +0.000 A 
ATOM     15  N   UNL     1      45.230   4.327   8.020  0.00  0.00    +0.000 NA
BRANCH  10  17
ATOM     16  C   UNL     1      47.122   2.886   5.380  0.00  0.00    +0.000 C 
ATOM     17  O   UNL     1      46.837   3.912   6.326  0.00  0.00    +0.000 OA
ENDBRANCH  10  17
ENDBRANCH   8  14
ENDBRANCH   7   8
ENDBRANCH   1   7
BRANCH   4  18
ATOM     18  C   UNL     1      48.343   6.702  13.798  0.00  0.00    +0.000 C 
BRANCH  18  19
ATOM     19  N   UNL     1      48.231   6.767  15.240  0.00  0.00    +0.000 N 
ATOM     20  C   UNL     1      49.325   6.698  16.061  0.00  0.00    +0.000 C 
ATOM     21  O   UNL     1      50.462   6.587  15.610  0.00  0.00    +0.000 OA
ATOM     22  H   UNL     1      47.295   6.786  15.632  0.00  0.00    +0.000 HD
BRANCH  20  23
ATOM     23  C   UNL     1      49.082   6.823  17.502  0.00  0.00    +0.000 A 
ATOM     24  C   UNL     1      49.056   8.082  18.085  0.00  0.00    +0.000 A 
ATOM     25  S   UNL     1      48.746   8.054  19.761  0.00  0.00    +0.000 S 
ATOM     26  C   UNL     1      48.682   6.354  19.776  0.00  0.00    +0.000 A 
ATOM     27  N   UNL     1      48.474   5.675  20.935  0.00  0.00    +0.000 NA
ATOM     28  C   UNL     1      48.491   4.388  20.811  0.00  0.00    +0.000 A 
ATOM     29  N   UNL     1      48.687   3.724  19.628  0.00  0.00    +0.000 N 
ATOM     30  C   UNL     1      48.848   4.368  18.423  0.00  0.00    +0.000 A 
ATOM     31  O   UNL     1      48.934   3.743  17.371  0.00  0.00    +0.000 OA
ATOM     32  C   UNL     1      48.869   5.816  18.515  0.00  0.00    +0.000 A 
ATOM     33  H   UNL     1      48.670   2.713  19.597  0.00  0.00    +0.000 HD
ENDBRANCH  20  23
ENDBRANCH  18  19
ENDBRANCH   4  18
TORSDOF 7
ENDMDL
MODEL 2
REMARK VINA RESULT:    -7.745      1.751      2.834
REMARK INTER + INTRA:         -11.729
REMARK INTER:                 -10.774
REMARK INTRA:                  -0.954
REMARK UNBOUND:                -0.814
REMARK  Name = 
REMARK  8 active torsions:
REMARK  status: ('A' for Active; 'I' for Inactive)
REMARK    1  A    between atoms: C_1  and  O_2
REMARK    2  A    between atoms: O_2  and  C_3
REMARK    3  A    between atoms: C_7  and  N_8
REMARK    4  A    between atoms: N_8  and  C_9
REMARK    5  A    between atoms: C_9  and  C_10
REMARK    6  A    between atoms: C_13  and  C_14
REMARK    7  A    between atoms: C_14  and  N_15
REMARK    8  A    between atoms: C_16  and  C_18
REMARK                            x       y       z     vdW  Elec       q    Type
REMARK                         _______ _______ _______ _____ _____    ______ ____
ROOT
ATOM      1  C   UNL     1      44.745   4.880  12.054  0.00  0.00    +0.000 A 
ATOM      2  C   UNL     1      45.360   6.120  11.919  0.00  0.00    +0.000 A 
ATOM      3  N   UNL     1      46.505   6.457  12.567  0.00  0.00    +0.000 NA
ATOM      4  C   UNL     1      47.021   5.507  13.392  0.00  0.00    +0.000 A 
ATOM      5  C   UNL     1      46.404   4.266  13.526  0.00  0.00    +0.000 A 
ATOM      6  N   UNL     1      45.263   3.930  12.875  0.00  0.00    +0.000 NA
ENDROOT
BRANCH   1   7
ATOM      7  C   UNL     1      43.476   4.559  11.295  0.00  0.00    +0.000 C 
BRANCH   7   8
ATOM      8  N   UNL     1      43.668   4.748   9.864  0.00  0.00    +0.000 N 
ATOM      9  H   UNL     1      42.798   4.864   9.347  0.00  0.00    +0.000 HD
BRANCH   8  14
ATOM     10  C   UNL     1      45.963   3.487   7.466  0.00  0.00    +0.000 A 
ATOM     11  C   UNL     1      46.120   2.148   7.772  0.00  0.00    +0.000 A 
ATOM     12  C   UNL     1      45.376   1.634   8.822  0.00  0.00    +0.000 A 
ATOM     13  C   UNL     1      44.523   2.481   9.529  0.00  0.00    +0.000 A 
ATOM     14  C   UNL     1      44.422   3.820   9.160  0.00  0.00    +0.000 A 
ATOM     15  N   UNL     1      45.131   4.322   8.132  0.00  0.00    +0.000 NA
BRANCH  10  17
ATOM     16  C   UNL     1      47.384   2.923   5.696  0.00  0.00    +0.000 C 
ATOM     17  O   UNL     1      46.736   3.963   6.422  0.00  0.00    +0.000 OA
ENDBRANCH  10  17
ENDBRANCH   8  14
ENDBRANCH   7   8
ENDBRANCH   1   7
BRANCH   4  18
ATOM     18  C   UNL     1      48.276   5.831  14.163  0.00  0.00    +0.000 C 
BRANCH  18  19
ATOM     19  N   UNL     1      48.015   6.458  15.441  0.00  0.00    +0.000 N 
ATOM     20  C   UNL     1      48.940   6.474  16.450  0.00  0.00    +0.000 C 
ATOM     21  O   UNL     1      50.049   5.963  16.314  0.00  0.00    +0.000 OA
ATOM     22  H   UNL     1      47.080   6.821  15.595  0.00  0.00    +0.000 HD
BRANCH  20  23
ATOM     23  C   UNL     1      48.570   7.183  17.679  0.00  0.00    +0.000 A 
ATOM     24  C   UNL     1      48.491   6.484  18.875  0.00  0.00    +0.000 A 
ATOM     25  S   UNL     1      48.066   7.455  20.210  0.00  0.00    +0.000 S 
ATOM     26  C   UNL     1      47.924   8.836  19.228  0.00  0.00    +0.000 A 
ATOM     27  N   UNL     1      47.549  10.031  19.757  0.00  0.00    +0.000 NA
ATOM     28  C   UNL     1      47.440  10.987  18.893  0.00  0.00    +0.000 A 
ATOM     29  N   UNL     1      47.684  10.854  17.551  0.00  0.00    +0.000 N 
ATOM     30  C   UNL     1      48.117   9.679  16.980  0.00  0.00    +0.000 A 
ATOM     31  O   UNL     1      48.409   9.617  15.790  0.00  0.00    +0.000 OA
ATOM     32  C   UNL     1      48.223   8.566  17.904  0.00  0.00    +0.000 A 
ATOM     33  H   UNL     1      47.598  11.648  16.931  0.00  0.00    +0.000 HD
ENDBRANCH  20  23
ENDBRANCH  18  19
ENDBRANCH   4  18
TORSDOF 7
ENDMDL
MODEL 3
REMARK VINA RESULT:    -7.660      3.287      4.603
REMARK INTER + INTRA:         -11.609
REMARK INTER:                 -10.786
REMARK INTRA:                  -0.822
REMARK UNBOUND:                -0.814
REMARK  Name = 
REMARK  8 active torsions:
REMARK  status: ('A' for Active; 'I' for Inactive)
REMARK    1  A    between atoms: C_1  and  O_2
REMARK    2  A    between atoms: O_2  and  C_3
REMARK    3  A    between atoms: C_7  and  N_8
REMARK    4  A    between atoms: N_8  and  C_9
REMARK    5  A    between atoms: C_9  and  C_10
REMARK    6  A    between atoms: C_13  and  C_14
REMARK    7  A    between atoms: C_14  and  N_15
REMARK    8  A    between atoms: C_16  and  C_18
REMARK                            x       y       z     vdW  Elec       q    Type
REMARK                         _______ _______ _______ _____ _____    ______ ____
ROOT
ATOM      1  C   UNL     1      47.448   5.574  13.900  0.00  0.00    +0.000 A 
ATOM      2  C   UNL     1      46.888   4.306  14.023  0.00  0.00    +0.000 A 
ATOM      3  N   UNL     1      46.983   3.557  15.151  0.00  0.00    +0.000 NA
ATOM      4  C   UNL     1      47.690   4.111  16.172  0.00  0.00    +0.000 A 
ATOM      5  C   UNL     1      48.250   5.378  16.049  0.00  0.00    +0.000 A 
ATOM      6  N   UNL     1      48.150   6.128  14.923  0.00  0.00    +0.000 NA
ENDROOT
BRANCH   1   7
ATOM      7  C   UNL     1      47.296   6.365  12.620  0.00  0.00    +0.000 C 
BRANCH   7   8
ATOM      8  N   UNL     1      45.890   6.579  12.308  0.00  0.00    +0.000 N 
ATOM      9  H   UNL     1      45.280   6.538  13.124  0.00  0.00    +0.000 HD
BRANCH   8  14
ATOM     10  C   UNL     1      45.490   4.892   9.210  0.00  0.00    +0.000 A 
ATOM     11  C   UNL     1      44.342   4.135   9.347  0.00  0.00    +0.000 A 
ATOM     12  C   UNL     1      43.641   4.233  10.538  0.00  0.00    +0.000 A 
ATOM     13  C   UNL     1      44.126   5.069  11.544  0.00  0.00    +0.000 A 
ATOM     14  C   UNL     1      45.293   5.797  11.330  0.00  0.00    +0.000 A 
ATOM     15  N   UNL     1      45.970   5.718  10.170  0.00  0.00    +0.000 NA
BRANCH  10  17
ATOM     16  C   UNL     1      45.980   3.471   7.418  0.00  0.00    +0.000 C 
ATOM     17  O   UNL     1      46.167   4.752   8.012  0.00  0.00    +0.000 OA
ENDBRANCH  10  17
ENDBRANCH   8  14
ENDBRANCH   7   8
ENDBRANCH   1   7
BRANCH   4  18
ATOM     18  C   UNL     1      47.857   3.315  17.444  0.00  0.00    +0.000 C 
BRANCH  18  19
ATOM     19  N   UNL     1      49.242   3.069  17.785  0.00  0.00    +0.000 N 
ATOM     20  C   UNL     1      50.037   2.231  17.050  0.00  0.00    +0.000 C 
ATOM     21  O   UNL     1      49.614   1.652  16.053  0.00  0.00    +0.000 OA
ATOM     22  H   UNL     1      49.587   3.482  18.645  0.00  0.00    +0.000 HD
BRANCH  20  23
ATOM     23  C   UNL     1      51.436   2.103  17.473  0.00  0.00    +0.000 A 
ATOM     24  C   UNL     1      51.992   0.841  17.629  0.00  0.00    +0.000 A 
ATOM     25  S   UNL     1      53.628   0.867  18.108  0.00  0.00    +0.000 S 
ATOM     26  C   UNL     1      53.638   2.567  18.170  0.00  0.00    +0.000 A 
ATOM     27  N   UNL     1      54.755   3.243  18.551  0.00  0.00    +0.000 NA
ATOM     28  C   UNL     1      54.612   4.527  18.596  0.00  0.00    +0.000 A 
ATOM     29  N   UNL     1      53.456   5.193  18.282  0.00  0.00    +0.000 N 
ATOM     30  C   UNL     1      52.319   4.555  17.841  0.00  0.00    +0.000 A 
ATOM     31  O   UNL     1      51.329   5.187  17.486  0.00  0.00    +0.000 OA
ATOM     32  C   UNL     1      52.418   3.109  17.806  0.00  0.00    +0.000 A 
ATOM     33  H   UNL     1      53.418   6.202  18.320  0.00  0.00    +0.000 HD
ENDBRANCH  20  23
ENDBRANCH  18  19
ENDBRANCH   4  18
TORSDOF 7
ENDMDL
MODEL 4
REMARK VINA RESULT:    -7.412      4.832      9.927
REMARK INTER + INTRA:         -11.259
REMARK INTER:                 -10.460
REMARK INTRA:                  -0.799
REMARK UNBOUND:                -0.814
REMARK  Name = 
REMARK  8 active torsions:
REMARK  status: ('A' for Active; 'I' for Inactive)
REMARK    1  A    between atoms: C_1  and  O_2
REMARK    2  A    between atoms: O_2  and  C_3
REMARK    3  A    between atoms: C_7  and  N_8
REMARK    4  A    between atoms: N_8  and  C_9
REMARK    5  A    between atoms: C_9  and  C_10
REMARK    6  A    between atoms: C_13  and  C_14
REMARK    7  A    between atoms: C_14  and  N_15
REMARK    8  A    between atoms: C_16  and  C_18
REMARK                            x       y       z     vdW  Elec       q    Type
REMARK                         _______ _______ _______ _____ _____    ______ ____
ROOT
ATOM      1  C   UNL     1      51.326   3.178  17.722  0.00  0.00    +0.000 A 
ATOM      2  C   UNL     1      50.657   2.152  17.060  0.00  0.00    +0.000 A 
ATOM      3  N   UNL     1      49.332   2.195  16.770  0.00  0.00    +0.000 NA
ATOM      4  C   UNL     1      48.669   3.305  17.189  0.00  0.00    +0.000 A 
ATOM      5  C   UNL     1      49.338   4.330  17.852  0.00  0.00    +0.000 A 
ATOM      6  N   UNL     1      50.663   4.288  18.137  0.00  0.00    +0.000 NA
ENDROOT
BRANCH   1   7
ATOM      7  C   UNL     1      52.809   3.077  18.005  0.00  0.00    +0.000 C 
BRANCH   7   8
ATOM      8  N   UNL     1      53.106   1.887  18.788  0.00  0.00    +0.000 N 
ATOM      9  H   UNL     1      53.548   2.087  19.685  0.00  0.00    +0.000 HD
BRANCH   8  14
ATOM     10  C   UNL     1      54.484  -1.354  18.333  0.00  0.00    +0.000 A 
ATOM     11  C   UNL     1      55.106  -1.321  17.099  0.00  0.00    +0.000 A 
ATOM     12  C   UNL     1      55.094  -0.124  16.401  0.00  0.00    +0.000 A 
ATOM     13  C   UNL     1      54.449   0.980  16.957  0.00  0.00    +0.000 A 
ATOM     14  C   UNL     1      53.844   0.866  18.205  0.00  0.00    +0.000 A 
ATOM     15  N   UNL     1      53.864  -0.290  18.895  0.00  0.00    +0.000 NA
BRANCH  10  17
ATOM     16  C   UNL     1      53.238  -2.930  19.530  0.00  0.00    +0.000 C 
ATOM     17  O   UNL     1      54.505  -2.571  18.988  0.00  0.00    +0.000 OA
ENDBRANCH  10  17
ENDBRANCH   8  14
ENDBRANCH   7   8
ENDBRANCH   1   7
BRANCH   4  18
ATOM     18  C   UNL     1      47.186   3.399  16.923  0.00  0.00    +0.000 C 
BRANCH  18  19
ATOM     19  N   UNL     1      46.847   4.399  15.933  0.00  0.00    +0.000 N 
ATOM     20  C   UNL     1      46.918   4.149  14.589  0.00  0.00    +0.000 C 
ATOM     21  O   UNL     1      47.265   3.054  14.155  0.00  0.00    +0.000 OA
ATOM     22  H   UNL     1      46.628   5.330  16.272  0.00  0.00    +0.000 HD
BRANCH  20  23
ATOM     23  C   UNL     1      46.503   5.231  13.690  0.00  0.00    +0.000 A 
ATOM     24  C   UNL     1      47.350   6.311  13.481  0.00  0.00    +0.000 A 
ATOM     25  S   UNL     1      46.727   7.470  12.398  0.00  0.00    +0.000 S 
ATOM     26  C   UNL     1      45.282   6.594  12.207  0.00  0.00    +0.000 A 
ATOM     27  N   UNL     1      44.282   7.064  11.414  0.00  0.00    +0.000 NA
ATOM     28  C   UNL     1      43.224   6.322  11.391  0.00  0.00    +0.000 A 
ATOM     29  N   UNL     1      43.084   5.147  12.083  0.00  0.00    +0.000 N 
ATOM     30  C   UNL     1      44.087   4.606  12.855  0.00  0.00    +0.000 A 
ATOM     31  O   UNL     1      43.960   3.510  13.391  0.00  0.00    +0.000 OA
ATOM     32  C   UNL     1      45.284   5.420  12.939  0.00  0.00    +0.000 A 
ATOM     33  H   UNL     1      42.235   4.603  12.007  0.00  0.00    +0.000 HD
ENDBRANCH  20  23
ENDBRANCH  18  19
ENDBRANCH   4  18
TORSDOF 7
ENDMDL
MODEL 5
REMARK VINA RESULT:    -7.355      4.936      9.712
REMARK INTER + INTRA:         -11.178
REMARK INTER:                 -10.263
REMARK INTRA:                  -0.916
REMARK UNBOUND:                -0.814
REMARK  Name = 
REMARK  8 active torsions:
REMARK  status: ('A' for Active; 'I' for Inactive)
REMARK    1  A    between atoms: C_1  and  O_2
REMARK    2  A    between atoms: O_2  and  C_3
REMARK    3  A    between atoms: C_7  and  N_8
REMARK    4  A    between atoms: N_8  and  C_9
REMARK    5  A    between atoms: C_9  and  C_10
REMARK    6  A    between atoms: C_13  and  C_14
REMARK    7  A    between atoms: C_14  and  N_15
REMARK    8  A    between atoms: C_16  and  C_18
REMARK                            x       y       z     vdW  Elec       q    Type
REMARK                         _______ _______ _______ _____ _____    ______ ____
ROOT
ATOM      1  C   UNL     1      50.734   2.381  17.438  0.00  0.00    +0.000 A 
ATOM      2  C   UNL     1      49.409   2.470  17.022  0.00  0.00    +0.000 A 
ATOM      3  N   UNL     1      48.785   3.650  16.776  0.00  0.00    +0.000 NA
ATOM      4  C   UNL     1      49.529   4.769  16.983  0.00  0.00    +0.000 A 
ATOM      5  C   UNL     1      50.853   4.679  17.399  0.00  0.00    +0.000 A 
ATOM      6  N   UNL     1      51.478   3.500  17.640  0.00  0.00    +0.000 NA
ENDROOT
BRANCH   1   7
ATOM      7  C   UNL     1      51.379   1.035  17.684  0.00  0.00    +0.000 C 
BRANCH   7   8
ATOM      8  N   UNL     1      52.690   1.194  18.297  0.00  0.00    +0.000 N 
ATOM      9  H   UNL     1      53.090   2.123  18.170  0.00  0.00    +0.000 HD
BRANCH   8  14
ATOM     10  C   UNL     1      54.691  -1.731  18.516  0.00  0.00    +0.000 A 
ATOM     11  C   UNL     1      55.508  -1.704  17.401  0.00  0.00    +0.000 A 
ATOM     12  C   UNL     1      55.405  -0.615  16.550  0.00  0.00    +0.000 A 
ATOM     13  C   UNL     1      54.482   0.389  16.841  0.00  0.00    +0.000 A 
ATOM     14  C   UNL     1      53.693   0.287  17.983  0.00  0.00    +0.000 A 
ATOM     15  N   UNL     1      53.798  -0.760  18.822  0.00  0.00    +0.000 NA
BRANCH  10  17
ATOM     16  C   UNL     1      53.603  -3.582  19.442  0.00  0.00    +0.000 C 
ATOM     17  O   UNL     1      54.814  -2.842  19.329  0.00  0.00    +0.000 OA
ENDBRANCH  10  17
ENDBRANCH   8  14
ENDBRANCH   7   8
ENDBRANCH   1   7
BRANCH   4  18
ATOM     18  C   UNL     1      48.882   6.113  16.754  0.00  0.00    +0.000 C 
BRANCH  18  19
ATOM     19  N   UNL     1      47.869   6.090  15.720  0.00  0.00    +0.000 N 
ATOM     20  C   UNL     1      48.157   6.371  14.411  0.00  0.00    +0.000 C 
ATOM     21  O   UNL     1      49.297   6.647  14.047  0.00  0.00    +0.000 OA
ATOM     22  H   UNL     1      46.910   5.936  16.014  0.00  0.00    +0.000 HD
BRANCH  20  23
ATOM     23  C   UNL     1      47.051   6.269  13.453  0.00  0.00    +0.000 A 
ATOM     24  C   UNL     1      46.539   7.421  12.872  0.00  0.00    +0.000 A 
ATOM     25  S   UNL     1      45.272   7.128  11.770  0.00  0.00    +0.000 S 
ATOM     26  C   UNL     1      45.330   5.454  12.066  0.00  0.00    +0.000 A 
ATOM     27  N   UNL     1      44.464   4.607  11.448  0.00  0.00    +0.000 NA
ATOM     28  C   UNL     1      44.589   3.368  11.795  0.00  0.00    +0.000 A 
ATOM     29  N   UNL     1      45.511   2.902  12.696  0.00  0.00    +0.000 N 
ATOM     30  C   UNL     1      46.441   3.713  13.305  0.00  0.00    +0.000 A 
ATOM     31  O   UNL     1      47.307   3.251  14.041  0.00  0.00    +0.000 OA
ATOM     32  C   UNL     1      46.320   5.120  12.973  0.00  0.00    +0.000 A 
ATOM     33  H   UNL     1      45.568   1.916  12.909  0.00  0.00    +0.000 HD
ENDBRANCH  20  23
ENDBRANCH  18  19
ENDBRANCH   4  18
TORSDOF 7
ENDMDL
MODEL 6
REMARK VINA RESULT:    -7.337      3.617      8.758
REMARK INTER + INTRA:         -11.153
REMARK INTER:                 -10.320
REMARK INTRA:                  -0.832
REMARK UNBOUND:                -0.814
REMARK  Name = 
REMARK  8 active torsions:
REMARK  status: ('A' for Active; 'I' for Inactive)
REMARK    1  A    between atoms: C_1  and  O_2
REMARK    2  A    between atoms: O_2  and  C_3
REMARK    3  A    between atoms: C_7  and  N_8
REMARK    4  A    between atoms: N_8  and  C_9
REMARK    5  A    between atoms: C_9  and  C_10
REMARK    6  A    between atoms: C_13  and  C_14
REMARK    7  A    between atoms: C_14  and  N_15
REMARK    8  A    between atoms: C_16  and  C_18
REMARK                            x       y       z     vdW  Elec       q    Type
REMARK                         _______ _______ _______ _____ _____    ______ ____
ROOT
ATOM      1  C   UNL     1      49.844   6.604  16.474  0.00  0.00    +0.000 A 
ATOM      2  C   UNL     1      50.648   7.389  15.652  0.00  0.00    +0.000 A 
ATOM      3  N   UNL     1      50.284   7.769  14.400  0.00  0.00    +0.000 NA
ATOM      4  C   UNL     1      49.077   7.314  13.970  0.00  0.00    +0.000 A 
ATOM      5  C   UNL     1      48.275   6.528  14.792  0.00  0.00    +0.000 A 
ATOM      6  N   UNL     1      48.637   6.153  16.044  0.00  0.00    +0.000 NA
ENDROOT
BRANCH   1   7
ATOM      7  C   UNL     1      50.300   6.224  17.865  0.00  0.00    +0.000 C 
BRANCH   7   8
ATOM      8  N   UNL     1      51.582   5.535  17.820  0.00  0.00    +0.000 N 
ATOM      9  H   UNL     1      52.196   5.862  17.075  0.00  0.00    +0.000 HD
BRANCH   8  14
ATOM     10  C   UNL     1      50.562   2.251  16.934  0.00  0.00    +0.000 A 
ATOM     11  C   UNL     1      51.568   1.417  17.386  0.00  0.00    +0.000 A 
ATOM     12  C   UNL     1      52.629   1.994  18.065  0.00  0.00    +0.000 A 
ATOM     13  C   UNL     1      52.647   3.376  18.248  0.00  0.00    +0.000 A 
ATOM     14  C   UNL     1      51.597   4.148  17.760  0.00  0.00    +0.000 A 
ATOM     15  N   UNL     1      50.556   3.593  17.112  0.00  0.00    +0.000 NA
BRANCH  10  17
ATOM     16  C   UNL     1      48.286   2.312  16.399  0.00  0.00    +0.000 C 
ATOM     17  O   UNL     1      49.531   1.637  16.247  0.00  0.00    +0.000 OA
ENDBRANCH  10  17
ENDBRANCH   8  14
ENDBRANCH   7   8
ENDBRANCH   1   7
BRANCH   4  18
ATOM     18  C   UNL     1      48.629   7.677  12.576  0.00  0.00    +0.000 C 
BRANCH  18  19
ATOM     19  N   UNL     1      47.814   6.655  11.954  0.00  0.00    +0.000 N 
ATOM     20  C   UNL     1      46.504   6.870  11.618  0.00  0.00    +0.000 C 
ATOM     21  O   UNL     1      45.957   7.951  11.818  0.00  0.00    +0.000 OA
ATOM     22  H   UNL     1      48.228   5.734  11.848  0.00  0.00    +0.000 HD
BRANCH  20  23
ATOM     23  C   UNL     1      45.801   5.768  10.951  0.00  0.00    +0.000 A 
ATOM     24  C   UNL     1      45.860   5.656   9.569  0.00  0.00    +0.000 A 
ATOM     25  S   UNL     1      45.006   4.315   8.954  0.00  0.00    +0.000 S 
ATOM     26  C   UNL     1      44.487   3.864  10.510  0.00  0.00    +0.000 A 
ATOM     27  N   UNL     1      43.676   2.787  10.688  0.00  0.00    +0.000 NA
ATOM     28  C   UNL     1      43.324   2.582  11.915  0.00  0.00    +0.000 A 
ATOM     29  N   UNL     1      43.720   3.352  12.978  0.00  0.00    +0.000 N 
ATOM     30  C   UNL     1      44.582   4.417  12.852  0.00  0.00    +0.000 A 
ATOM     31  O   UNL     1      44.984   5.033  13.834  0.00  0.00    +0.000 OA
ATOM     32  C   UNL     1      44.980   4.709  11.488  0.00  0.00    +0.000 A 
ATOM     33  H   UNL     1      43.422   3.125  13.917  0.00  0.00    +0.000 HD
ENDBRANCH  20  23
ENDBRANCH  18  19
ENDBRANCH   4  18
TORSDOF 7
ENDMDL
MODEL 7
REMARK VINA RESULT:    -7.013      2.908      8.826
REMARK INTER + INTRA:         -10.697
REMARK INTER:                  -9.795
REMARK INTRA:                  -0.902
REMARK UNBOUND:                -0.814
REMARK  Name = 
REMARK  8 active torsions:
REMARK  status: ('A' for Active; 'I' for Inactive)
REMARK    1  A    between atoms: C_1  and  O_2
REMARK    2  A    between atoms: O_2  and  C_3
REMARK    3  A    between atoms: C_7  and  N_8
REMARK    4  A    between atoms: N_8  and  C_9
REMARK    5  A    between atoms: C_9  and  C_10
REMARK    6  A    between atoms: C_13  and  C_14
REMARK    7  A    between atoms: C_14  and  N_15
REMARK    8  A    between atoms: C_16  and  C_18
REMARK                            x       y       z     vdW  Elec       q    Type
REMARK                         _______ _______ _______ _____ _____    ______ ____
ROOT
ATOM      1  C   UNL     1      49.405   7.946  15.813  0.00  0.00    +0.000 A 
ATOM      2  C   UNL     1      48.367   8.831  15.536  0.00  0.00    +0.000 A 
ATOM      3  N   UNL     1      47.675   8.823  14.368  0.00  0.00    +0.000 NA
ATOM      4  C   UNL     1      48.071   7.901  13.451  0.00  0.00    +0.000 A 
ATOM      5  C   UNL     1      49.108   7.016  13.729  0.00  0.00    +0.000 A 
ATOM      6  N   UNL     1      49.796   7.022  14.897  0.00  0.00    +0.000 NA
ENDROOT
BRANCH   1   7
ATOM      7  C   UNL     1      50.130   7.997  17.140  0.00  0.00    +0.000 C 
BRANCH   7   8
ATOM      8  N   UNL     1      49.472   7.147  18.121  0.00  0.00    +0.000 N 
ATOM      9  H   UNL     1      49.878   7.210  19.054  0.00  0.00    +0.000 HD
BRANCH   8  14
ATOM     10  C   UNL     1      48.011   4.169  16.855  0.00  0.00    +0.000 A 
ATOM     11  C   UNL     1      48.952   3.178  17.063  0.00  0.00    +0.000 A 
ATOM     12  C   UNL     1      50.128   3.528  17.706  0.00  0.00    +0.000 A 
ATOM     13  C   UNL     1      50.320   4.854  18.096  0.00  0.00    +0.000 A 
ATOM     14  C   UNL     1      49.325   5.794  17.848  0.00  0.00    +0.000 A 
ATOM     15  N   UNL     1      48.174   5.457  17.237  0.00  0.00    +0.000 NA
BRANCH  10  17
ATOM     16  C   UNL     1      46.892   4.074  14.803  0.00  0.00    +0.000 C 
ATOM     17  O   UNL     1      46.859   3.780  16.196  0.00  0.00    +0.000 OA
ENDBRANCH  10  17
ENDBRANCH   8  14
ENDBRANCH   7   8
ENDBRANCH   1   7
BRANCH   4  18
ATOM     18  C   UNL     1      47.359   7.861  12.120  0.00  0.00    +0.000 C 
BRANCH  18  19
ATOM     19  N   UNL     1      46.690   6.602  11.869  0.00  0.00    +0.000 N 
ATOM     20  C   UNL     1      45.329   6.510  11.752  0.00  0.00    +0.000 C 
ATOM     21  O   UNL     1      44.606   7.498  11.844  0.00  0.00    +0.000 OA
ATOM     22  H   UNL     1      47.265   5.766  11.863  0.00  0.00    +0.000 HD
BRANCH  20  23
ATOM     23  C   UNL     1      44.778   5.184  11.452  0.00  0.00    +0.000 A 
ATOM     24  C   UNL     1      44.018   4.525  12.408  0.00  0.00    +0.000 A 
ATOM     25  S   UNL     1      43.438   3.006  11.896  0.00  0.00    +0.000 S 
ATOM     26  C   UNL     1      44.223   3.154  10.394  0.00  0.00    +0.000 A 
ATOM     27  N   UNL     1      44.154   2.157   9.472  0.00  0.00    +0.000 NA
ATOM     28  C   UNL     1      44.830   2.380   8.393  0.00  0.00    +0.000 A 
ATOM     29  N   UNL     1      45.557   3.516   8.151  0.00  0.00    +0.000 N 
ATOM     30  C   UNL     1      45.612   4.573   9.031  0.00  0.00    +0.000 A 
ATOM     31  O   UNL     1      46.202   5.611   8.748  0.00  0.00    +0.000 OA
ATOM     32  C   UNL     1      44.896   4.357  10.274  0.00  0.00    +0.000 A 
ATOM     33  H   UNL     1      46.049   3.637   7.276  0.00  0.00    +0.000 HD
ENDBRANCH  20  23
ENDBRANCH  18  19
ENDBRANCH   4  18
TORSDOF 7
ENDMDL
MODEL 8
REMARK VINA RESULT:    -6.958      3.442      4.751
REMARK INTER + INTRA:         -10.619
REMARK INTER:                  -9.791
REMARK INTRA:                  -0.828
REMARK UNBOUND:                -0.814
REMARK  Name = 
REMARK  8 active torsions:
REMARK  status: ('A' for Active; 'I' for Inactive)
REMARK    1  A    between atoms: C_1  and  O_2
REMARK    2  A    between atoms: O_2  and  C_3
REMARK    3  A    between atoms: C_7  and  N_8
REMARK    4  A    between atoms: N_8  and  C_9
REMARK    5  A    between atoms: C_9  and  C_10
REMARK    6  A    between atoms: C_13  and  C_14
REMARK    7  A    between atoms: C_14  and  N_15
REMARK    8  A    between atoms: C_16  and  C_18
REMARK                            x       y       z     vdW  Elec       q    Type
REMARK                         _______ _______ _______ _____ _____    ______ ____
ROOT
ATOM      1  C   UNL     1      47.495   5.236  14.583  0.00  0.00    +0.000 A 
ATOM      2  C   UNL     1      48.218   6.141  15.353  0.00  0.00    +0.000 A 
ATOM      3  N   UNL     1      48.614   5.885  16.626  0.00  0.00    +0.000 NA
ATOM      4  C   UNL     1      48.239   4.681  17.133  0.00  0.00    +0.000 A 
ATOM      5  C   UNL     1      47.515   3.776  16.362  0.00  0.00    +0.000 A 
ATOM      6  N   UNL     1      47.124   4.031  15.089  0.00  0.00    +0.000 NA
ENDROOT
BRANCH   1   7
ATOM      7  C   UNL     1      47.094   5.574  13.164  0.00  0.00    +0.000 C 
BRANCH   7   8
ATOM      8  N   UNL     1      45.649   5.509  13.006  0.00  0.00    +0.000 N 
ATOM      9  H   UNL     1      45.159   5.197  13.844  0.00  0.00    +0.000 HD
BRANCH   8  14
ATOM     10  C   UNL     1      45.163   4.405   9.666  0.00  0.00    +0.000 A 
ATOM     11  C   UNL     1      44.318   3.315   9.756  0.00  0.00    +0.000 A 
ATOM     12  C   UNL     1      43.853   2.960  11.012  0.00  0.00    +0.000 A 
ATOM     13  C   UNL     1      44.265   3.697  12.122  0.00  0.00    +0.000 A 
ATOM     14  C   UNL     1      45.121   4.780  11.949  0.00  0.00    +0.000 A 
ATOM     15  N   UNL     1      45.564   5.140  10.730  0.00  0.00    +0.000 NA
BRANCH  10  17
ATOM     16  C   UNL     1      45.777   3.566   7.571  0.00  0.00    +0.000 C 
ATOM     17  O   UNL     1      45.616   4.715   8.397  0.00  0.00    +0.000 OA
ENDBRANCH  10  17
ENDBRANCH   8  14
ENDBRANCH   7   8
ENDBRANCH   1   7
BRANCH   4  18
ATOM     18  C   UNL     1      48.623   4.349  18.554  0.00  0.00    +0.000 C 
BRANCH  18  19
ATOM     19  N   UNL     1      49.897   3.670  18.657  0.00  0.00    +0.000 N 
ATOM     20  C   UNL     1      51.085   4.349  18.692  0.00  0.00    +0.000 C 
ATOM     21  O   UNL     1      51.127   5.576  18.650  0.00  0.00    +0.000 OA
ATOM     22  H   UNL     1      49.885   2.656  18.620  0.00  0.00    +0.000 HD
BRANCH  20  23
ATOM     23  C   UNL     1      52.304   3.546  18.845  0.00  0.00    +0.000 A 
ATOM     24  C   UNL     1      53.348   4.029  19.621  0.00  0.00    +0.000 A 
ATOM     25  S   UNL     1      54.681   2.970  19.709  0.00  0.00    +0.000 S 
ATOM     26  C   UNL     1      53.929   1.850  18.674  0.00  0.00    +0.000 A 
ATOM     27  N   UNL     1      54.563   0.703  18.310  0.00  0.00    +0.000 NA
ATOM     28  C   UNL     1      53.895  -0.038  17.487  0.00  0.00    +0.000 A 
ATOM     29  N   UNL     1      52.647   0.263  17.007  0.00  0.00    +0.000 N 
ATOM     30  C   UNL     1      51.946   1.383  17.389  0.00  0.00    +0.000 A 
ATOM     31  O   UNL     1      50.796   1.579  17.007  0.00  0.00    +0.000 OA
ATOM     32  C   UNL     1      52.667   2.265  18.287  0.00  0.00    +0.000 A 
ATOM     33  H   UNL     1      52.171  -0.371  16.379  0.00  0.00    +0.000 HD
ENDBRANCH  20  23
ENDBRANCH  18  19
ENDBRANCH   4  18
TORSDOF 7
ENDMDL
MODEL 9
REMARK VINA RESULT:    -6.921      3.530      5.541
REMARK INTER + INTRA:         -10.567
REMARK INTER:                  -9.479
REMARK INTRA:                  -1.088
REMARK UNBOUND:                -0.814
REMARK  Name = 
REMARK  8 active torsions:
REMARK  status: ('A' for Active; 'I' for Inactive)
REMARK    1  A    between atoms: C_1  and  O_2
REMARK    2  A    between atoms: O_2  and  C_3
REMARK    3  A    between atoms: C_7  and  N_8
REMARK    4  A    between atoms: N_8  and  C_9
REMARK    5  A    between atoms: C_9  and  C_10
REMARK    6  A    between atoms: C_13  and  C_14
REMARK    7  A    between atoms: C_14  and  N_15
REMARK    8  A    between atoms: C_16  and  C_18
REMARK                            x       y       z     vdW  Elec       q    Type
REMARK                         _______ _______ _______ _____ _____    ______ ____
ROOT
ATOM      1  C   UNL     1      44.791   5.333  12.127  0.00  0.00    +0.000 A 
ATOM      2  C   UNL     1      45.569   6.442  11.806  0.00  0.00    +0.000 A 
ATOM      3  N   UNL     1      46.712   6.763  12.464  0.00  0.00    +0.000 NA
ATOM      4  C   UNL     1      47.056   5.941  13.491  0.00  0.00    +0.000 A 
ATOM      5  C   UNL     1      46.278   4.833  13.811  0.00  0.00    +0.000 A 
ATOM      6  N   UNL     1      45.138   4.510  13.150  0.00  0.00    +0.000 NA
ENDROOT
BRANCH   1   7
ATOM      7  C   UNL     1      43.533   5.020  11.347  0.00  0.00    +0.000 C 
BRANCH   7   8
ATOM      8  N   UNL     1      43.774   5.117   9.915  0.00  0.00    +0.000 N 
ATOM      9  H   UNL     1      42.937   5.326   9.372  0.00  0.00    +0.000 HD
BRANCH   8  14
ATOM     10  C   UNL     1      45.888   3.455   7.597  0.00  0.00    +0.000 A 
ATOM     11  C   UNL     1      45.890   2.128   7.984  0.00  0.00    +0.000 A 
ATOM     12  C   UNL     1      45.099   1.768   9.063  0.00  0.00    +0.000 A 
ATOM     13  C   UNL     1      44.356   2.751   9.717  0.00  0.00    +0.000 A 
ATOM     14  C   UNL     1      44.410   4.067   9.268  0.00  0.00    +0.000 A 
ATOM     15  N   UNL     1      45.164   4.420   8.211  0.00  0.00    +0.000 NA
BRANCH  10  17
ATOM     16  C   UNL     1      47.652   2.753   6.231  0.00  0.00    +0.000 C 
ATOM     17  O   UNL     1      46.703   3.773   6.526  0.00  0.00    +0.000 OA
ENDBRANCH  10  17
ENDBRANCH   8  14
ENDBRANCH   7   8
ENDBRANCH   1   7
BRANCH   4  18
ATOM     18  C   UNL     1      48.302   6.261  14.281  0.00  0.00    +0.000 C 
BRANCH  18  19
ATOM     19  N   UNL     1      49.266   7.039  13.533  0.00  0.00    +0.000 N 
ATOM     20  C   UNL     1      50.108   7.934  14.137  0.00  0.00    +0.000 C 
ATOM     21  O   UNL     1      50.094   8.113  15.352  0.00  0.00    +0.000 OA
ATOM     22  H   UNL     1      49.243   6.958  12.522  0.00  0.00    +0.000 HD
BRANCH  20  23
ATOM     23  C   UNL     1      51.072   8.626  13.274  0.00  0.00    +0.000 A 
ATOM     24  C   UNL     1      52.432   8.466  13.501  0.00  0.00    +0.000 A 
ATOM     25  S   UNL     1      53.414   9.321  12.401  0.00  0.00    +0.000 S 
ATOM     26  C   UNL     1      52.056   9.974  11.612  0.00  0.00    +0.000 A 
ATOM     27  N   UNL     1      52.204  10.837  10.572  0.00  0.00    +0.000 NA
ATOM     28  C   UNL     1      51.091  11.290  10.092  0.00  0.00    +0.000 A 
ATOM     29  N   UNL     1      49.848  10.947  10.555  0.00  0.00    +0.000 N 
ATOM     30  C   UNL     1      49.649  10.038  11.569  0.00  0.00    +0.000 A 
ATOM     31  O   UNL     1      48.521   9.688  11.901  0.00  0.00    +0.000 OA
ATOM     32  C   UNL     1      50.869   9.526  12.163  0.00  0.00    +0.000 A 
ATOM     33  H   UNL     1      49.016  11.324  10.122  0.00  0.00    +0.000 HD
ENDBRANCH  20  23
ENDBRANCH  18  19
ENDBRANCH   4  18
TORSDOF 7
ENDMDL
