MODEL 1
REMARK VINA RESULT:    -6.395      0.000      0.000
REMARK INTER + INTRA:         -10.399
REMARK INTER:                  -9.012
REMARK INTRA:                  -1.387
REMARK UNBOUND:                -1.387
REMARK  Name = 
REMARK  9 active torsions:
REMARK  status: ('A' for Active; 'I' for Inactive)
REMARK    1  A    between atoms: C_1  and  N_2
REMARK    2  A    between atoms: N_2  and  C_3
REMARK    3  A    between atoms: N_2  and  C_4
REMARK    4  A    between atoms: C_4  and  C_5
REMARK    5  A    between atoms: C_8  and  C_9
REMARK    6  A    between atoms: C_9  and  C_10
REMARK    7  A    between atoms: C_13  and  C_14
REMARK    8  A    between atoms: C_14  and  N_15
REMARK    9  A    between atoms: C_16  and  C_18
REMARK                            x       y       z     vdW  Elec       q    Type
REMARK                         _______ _______ _______ _____ _____    ______ ____
ROOT
ATOM      1  C   UNL     1      49.565   8.756  15.573  0.00  0.00    +0.000 A 
ATOM      2  C   UNL     1      49.920   7.577  14.926  0.00  0.00    +0.000 A 
ATOM      3  C   UNL     1      49.381   7.311  13.667  0.00  0.00    +0.000 A 
ATOM      4  C   UNL     1      48.481   8.210  13.092  0.00  0.00    +0.000 A 
ATOM      5  C   UNL     1      48.171   9.349  13.821  0.00  0.00    +0.000 A 
ATOM      6  N   UNL     1      48.691   9.640  15.037  0.00  0.00    +0.000 NA
ENDROOT
BRANCH   1   7
ATOM      7  C   UNL     1      50.198   9.130  16.892  0.00  0.00    +0.000 C 
BRANCH   7  11
ATOM      8  C   UNL     1      49.051   5.447  19.003  0.00  0.00    +0.000 C 
ATOM      9  C   UNL     1      50.455   6.018  19.253  0.00  0.00    +0.000 C 
ATOM     10  C   UNL     1      50.872   7.041  18.197  0.00  0.00    +0.000 C 
ATOM     11  C   UNL     1      49.866   8.198  18.076  0.00  0.00    +0.000 C 
ATOM     12  C   UNL     1      48.424   7.676  17.910  0.00  0.00    +0.000 C 
ATOM     13  C   UNL     1      48.045   6.607  18.934  0.00  0.00    +0.000 C 
BRANCH   8  14
ATOM     14  C   UNL     1      48.969   4.548  17.740  0.00  0.00    +0.000 C 
BRANCH  14  16
ATOM     15  C   UNL     1      47.403   4.433  15.870  0.00  0.00    +0.000 C 
ATOM     16  N   UNL     1      47.597   4.224  17.304  0.00  0.00    +0.000 NA
ATOM     17  C   UNL     1      47.271   2.837  17.649  0.00  0.00    +0.000 C 
ENDBRANCH  14  16
ENDBRANCH   8  14
ENDBRANCH   7  11
ENDBRANCH   1   7
BRANCH   4  18
ATOM     18  C   UNL     1      47.918   7.986  11.718  0.00  0.00    +0.000 C 
BRANCH  18  19
ATOM     19  N   UNL     1      47.174   6.751  11.650  0.00  0.00    +0.000 N 
ATOM     20  C   UNL     1      45.808   6.740  11.776  0.00  0.00    +0.000 C 
ATOM     21  O   UNL     1      45.162   7.775  11.921  0.00  0.00    +0.000 OA
ATOM     22  H   UNL     1      47.692   5.884  11.757  0.00  0.00    +0.000 HD
BRANCH  20  23
ATOM     23  C   UNL     1      45.145   5.434  11.662  0.00  0.00    +0.000 A 
ATOM     24  C   UNL     1      44.497   4.894  12.766  0.00  0.00    +0.000 A 
ATOM     25  S   UNL     1      43.722   3.409  12.449  0.00  0.00    +0.000 S 
ATOM     26  C   UNL     1      44.270   3.405  10.839  0.00  0.00    +0.000 A 
ATOM     27  N   UNL     1      43.967   2.379  10.000  0.00  0.00    +0.000 NA
ATOM     28  C   UNL     1      44.477   2.489   8.817  0.00  0.00    +0.000 A 
ATOM     29  N   UNL     1      45.263   3.530   8.400  0.00  0.00    +0.000 N 
ATOM     30  C   UNL     1      45.570   4.603   9.202  0.00  0.00    +0.000 A 
ATOM     31  O   UNL     1      46.244   5.540   8.786  0.00  0.00    +0.000 OA
ATOM     32  C   UNL     1      45.026   4.527  10.545  0.00  0.00    +0.000 A 
ATOM     33  H   UNL     1      45.627   3.558   7.459  0.00  0.00    +0.000 HD
ENDBRANCH  20  23
ENDBRANCH  18  19
ENDBRANCH   4  18
TORSDOF 7
ENDMDL
MODEL 2
REMARK VINA RESULT:    -6.379      4.598      9.294
REMARK INTER + INTRA:         -10.376
REMARK INTER:                  -9.781
REMARK INTRA:                  -0.595
REMARK UNBOUND:                -1.387
REMARK  Name = 
REMARK  9 active torsions:
REMARK  status: ('A' for Active; 'I' for Inactive)
REMARK    1  A    between atoms: C_1  and  N_2
REMARK    2  A    between atoms: N_2  and  C_3
REMARK    3  A    between atoms: N_2  and  C_4
REMARK    4  A    between atoms: C_4  and  C_5
REMARK    5  A    between atoms: C_8  and  C_9
REMARK    6  A    between atoms: C_9  and  C_10
REMARK    7  A    between atoms: C_13  and  C_14
REMARK    8  A    between atoms: C_14  and  N_15
REMARK    9  A    between atoms: C_16  and  C_18
REMARK                            x       y       z     vdW  Elec       q    Type
REMARK                         _______ _______ _______ _____ _____    ______ ____
ROOT
ATOM      1  C   UNL     1      47.278   4.382  15.157  0.00  0.00    +0.000 A 
ATOM      2  C   UNL     1      47.963   5.557  15.449  0.00  0.00    +0.000 A 
ATOM      3  C   UNL     1      48.539   5.704  16.712  0.00  0.00    +0.000 A 
ATOM      4  C   UNL     1      48.397   4.693  17.663  0.00  0.00    +0.000 A 
ATOM      5  C   UNL     1      47.678   3.567  17.288  0.00  0.00    +0.000 A 
ATOM      6  N   UNL     1      47.123   3.390  16.065  0.00  0.00    +0.000 NA
ENDROOT
BRANCH   1   7
ATOM      7  C   UNL     1      46.723   4.139  13.774  0.00  0.00    +0.000 C 
BRANCH   7  11
ATOM      8  C   UNL     1      43.539   5.822  11.252  0.00  0.00    +0.000 C 
ATOM      9  C   UNL     1      43.160   5.302  12.646  0.00  0.00    +0.000 C 
ATOM     10  C   UNL     1      44.237   4.405  13.254  0.00  0.00    +0.000 C 
ATOM     11  C   UNL     1      45.606   5.105  13.327  0.00  0.00    +0.000 C 
ATOM     12  C   UNL     1      45.995   5.722  11.969  0.00  0.00    +0.000 C 
ATOM     13  C   UNL     1      44.883   6.564  11.344  0.00  0.00    +0.000 C 
BRANCH   8  14
ATOM     14  C   UNL     1      43.577   4.711  10.169  0.00  0.00    +0.000 C 
BRANCH  14  16
ATOM     15  C   UNL     1      44.946   2.690  10.234  0.00  0.00    +0.000 C 
ATOM     16  N   UNL     1      44.909   4.121   9.938  0.00  0.00    +0.000 NA
ATOM     17  C   UNL     1      45.329   4.350   8.552  0.00  0.00    +0.000 C 
ENDBRANCH  14  16
ENDBRANCH   8  14
ENDBRANCH   7  11
ENDBRANCH   1   7
BRANCH   4  18
ATOM     18  C   UNL     1      49.044   4.791  19.014  0.00  0.00    +0.000 C 
BRANCH  18  19
ATOM     19  N   UNL     1      50.245   3.994  19.081  0.00  0.00    +0.000 N 
ATOM     20  C   UNL     1      51.473   4.539  18.808  0.00  0.00    +0.000 C 
ATOM     21  O   UNL     1      51.606   5.728  18.529  0.00  0.00    +0.000 OA
ATOM     22  H   UNL     1      50.137   2.983  19.085  0.00  0.00    +0.000 HD
BRANCH  20  23
ATOM     23  C   UNL     1      52.635   3.649  18.933  0.00  0.00    +0.000 A 
ATOM     24  C   UNL     1      53.740   4.061  19.667  0.00  0.00    +0.000 A 
ATOM     25  S   UNL     1      54.972   2.886  19.772  0.00  0.00    +0.000 S 
ATOM     26  C   UNL     1      54.097   1.805  18.792  0.00  0.00    +0.000 A 
ATOM     27  N   UNL     1      54.608   0.587  18.468  0.00  0.00    +0.000 NA
ATOM     28  C   UNL     1      53.853  -0.118  17.691  0.00  0.00    +0.000 A 
ATOM     29  N   UNL     1      52.636   0.286  17.208  0.00  0.00    +0.000 N 
ATOM     30  C   UNL     1      52.068   1.495  17.532  0.00  0.00    +0.000 A 
ATOM     31  O   UNL     1      50.958   1.812  17.115  0.00  0.00    +0.000 OA
ATOM     32  C   UNL     1      52.878   2.328  18.400  0.00  0.00    +0.000 A 
ATOM     33  H   UNL     1      52.093  -0.315  16.607  0.00  0.00    +0.000 HD
ENDBRANCH  20  23
ENDBRANCH  18  19
ENDBRANCH   4  18
TORSDOF 7
ENDMDL
MODEL 3
REMARK VINA RESULT:    -6.192      4.209      8.722
REMARK INTER + INTRA:         -10.113
REMARK INTER:                  -9.517
REMARK INTRA:                  -0.596
REMARK UNBOUND:                -1.387
REMARK  Name = 
REMARK  9 active torsions:
REMARK  status: ('A' for Active; 'I' for Inactive)
REMARK    1  A    between atoms: C_1  and  N_2
REMARK    2  A    between atoms: N_2  and  C_3
REMARK    3  A    between atoms: N_2  and  C_4
REMARK    4  A    between atoms: C_4  and  C_5
REMARK    5  A    between atoms: C_8  and  C_9
REMARK    6  A    between atoms: C_9  and  C_10
REMARK    7  A    between atoms: C_13  and  C_14
REMARK    8  A    between atoms: C_14  and  N_15
REMARK    9  A    between atoms: C_16  and  C_18
REMARK                            x       y       z     vdW  Elec       q    Type
REMARK                         _______ _______ _______ _____ _____    ______ ____
ROOT
ATOM      1  C   UNL     1      47.858   6.224  14.213  0.00  0.00    +0.000 A 
ATOM      2  C   UNL     1      48.521   7.433  14.402  0.00  0.00    +0.000 A 
ATOM      3  C   UNL     1      49.189   7.653  15.608  0.00  0.00    +0.000 A 
ATOM      4  C   UNL     1      49.158   6.680  16.607  0.00  0.00    +0.000 A 
ATOM      5  C   UNL     1      48.454   5.515  16.336  0.00  0.00    +0.000 A 
ATOM      6  N   UNL     1      47.812   5.267  15.170  0.00  0.00    +0.000 NA
ENDROOT
BRANCH   1   7
ATOM      7  C   UNL     1      47.206   5.905  12.890  0.00  0.00    +0.000 C 
BRANCH   7  11
ATOM      8  C   UNL     1      43.398   4.195  11.508  0.00  0.00    +0.000 C 
ATOM      9  C   UNL     1      44.353   3.290  12.300  0.00  0.00    +0.000 C 
ATOM     10  C   UNL     1      45.771   3.855  12.379  0.00  0.00    +0.000 C 
ATOM     11  C   UNL     1      45.801   5.273  12.976  0.00  0.00    +0.000 C 
ATOM     12  C   UNL     1      44.793   6.202  12.271  0.00  0.00    +0.000 C 
ATOM     13  C   UNL     1      43.396   5.596  12.143  0.00  0.00    +0.000 C 
BRANCH   8  14
ATOM     14  C   UNL     1      43.724   4.259   9.993  0.00  0.00    +0.000 C 
BRANCH  14  16
ATOM     15  C   UNL     1      44.445   2.082   9.155  0.00  0.00    +0.000 C 
ATOM     16  N   UNL     1      44.862   3.420   9.571  0.00  0.00    +0.000 NA
ATOM     17  C   UNL     1      45.595   4.071   8.481  0.00  0.00    +0.000 C 
ENDBRANCH  14  16
ENDBRANCH   8  14
ENDBRANCH   7  11
ENDBRANCH   1   7
BRANCH   4  18
ATOM     18  C   UNL     1      49.905   6.857  17.897  0.00  0.00    +0.000 C 
BRANCH  18  19
ATOM     19  N   UNL     1      50.749   5.720  18.176  0.00  0.00    +0.000 N 
ATOM     20  C   UNL     1      51.953   5.558  17.538  0.00  0.00    +0.000 C 
ATOM     21  O   UNL     1      52.375   6.384  16.732  0.00  0.00    +0.000 OA
ATOM     22  H   UNL     1      50.329   4.929  18.655  0.00  0.00    +0.000 HD
BRANCH  20  23
ATOM     23  C   UNL     1      52.749   4.383  17.916  0.00  0.00    +0.000 A 
ATOM     24  C   UNL     1      54.040   4.554  18.399  0.00  0.00    +0.000 A 
ATOM     25  S   UNL     1      54.801   3.097  18.855  0.00  0.00    +0.000 S 
ATOM     26  C   UNL     1      53.453   2.179  18.371  0.00  0.00    +0.000 A 
ATOM     27  N   UNL     1      53.457   0.824  18.480  0.00  0.00    +0.000 NA
ATOM     28  C   UNL     1      52.382   0.252  18.043  0.00  0.00    +0.000 A 
ATOM     29  N   UNL     1      51.308   0.912  17.509  0.00  0.00    +0.000 N 
ATOM     30  C   UNL     1      51.248   2.282  17.407  0.00  0.00    +0.000 A 
ATOM     31  O   UNL     1      50.255   2.847  16.960  0.00  0.00    +0.000 OA
ATOM     32  C   UNL     1      52.433   2.973  17.879  0.00  0.00    +0.000 A 
ATOM     33  H   UNL     1      50.496   0.405  17.190  0.00  0.00    +0.000 HD
ENDBRANCH  20  23
ENDBRANCH  18  19
ENDBRANCH   4  18
TORSDOF 7
ENDMDL
MODEL 4
REMARK VINA RESULT:    -6.161      2.771      5.014
REMARK INTER + INTRA:         -10.070
REMARK INTER:                  -9.005
REMARK INTRA:                  -1.065
REMARK UNBOUND:                -1.387
REMARK  Name = 
REMARK  9 active torsions:
REMARK  status: ('A' for Active; 'I' for Inactive)
REMARK    1  A    between atoms: C_1  and  N_2
REMARK    2  A    between atoms: N_2  and  C_3
REMARK    3  A    between atoms: N_2  and  C_4
REMARK    4  A    between atoms: C_4  and  C_5
REMARK    5  A    between atoms: C_8  and  C_9
REMARK    6  A    between atoms: C_9  and  C_10
REMARK    7  A    between atoms: C_13  and  C_14
REMARK    8  A    between atoms: C_14  and  N_15
REMARK    9  A    between atoms: C_16  and  C_18
REMARK                            x       y       z     vdW  Elec       q    Type
REMARK                         _______ _______ _______ _____ _____    ______ ____
ROOT
ATOM      1  C   UNL     1      50.801   5.118  18.401  0.00  0.00    +0.000 A 
ATOM      2  C   UNL     1      50.837   3.782  18.017  0.00  0.00    +0.000 A 
ATOM      3  C   UNL     1      49.706   3.221  17.422  0.00  0.00    +0.000 A 
ATOM      4  C   UNL     1      48.556   3.993  17.248  0.00  0.00    +0.000 A 
ATOM      5  C   UNL     1      48.607   5.310  17.681  0.00  0.00    +0.000 A 
ATOM      6  N   UNL     1      49.696   5.886  18.246  0.00  0.00    +0.000 NA
ENDROOT
BRANCH   1   7
ATOM      7  C   UNL     1      52.031   5.791  18.958  0.00  0.00    +0.000 C 
BRANCH   7  11
ATOM      8  C   UNL     1      52.722   8.270  15.393  0.00  0.00    +0.000 C 
ATOM      9  C   UNL     1      52.689   8.964  16.762  0.00  0.00    +0.000 C 
ATOM     10  C   UNL     1      52.065   8.092  17.851  0.00  0.00    +0.000 C 
ATOM     11  C   UNL     1      52.773   6.733  17.986  0.00  0.00    +0.000 C 
ATOM     12  C   UNL     1      52.909   6.031  16.620  0.00  0.00    +0.000 C 
ATOM     13  C   UNL     1      53.475   6.936  15.527  0.00  0.00    +0.000 C 
BRANCH   8  14
ATOM     14  C   UNL     1      51.314   8.067  14.771  0.00  0.00    +0.000 C 
BRANCH  14  16
ATOM     15  C   UNL     1      50.375   8.158  12.519  0.00  0.00    +0.000 C 
ATOM     16  N   UNL     1      51.036   8.904  13.589  0.00  0.00    +0.000 NA
ATOM     17  C   UNL     1      50.215  10.057  13.968  0.00  0.00    +0.000 C 
ENDBRANCH  14  16
ENDBRANCH   8  14
ENDBRANCH   7  11
ENDBRANCH   1   7
BRANCH   4  18
ATOM     18  C   UNL     1      47.337   3.443  16.567  0.00  0.00    +0.000 C 
BRANCH  18  19
ATOM     19  N   UNL     1      46.753   4.412  15.672  0.00  0.00    +0.000 N 
ATOM     20  C   UNL     1      46.761   4.219  14.314  0.00  0.00    +0.000 C 
ATOM     21  O   UNL     1      47.235   3.205  13.807  0.00  0.00    +0.000 OA
ATOM     22  H   UNL     1      46.565   5.340  16.043  0.00  0.00    +0.000 HD
BRANCH  20  23
ATOM     23  C   UNL     1      46.113   5.252  13.495  0.00  0.00    +0.000 A 
ATOM     24  C   UNL     1      46.776   6.448  13.249  0.00  0.00    +0.000 A 
ATOM     25  S   UNL     1      45.918   7.510  12.227  0.00  0.00    +0.000 S 
ATOM     26  C   UNL     1      44.605   6.434  12.122  0.00  0.00    +0.000 A 
ATOM     27  N   UNL     1      43.500   6.750  11.395  0.00  0.00    +0.000 NA
ATOM     28  C   UNL     1      42.566   5.857  11.431  0.00  0.00    +0.000 A 
ATOM     29  N   UNL     1      42.638   4.679  12.127  0.00  0.00    +0.000 N 
ATOM     30  C   UNL     1      43.745   4.305  12.850  0.00  0.00    +0.000 A 
ATOM     31  O   UNL     1      43.794   3.226  13.431  0.00  0.00    +0.000 OA
ATOM     32  C   UNL     1      44.822   5.276  12.847  0.00  0.00    +0.000 A 
ATOM     33  H   UNL     1      41.873   4.021  12.109  0.00  0.00    +0.000 HD
ENDBRANCH  20  23
ENDBRANCH  18  19
ENDBRANCH   4  18
TORSDOF 7
ENDMDL
MODEL 5
REMARK VINA RESULT:    -6.122      3.124      9.029
REMARK INTER + INTRA:         -10.014
REMARK INTER:                  -9.254
REMARK INTRA:                  -0.760
REMARK UNBOUND:                -1.387
REMARK  Name = 
REMARK  9 active torsions:
REMARK  status: ('A' for Active; 'I' for Inactive)
REMARK    1  A    between atoms: C_1  and  N_2
REMARK    2  A    between atoms: N_2  and  C_3
REMARK    3  A    between atoms: N_2  and  C_4
REMARK    4  A    between atoms: C_4  and  C_5
REMARK    5  A    between atoms: C_8  and  C_9
REMARK    6  A    between atoms: C_9  and  C_10
REMARK    7  A    between atoms: C_13  and  C_14
REMARK    8  A    between atoms: C_14  and  N_15
REMARK    9  A    between atoms: C_16  and  C_18
REMARK                            x       y       z     vdW  Elec       q    Type
REMARK                         _______ _______ _______ _____ _____    ______ ____
ROOT
ATOM      1  C   UNL     1      44.896   4.826  12.681  0.00  0.00    +0.000 A 
ATOM      2  C   UNL     1      46.130   4.325  13.083  0.00  0.00    +0.000 A 
ATOM      3  C   UNL     1      47.142   5.222  13.427  0.00  0.00    +0.000 A 
ATOM      4  C   UNL     1      46.913   6.596  13.336  0.00  0.00    +0.000 A 
ATOM      5  C   UNL     1      45.658   7.002  12.905  0.00  0.00    +0.000 A 
ATOM      6  N   UNL     1      44.653   6.154  12.581  0.00  0.00    +0.000 NA
ENDROOT
BRANCH   1   7
ATOM      7  C   UNL     1      43.745   3.893  12.393  0.00  0.00    +0.000 C 
BRANCH   7  11
ATOM      8  C   UNL     1      44.861   2.912   8.255  0.00  0.00    +0.000 C 
ATOM      9  C   UNL     1      44.191   1.821   9.103  0.00  0.00    +0.000 C 
ATOM     10  C   UNL     1      44.211   2.139  10.597  0.00  0.00    +0.000 C 
ATOM     11  C   UNL     1      43.563   3.498  10.913  0.00  0.00    +0.000 C 
ATOM     12  C   UNL     1      44.141   4.618  10.024  0.00  0.00    +0.000 C 
ATOM     13  C   UNL     1      44.174   4.258   8.539  0.00  0.00    +0.000 C 
BRANCH   8  14
ATOM     14  C   UNL     1      46.395   3.002   8.469  0.00  0.00    +0.000 C 
BRANCH  14  16
ATOM     15  C   UNL     1      47.173   1.010   7.289  0.00  0.00    +0.000 C 
ATOM     16  N   UNL     1      47.205   2.471   7.355  0.00  0.00    +0.000 NA
ATOM     17  C   UNL     1      46.745   3.033   6.082  0.00  0.00    +0.000 C 
ENDBRANCH  14  16
ENDBRANCH   8  14
ENDBRANCH   7  11
ENDBRANCH   1   7
BRANCH   4  18
ATOM     18  C   UNL     1      47.957   7.594  13.745  0.00  0.00    +0.000 C 
BRANCH  18  19
ATOM     19  N   UNL     1      48.031   7.719  15.181  0.00  0.00    +0.000 N 
ATOM     20  C   UNL     1      48.988   7.051  15.902  0.00  0.00    +0.000 C 
ATOM     21  O   UNL     1      49.836   6.348  15.357  0.00  0.00    +0.000 OA
ATOM     22  H   UNL     1      47.222   8.101  15.661  0.00  0.00    +0.000 HD
BRANCH  20  23
ATOM     23  C   UNL     1      48.994   7.269  17.354  0.00  0.00    +0.000 A 
ATOM     24  C   UNL     1      49.297   8.528  17.858  0.00  0.00    +0.000 A 
ATOM     25  S   UNL     1      49.195   8.631  19.557  0.00  0.00    +0.000 S 
ATOM     26  C   UNL     1      48.796   6.982  19.686  0.00  0.00    +0.000 A 
ATOM     27  N   UNL     1      48.588   6.408  20.901  0.00  0.00    +0.000 NA
ATOM     28  C   UNL     1      48.327   5.142  20.853  0.00  0.00    +0.000 A 
ATOM     29  N   UNL     1      48.257   4.402  19.703  0.00  0.00    +0.000 N 
ATOM     30  C   UNL     1      48.431   4.946  18.453  0.00  0.00    +0.000 A 
ATOM     31  O   UNL     1      48.323   4.264  17.439  0.00  0.00    +0.000 OA
ATOM     32  C   UNL     1      48.732   6.365  18.450  0.00  0.00    +0.000 A 
ATOM     33  H   UNL     1      48.044   3.416  19.735  0.00  0.00    +0.000 HD
ENDBRANCH  20  23
ENDBRANCH  18  19
ENDBRANCH   4  18
TORSDOF 7
ENDMDL
MODEL 6
REMARK VINA RESULT:    -6.060      4.090      8.207
REMARK INTER + INTRA:          -9.926
REMARK INTER:                  -9.045
REMARK INTRA:                  -0.881
REMARK UNBOUND:                -1.387
REMARK  Name = 
REMARK  9 active torsions:
REMARK  status: ('A' for Active; 'I' for Inactive)
REMARK    1  A    between atoms: C_1  and  N_2
REMARK    2  A    between atoms: N_2  and  C_3
REMARK    3  A    between atoms: N_2  and  C_4
REMARK    4  A    between atoms: C_4  and  C_5
REMARK    5  A    between atoms: C_8  and  C_9
REMARK    6  A    between atoms: C_9  and  C_10
REMARK    7  A    between atoms: C_13  and  C_14
REMARK    8  A    between atoms: C_14  and  N_15
REMARK    9  A    between atoms: C_16  and  C_18
REMARK                            x       y       z     vdW  Elec       q    Type
REMARK                         _______ _______ _______ _____ _____    ______ ____
ROOT
ATOM      1  C   UNL     1      48.693   7.794  14.278  0.00  0.00    +0.000 A 
ATOM      2  C   UNL     1      48.694   8.753  15.286  0.00  0.00    +0.000 A 
ATOM      3  C   UNL     1      48.690   8.332  16.616  0.00  0.00    +0.000 A 
ATOM      4  C   UNL     1      48.655   6.968  16.914  0.00  0.00    +0.000 A 
ATOM      5  C   UNL     1      48.634   6.087  15.843  0.00  0.00    +0.000 A 
ATOM      6  N   UNL     1      48.655   6.466  14.543  0.00  0.00    +0.000 NA
ENDROOT
BRANCH   1   7
ATOM      7  C   UNL     1      48.795   8.202  12.828  0.00  0.00    +0.000 C 
BRANCH   7  11
ATOM      8  C   UNL     1      44.764   6.838  11.724  0.00  0.00    +0.000 C 
ATOM      9  C   UNL     1      44.954   8.318  12.085  0.00  0.00    +0.000 C 
ATOM     10  C   UNL     1      46.270   8.583  12.815  0.00  0.00    +0.000 C 
ATOM     11  C   UNL     1      47.489   8.094  12.013  0.00  0.00    +0.000 C 
ATOM     12  C   UNL     1      47.310   6.634  11.550  0.00  0.00    +0.000 C 
ATOM     13  C   UNL     1      45.962   6.372  10.881  0.00  0.00    +0.000 C 
BRANCH   8  14
ATOM     14  C   UNL     1      44.550   5.925  12.960  0.00  0.00    +0.000 C 
BRANCH  14  16
ATOM     15  C   UNL     1      42.411   5.537  11.847  0.00  0.00    +0.000 C 
ATOM     16  N   UNL     1      43.301   5.140  12.938  0.00  0.00    +0.000 NA
ATOM     17  C   UNL     1      43.604   3.710  12.833  0.00  0.00    +0.000 C 
ENDBRANCH  14  16
ENDBRANCH   8  14
ENDBRANCH   7  11
ENDBRANCH   1   7
BRANCH   4  18
ATOM     18  C   UNL     1      48.701   6.474  18.331  0.00  0.00    +0.000 C 
BRANCH  18  19
ATOM     19  N   UNL     1      49.703   5.449  18.497  0.00  0.00    +0.000 N 
ATOM     20  C   UNL     1      51.040   5.750  18.446  0.00  0.00    +0.000 C 
ATOM     21  O   UNL     1      51.439   6.901  18.289  0.00  0.00    +0.000 OA
ATOM     22  H   UNL     1      49.405   4.482  18.402  0.00  0.00    +0.000 HD
BRANCH  20  23
ATOM     23  C   UNL     1      51.976   4.638  18.657  0.00  0.00    +0.000 A 
ATOM     24  C   UNL     1      53.135   4.847  19.395  0.00  0.00    +0.000 A 
ATOM     25  S   UNL     1      54.078   3.442  19.604  0.00  0.00    +0.000 S 
ATOM     26  C   UNL     1      53.002   2.515  18.669  0.00  0.00    +0.000 A 
ATOM     27  N   UNL     1      53.238   1.197  18.435  0.00  0.00    +0.000 NA
ATOM     28  C   UNL     1      52.357   0.624  17.681  0.00  0.00    +0.000 A 
ATOM     29  N   UNL     1      51.265   1.250  17.142  0.00  0.00    +0.000 N 
ATOM     30  C   UNL     1      50.971   2.572  17.376  0.00  0.00    +0.000 A 
ATOM     31  O   UNL     1      49.963   3.095  16.910  0.00  0.00    +0.000 OA
ATOM     32  C   UNL     1      51.932   3.264  18.213  0.00  0.00    +0.000 A 
ATOM     33  H   UNL     1      50.612   0.743  16.564  0.00  0.00    +0.000 HD
ENDBRANCH  20  23
ENDBRANCH  18  19
ENDBRANCH   4  18
TORSDOF 7
ENDMDL
MODEL 7
REMARK VINA RESULT:    -5.928      4.400      9.117
REMARK INTER + INTRA:          -9.741
REMARK INTER:                  -9.758
REMARK INTRA:                   0.017
REMARK UNBOUND:                -1.387
REMARK  Name = 
REMARK  9 active torsions:
REMARK  status: ('A' for Active; 'I' for Inactive)
REMARK    1  A    between atoms: C_1  and  N_2
REMARK    2  A    between atoms: N_2  and  C_3
REMARK    3  A    between atoms: N_2  and  C_4
REMARK    4  A    between atoms: C_4  and  C_5
REMARK    5  A    between atoms: C_8  and  C_9
REMARK    6  A    between atoms: C_9  and  C_10
REMARK    7  A    between atoms: C_13  and  C_14
REMARK    8  A    between atoms: C_14  and  N_15
REMARK    9  A    between atoms: C_16  and  C_18
REMARK                            x       y       z     vdW  Elec       q    Type
REMARK                         _______ _______ _______ _____ _____    ______ ____
ROOT
ATOM      1  C   UNL     1      47.772   5.634  14.631  0.00  0.00    +0.000 A 
ATOM      2  C   UNL     1      48.301   6.131  15.818  0.00  0.00    +0.000 A 
ATOM      3  C   UNL     1      48.497   5.255  16.886  0.00  0.00    +0.000 A 
ATOM      4  C   UNL     1      48.136   3.913  16.761  0.00  0.00    +0.000 A 
ATOM      5  C   UNL     1      47.596   3.513  15.547  0.00  0.00    +0.000 A 
ATOM      6  N   UNL     1      47.410   4.337  14.488  0.00  0.00    +0.000 NA
ENDROOT
BRANCH   1   7
ATOM      7  C   UNL     1      47.633   6.523  13.419  0.00  0.00    +0.000 C 
BRANCH   7  11
ATOM      8  C   UNL     1      44.207   5.164  11.022  0.00  0.00    +0.000 C 
ATOM      9  C   UNL     1      44.012   5.330  12.536  0.00  0.00    +0.000 C 
ATOM     10  C   UNL     1      45.334   5.418  13.296  0.00  0.00    +0.000 C 
ATOM     11  C   UNL     1      46.233   6.552  12.772  0.00  0.00    +0.000 C 
ATOM     12  C   UNL     1      46.392   6.482  11.239  0.00  0.00    +0.000 C 
ATOM     13  C   UNL     1      45.064   6.328  10.498  0.00  0.00    +0.000 C 
BRANCH   8  14
ATOM     14  C   UNL     1      44.813   3.791  10.626  0.00  0.00    +0.000 C 
BRANCH  14  16
ATOM     15  C   UNL     1      45.366   3.883   8.249  0.00  0.00    +0.000 C 
ATOM     16  N   UNL     1      44.469   3.335   9.266  0.00  0.00    +0.000 NA
ATOM     17  C   UNL     1      44.487   1.871   9.203  0.00  0.00    +0.000 C 
ENDBRANCH  14  16
ENDBRANCH   8  14
ENDBRANCH   7  11
ENDBRANCH   1   7
BRANCH   4  18
ATOM     18  C   UNL     1      48.377   2.929  17.868  0.00  0.00    +0.000 C 
BRANCH  18  19
ATOM     19  N   UNL     1      49.788   2.758  18.121  0.00  0.00    +0.000 N 
ATOM     20  C   UNL     1      50.577   2.030  17.267  0.00  0.00    +0.000 C 
ATOM     21  O   UNL     1      50.127   1.523  16.242  0.00  0.00    +0.000 OA
ATOM     22  H   UNL     1      50.126   2.968  19.055  0.00  0.00    +0.000 HD
BRANCH  20  23
ATOM     23  C   UNL     1      52.005   1.942  17.600  0.00  0.00    +0.000 A 
ATOM     24  C   UNL     1      52.591   0.696  17.786  0.00  0.00    +0.000 A 
ATOM     25  S   UNL     1      54.266   0.765  18.098  0.00  0.00    +0.000 S 
ATOM     26  C   UNL     1      54.259   2.465  18.052  0.00  0.00    +0.000 A 
ATOM     27  N   UNL     1      55.400   3.174  18.265  0.00  0.00    +0.000 NA
ATOM     28  C   UNL     1      55.243   4.457  18.236  0.00  0.00    +0.000 A 
ATOM     29  N   UNL     1      54.050   5.093  18.014  0.00  0.00    +0.000 N 
ATOM     30  C   UNL     1      52.879   4.418  17.765  0.00  0.00    +0.000 A 
ATOM     31  O   UNL     1      51.834   5.017  17.530  0.00  0.00    +0.000 OA
ATOM     32  C   UNL     1      52.999   2.973  17.792  0.00  0.00    +0.000 A 
ATOM     33  H   UNL     1      53.997   6.100  17.999  0.00  0.00    +0.000 HD
ENDBRANCH  20  23
ENDBRANCH  18  19
ENDBRANCH   4  18
TORSDOF 7
ENDMDL
MODEL 8
REMARK VINA RESULT:    -5.240      1.514      2.763
REMARK INTER + INTRA:          -8.772
REMARK INTER:                  -8.142
REMARK INTRA:                  -0.630
REMARK UNBOUND:                -1.387
REMARK  Name = 
REMARK  9 active torsions:
REMARK  status: ('A' for Active; 'I' for Inactive)
REMARK    1  A    between atoms: C_1  and  N_2
REMARK    2  A    between atoms: N_2  and  C_3
REMARK    3  A    between atoms: N_2  and  C_4
REMARK    4  A    between atoms: C_4  and  C_5
REMARK    5  A    between atoms: C_8  and  C_9
REMARK    6  A    between atoms: C_9  and  C_10
REMARK    7  A    between atoms: C_13  and  C_14
REMARK    8  A    between atoms: C_14  and  N_15
REMARK    9  A    between atoms: C_16  and  C_18
REMARK                            x       y       z     vdW  Elec       q    Type
REMARK                         _______ _______ _______ _____ _____    ______ ____
ROOT
ATOM      1  C   UNL     1      48.949   9.344  12.395  0.00  0.00    +0.000 A 
ATOM      2  C   UNL     1      48.067  10.413  12.272  0.00  0.00    +0.000 A 
ATOM      3  C   UNL     1      46.721  10.150  12.019  0.00  0.00    +0.000 A 
ATOM      4  C   UNL     1      46.287   8.832  11.865  0.00  0.00    +0.000 A 
ATOM      5  C   UNL     1      47.242   7.833  11.984  0.00  0.00    +0.000 A 
ATOM      6  N   UNL     1      48.552   8.058  12.246  0.00  0.00    +0.000 NA
ENDROOT
BRANCH   1   7
ATOM      7  C   UNL     1      50.394   9.578  12.764  0.00  0.00    +0.000 C 
BRANCH   7  11
ATOM      8  C   UNL     1      50.154   7.752  16.756  0.00  0.00    +0.000 C 
ATOM      9  C   UNL     1      51.413   7.494  15.917  0.00  0.00    +0.000 C 
ATOM     10  C   UNL     1      51.218   7.837  14.441  0.00  0.00    +0.000 C 
ATOM     11  C   UNL     1      50.759   9.291  14.236  0.00  0.00    +0.000 C 
ATOM     12  C   UNL     1      49.545   9.629  15.125  0.00  0.00    +0.000 C 
ATOM     13  C   UNL     1      49.731   9.220  16.586  0.00  0.00    +0.000 C 
BRANCH   8  14
ATOM     14  C   UNL     1      48.986   6.784  16.429  0.00  0.00    +0.000 C 
BRANCH  14  16
ATOM     15  C   UNL     1      48.596   4.501  17.206  0.00  0.00    +0.000 C 
ATOM     16  N   UNL     1      48.567   5.922  17.551  0.00  0.00    +0.000 NA
ATOM     17  C   UNL     1      49.418   6.164  18.720  0.00  0.00    +0.000 C 
ENDBRANCH  14  16
ENDBRANCH   8  14
ENDBRANCH   7  11
ENDBRANCH   1   7
BRANCH   4  18
ATOM     18  C   UNL     1      44.839   8.504  11.643  0.00  0.00    +0.000 C 
BRANCH  18  19
ATOM     19  N   UNL     1      44.670   7.137  11.211  0.00  0.00    +0.000 N 
ATOM     20  C   UNL     1      44.520   6.121  12.120  0.00  0.00    +0.000 C 
ATOM     21  O   UNL     1      44.492   6.333  13.330  0.00  0.00    +0.000 OA
ATOM     22  H   UNL     1      44.914   6.915  10.250  0.00  0.00    +0.000 HD
BRANCH  20  23
ATOM     23  C   UNL     1      44.326   4.771  11.576  0.00  0.00    +0.000 A 
ATOM     24  C   UNL     1      43.608   3.832  12.307  0.00  0.00    +0.000 A 
ATOM     25  S   UNL     1      43.416   2.339  11.506  0.00  0.00    +0.000 S 
ATOM     26  C   UNL     1      44.332   2.873  10.176  0.00  0.00    +0.000 A 
ATOM     27  N   UNL     1      44.571   2.052   9.119  0.00  0.00    +0.000 NA
ATOM     28  C   UNL     1      45.309   2.575   8.195  0.00  0.00    +0.000 A 
ATOM     29  N   UNL     1      45.829   3.842   8.235  0.00  0.00    +0.000 N 
ATOM     30  C   UNL     1      45.590   4.716   9.269  0.00  0.00    +0.000 A 
ATOM     31  O   UNL     1      46.038   5.858   9.257  0.00  0.00    +0.000 OA
ATOM     32  C   UNL     1      44.770   4.176  10.336  0.00  0.00    +0.000 A 
ATOM     33  H   UNL     1      46.396   4.192   7.477  0.00  0.00    +0.000 HD
ENDBRANCH  20  23
ENDBRANCH  18  19
ENDBRANCH   4  18
TORSDOF 7
ENDMDL
MODEL 9
REMARK VINA RESULT:    -5.216      4.339      8.458
REMARK INTER + INTRA:          -8.737
REMARK INTER:                  -8.095
REMARK INTRA:                  -0.642
REMARK UNBOUND:                -1.387
REMARK  Name = 
REMARK  9 active torsions:
REMARK  status: ('A' for Active; 'I' for Inactive)
REMARK    1  A    between atoms: C_1  and  N_2
REMARK    2  A    between atoms: N_2  and  C_3
REMARK    3  A    between atoms: N_2  and  C_4
REMARK    4  A    between atoms: C_4  and  C_5
REMARK    5  A    between atoms: C_8  and  C_9
REMARK    6  A    between atoms: C_9  and  C_10
REMARK    7  A    between atoms: C_13  and  C_14
REMARK    8  A    between atoms: C_14  and  N_15
REMARK    9  A    between atoms: C_16  and  C_18
REMARK                            x       y       z     vdW  Elec       q    Type
REMARK                         _______ _______ _______ _____ _____    ______ ____
ROOT
ATOM      1  C   UNL     1      45.627   5.621  12.625  0.00  0.00    +0.000 A 
ATOM      2  C   UNL     1      46.953   5.699  13.040  0.00  0.00    +0.000 A 
ATOM      3  C   UNL     1      47.539   6.957  13.188  0.00  0.00    +0.000 A 
ATOM      4  C   UNL     1      46.804   8.106  12.892  0.00  0.00    +0.000 A 
ATOM      5  C   UNL     1      45.496   7.929  12.464  0.00  0.00    +0.000 A 
ATOM      6  N   UNL     1      44.896   6.722  12.328  0.00  0.00    +0.000 NA
ENDROOT
BRANCH   1   7
ATOM      7  C   UNL     1      44.924   4.288  12.545  0.00  0.00    +0.000 C 
BRANCH   7  11
ATOM      8  C   UNL     1      44.914   2.978   8.348  0.00  0.00    +0.000 C 
ATOM      9  C   UNL     1      44.196   2.099   9.382  0.00  0.00    +0.000 C 
ATOM     10  C   UNL     1      44.594   2.435  10.819  0.00  0.00    +0.000 C 
ATOM     11  C   UNL     1      44.358   3.917  11.158  0.00  0.00    +0.000 C 
ATOM     12  C   UNL     1      44.987   4.844  10.099  0.00  0.00    +0.000 C 
ATOM     13  C   UNL     1      44.631   4.456   8.665  0.00  0.00    +0.000 C 
BRANCH   8  14
ATOM     14  C   UNL     1      46.438   2.700   8.254  0.00  0.00    +0.000 C 
BRANCH  14  16
ATOM     15  C   UNL     1      48.136   2.221   6.566  0.00  0.00    +0.000 C 
ATOM     16  N   UNL     1      46.839   1.840   7.124  0.00  0.00    +0.000 NA
ATOM     17  C   UNL     1      46.875   0.436   7.544  0.00  0.00    +0.000 C 
ENDBRANCH  14  16
ENDBRANCH   8  14
ENDBRANCH   7  11
ENDBRANCH   1   7
BRANCH   4  18
ATOM     18  C   UNL     1      47.381   9.478  13.087  0.00  0.00    +0.000 C 
BRANCH  18  19
ATOM     19  N   UNL     1      48.720   9.565  12.556  0.00  0.00    +0.000 N 
ATOM     20  C   UNL     1      49.786   9.862  13.366  0.00  0.00    +0.000 C 
ATOM     21  O   UNL     1      49.652  10.035  14.575  0.00  0.00    +0.000 OA
ATOM     22  H   UNL     1      48.821   9.650  11.548  0.00  0.00    +0.000 HD
BRANCH  20  23
ATOM     23  C   UNL     1      51.110   9.897  12.731  0.00  0.00    +0.000 A 
ATOM     24  C   UNL     1      51.965  10.962  12.986  0.00  0.00    +0.000 A 
ATOM     25  S   UNL     1      53.486  10.817  12.228  0.00  0.00    +0.000 S 
ATOM     26  C   UNL     1      53.037   9.353  11.486  0.00  0.00    +0.000 A 
ATOM     27  N   UNL     1      53.897   8.694  10.665  0.00  0.00    +0.000 NA
ATOM     28  C   UNL     1      53.413   7.614  10.143  0.00  0.00    +0.000 A 
ATOM     29  N   UNL     1      52.149   7.137  10.368  0.00  0.00    +0.000 N 
ATOM     30  C   UNL     1      51.257   7.754  11.212  0.00  0.00    +0.000 A 
ATOM     31  O   UNL     1      50.145   7.281  11.423  0.00  0.00    +0.000 OA
ATOM     32  C   UNL     1      51.749   8.975  11.821  0.00  0.00    +0.000 A 
ATOM     33  H   UNL     1      51.834   6.284   9.931  0.00  0.00    +0.000 HD
ENDBRANCH  20  23
ENDBRANCH  18  19
ENDBRANCH   4  18
TORSDOF 7
ENDMDL
