MODEL 1
REMARK VINA RESULT:    -8.506      0.000      0.000
REMARK INTER + INTRA:         -12.114
REMARK INTER:                 -11.490
REMARK INTRA:                  -0.624
REMARK UNBOUND:                -0.624
REMARK  Name = 
REMARK  7 active torsions:
REMARK  status: ('A' for Active; 'I' for Inactive)
REMARK    1  A    between atoms: C_1  and  O_2
REMARK    2  A    between atoms: O_2  and  C_3
REMARK    3  A    between atoms: C_6  and  C_7
REMARK    4  A    between atoms: C_11  and  C_12
REMARK    5  A    between atoms: C_12  and  O_13
REMARK    6  A    between atoms: O_13  and  C_14
REMARK    7  A    between atoms: C_17  and  C_18
REMARK                            x       y       z     vdW  Elec       q    Type
REMARK                         _______ _______ _______ _____ _____    ______ ____
ROOT
ATOM      1  C   UNL     1      46.630   6.160  12.433  0.00  0.00    +0.000 A 
ATOM      2  C   UNL     1      47.073   5.233  13.378  0.00  0.00    +0.000 A 
ATOM      3  N   UNL     1      46.477   4.045  13.649  0.00  0.00    +0.000 NA
ATOM      4  C   UNL     1      45.372   3.747  12.937  0.00  0.00    +0.000 A 
ATOM      5  C   UNL     1      44.825   4.580  11.971  0.00  0.00    +0.000 A 
ATOM      6  C   UNL     1      45.476   5.794  11.721  0.00  0.00    +0.000 A 
ENDROOT
BRANCH   1  10
ATOM      7  C   UNL     1      48.616   9.925  11.701  0.00  0.00    +0.000 A 
ATOM      8  C   UNL     1      49.313   8.726  11.592  0.00  0.00    +0.000 A 
ATOM      9  C   UNL     1      48.670   7.509  11.850  0.00  0.00    +0.000 A 
ATOM     10  C   UNL     1      47.311   7.452  12.207  0.00  0.00    +0.000 A 
ATOM     11  C   UNL     1      46.628   8.676  12.315  0.00  0.00    +0.000 A 
ATOM     12  C   UNL     1      47.271   9.893  12.062  0.00  0.00    +0.000 A 
BRANCH   7  14
ATOM     13  C   UNL     1      50.288  11.244  10.663  0.00  0.00    +0.000 C 
ATOM     14  O   UNL     1      49.129  11.174  11.483  0.00  0.00    +0.000 OA
ENDBRANCH   7  14
ENDBRANCH   1  10
BRANCH   5  15
ATOM     15  C   UNL     1      43.572   4.192  11.238  0.00  0.00    +0.000 C 
BRANCH  15  16
ATOM     16  O   UNL     1      43.646   4.649   9.886  0.00  0.00    +0.000 OA
BRANCH  16  17
ATOM     17  C   UNL     1      44.564   3.924   9.152  0.00  0.00    +0.000 A 
ATOM     18  C   UNL     1      44.601   2.554   9.355  0.00  0.00    +0.000 A 
ATOM     19  C   UNL     1      45.524   1.794   8.628  0.00  0.00    +0.000 A 
ATOM     20  C   UNL     1      46.371   2.437   7.723  0.00  0.00    +0.000 A 
ATOM     21  C   UNL     1      46.261   3.814   7.594  0.00  0.00    +0.000 A 
ATOM     22  N   UNL     1      45.372   4.569   8.283  0.00  0.00    +0.000 NA
BRANCH  20  23
ATOM     23  C   UNL     1      47.400   1.739   6.922  0.00  0.00    +0.000 C 
ATOM     24  N   UNL     1      48.439   2.484   6.439  0.00  0.00    +0.000 N 
ATOM     25  O   UNL     1      47.342   0.534   6.724  0.00  0.00    +0.000 OA
ATOM     26  H   UNL     1      48.643   3.422   6.749  0.00  0.00    +0.000 HD
ATOM     27  H   UNL     1      49.177   1.973   5.970  0.00  0.00    +0.000 HD
ENDBRANCH  20  23
ENDBRANCH  16  17
ENDBRANCH  15  16
ENDBRANCH   5  15
TORSDOF 6
ENDMDL
MODEL 2
REMARK VINA RESULT:    -8.465      1.395      1.703
REMARK INTER + INTRA:         -12.058
REMARK INTER:                 -11.198
REMARK INTRA:                  -0.860
REMARK UNBOUND:                -0.624
REMARK  Name = 
REMARK  7 active torsions:
REMARK  status: ('A' for Active; 'I' for Inactive)
REMARK    1  A    between atoms: C_1  and  O_2
REMARK    2  A    between atoms: O_2  and  C_3
REMARK    3  A    between atoms: C_6  and  C_7
REMARK    4  A    between atoms: C_11  and  C_12
REMARK    5  A    between atoms: C_12  and  O_13
REMARK    6  A    between atoms: O_13  and  C_14
REMARK    7  A    between atoms: C_17  and  C_18
REMARK                            x       y       z     vdW  Elec       q    Type
REMARK                         _______ _______ _______ _____ _____    ______ ____
ROOT
ATOM      1  C   UNL     1      46.922   5.913  12.735  0.00  0.00    +0.000 A 
ATOM      2  C   UNL     1      46.664   5.017  13.774  0.00  0.00    +0.000 A 
ATOM      3  N   UNL     1      45.582   4.202  13.855  0.00  0.00    +0.000 NA
ATOM      4  C   UNL     1      44.697   4.271  12.840  0.00  0.00    +0.000 A 
ATOM      5  C   UNL     1      44.832   5.120  11.750  0.00  0.00    +0.000 A 
ATOM      6  C   UNL     1      45.967   5.939  11.707  0.00  0.00    +0.000 A 
ENDROOT
BRANCH   1  10
ATOM      7  C   UNL     1      50.345   8.547  12.711  0.00  0.00    +0.000 A 
ATOM      8  C   UNL     1      49.544   8.420  11.580  0.00  0.00    +0.000 A 
ATOM      9  C   UNL     1      48.447   7.550  11.586  0.00  0.00    +0.000 A 
ATOM     10  C   UNL     1      48.108   6.795  12.724  0.00  0.00    +0.000 A 
ATOM     11  C   UNL     1      48.934   6.936  13.853  0.00  0.00    +0.000 A 
ATOM     12  C   UNL     1      50.034   7.802  13.845  0.00  0.00    +0.000 A 
BRANCH   7  14
ATOM     13  C   UNL     1      52.641   8.727  13.268  0.00  0.00    +0.000 C 
ATOM     14  O   UNL     1      51.443   9.354  12.829  0.00  0.00    +0.000 OA
ENDBRANCH   7  14
ENDBRANCH   1  10
BRANCH   5  15
ATOM     15  C   UNL     1      43.787   5.162  10.672  0.00  0.00    +0.000 C 
BRANCH  15  16
ATOM     16  O   UNL     1      43.539   3.838  10.193  0.00  0.00    +0.000 OA
BRANCH  16  17
ATOM     17  C   UNL     1      44.502   3.432   9.290  0.00  0.00    +0.000 A 
ATOM     18  C   UNL     1      44.893   2.104   9.332  0.00  0.00    +0.000 A 
ATOM     19  C   UNL     1      45.870   1.665   8.432  0.00  0.00    +0.000 A 
ATOM     20  C   UNL     1      46.414   2.574   7.522  0.00  0.00    +0.000 A 
ATOM     21  C   UNL     1      45.961   3.885   7.562  0.00  0.00    +0.000 A 
ATOM     22  N   UNL     1      45.013   4.331   8.421  0.00  0.00    +0.000 NA
BRANCH  20  23
ATOM     23  C   UNL     1      47.469   2.228   6.545  0.00  0.00    +0.000 C 
ATOM     24  N   UNL     1      47.537   2.967   5.398  0.00  0.00    +0.000 N 
ATOM     25  O   UNL     1      48.273   1.333   6.768  0.00  0.00    +0.000 OA
ATOM     26  H   UNL     1      47.044   3.838   5.267  0.00  0.00    +0.000 HD
ATOM     27  H   UNL     1      48.320   2.773   4.785  0.00  0.00    +0.000 HD
ENDBRANCH  20  23
ENDBRANCH  16  17
ENDBRANCH  15  16
ENDBRANCH   5  15
TORSDOF 6
ENDMDL
MODEL 3
REMARK VINA RESULT:    -7.935      3.076      4.400
REMARK INTER + INTRA:         -11.343
REMARK INTER:                 -10.625
REMARK INTRA:                  -0.718
REMARK UNBOUND:                -0.624
REMARK  Name = 
REMARK  7 active torsions:
REMARK  status: ('A' for Active; 'I' for Inactive)
REMARK    1  A    between atoms: C_1  and  O_2
REMARK    2  A    between atoms: O_2  and  C_3
REMARK    3  A    between atoms: C_6  and  C_7
REMARK    4  A    between atoms: C_11  and  C_12
REMARK    5  A    between atoms: C_12  and  O_13
REMARK    6  A    between atoms: O_13  and  C_14
REMARK    7  A    between atoms: C_17  and  C_18
REMARK                            x       y       z     vdW  Elec       q    Type
REMARK                         _______ _______ _______ _____ _____    ______ ____
ROOT
ATOM      1  C   UNL     1      46.652   5.450  13.921  0.00  0.00    +0.000 A 
ATOM      2  C   UNL     1      46.681   6.741  13.390  0.00  0.00    +0.000 A 
ATOM      3  N   UNL     1      45.967   7.163  12.317  0.00  0.00    +0.000 NA
ATOM      4  C   UNL     1      45.165   6.253  11.729  0.00  0.00    +0.000 A 
ATOM      5  C   UNL     1      45.044   4.937  12.154  0.00  0.00    +0.000 A 
ATOM      6  C   UNL     1      45.796   4.547  13.269  0.00  0.00    +0.000 A 
ENDROOT
BRANCH   1  10
ATOM      7  C   UNL     1      49.025   4.312  17.345  0.00  0.00    +0.000 A 
ATOM      8  C   UNL     1      49.171   5.571  16.773  0.00  0.00    +0.000 A 
ATOM      9  C   UNL     1      48.413   5.928  15.650  0.00  0.00    +0.000 A 
ATOM     10  C   UNL     1      47.479   5.047  15.078  0.00  0.00    +0.000 A 
ATOM     11  C   UNL     1      47.351   3.779  15.671  0.00  0.00    +0.000 A 
ATOM     12  C   UNL     1      48.112   3.419  16.790  0.00  0.00    +0.000 A 
BRANCH   7  14
ATOM     13  C   UNL     1      51.125   3.806  18.321  0.00  0.00    +0.000 C 
ATOM     14  O   UNL     1      49.708   3.841  18.433  0.00  0.00    +0.000 OA
ENDBRANCH   7  14
ENDBRANCH   1  10
BRANCH   5  15
ATOM     15  C   UNL     1      44.151   3.972  11.429  0.00  0.00    +0.000 C 
BRANCH  15  16
ATOM     16  O   UNL     1      43.930   4.434  10.094  0.00  0.00    +0.000 OA
BRANCH  16  17
ATOM     17  C   UNL     1      44.840   3.891   9.208  0.00  0.00    +0.000 A 
ATOM     18  C   UNL     1      44.924   2.509   9.151  0.00  0.00    +0.000 A 
ATOM     19  C   UNL     1      45.839   1.931   8.266  0.00  0.00    +0.000 A 
ATOM     20  C   UNL     1      46.631   2.759   7.469  0.00  0.00    +0.000 A 
ATOM     21  C   UNL     1      46.477   4.132   7.602  0.00  0.00    +0.000 A 
ATOM     22  N   UNL     1      45.594   4.714   8.449  0.00  0.00    +0.000 NA
BRANCH  20  23
ATOM     23  C   UNL     1      47.649   2.259   6.519  0.00  0.00    +0.000 C 
ATOM     24  N   UNL     1      47.719   2.857   5.292  0.00  0.00    +0.000 N 
ATOM     25  O   UNL     1      48.421   1.363   6.830  0.00  0.00    +0.000 OA
ATOM     26  H   UNL     1      47.258   3.726   5.070  0.00  0.00    +0.000 HD
ATOM     27  H   UNL     1      48.479   2.560   4.692  0.00  0.00    +0.000 HD
ENDBRANCH  20  23
ENDBRANCH  16  17
ENDBRANCH  15  16
ENDBRANCH   5  15
TORSDOF 6
ENDMDL
MODEL 4
REMARK VINA RESULT:    -7.223      2.528      7.092
REMARK INTER + INTRA:         -10.381
REMARK INTER:                  -9.509
REMARK INTRA:                  -0.872
REMARK UNBOUND:                -0.624
REMARK  Name = 
REMARK  7 active torsions:
REMARK  status: ('A' for Active; 'I' for Inactive)
REMARK    1  A    between atoms: C_1  and  O_2
REMARK    2  A    between atoms: O_2  and  C_3
REMARK    3  A    between atoms: C_6  and  C_7
REMARK    4  A    between atoms: C_11  and  C_12
REMARK    5  A    between atoms: C_12  and  O_13
REMARK    6  A    between atoms: O_13  and  C_14
REMARK    7  A    between atoms: C_17  and  C_18
REMARK                            x       y       z     vdW  Elec       q    Type
REMARK                         _______ _______ _______ _____ _____    ______ ____
ROOT
ATOM      1  C   UNL     1      44.635   4.415  10.211  0.00  0.00    +0.000 A 
ATOM      2  C   UNL     1      43.489   3.957  10.864  0.00  0.00    +0.000 A 
ATOM      3  N   UNL     1      42.805   4.638  11.816  0.00  0.00    +0.000 NA
ATOM      4  C   UNL     1      43.280   5.857  12.146  0.00  0.00    +0.000 A 
ATOM      5  C   UNL     1      44.410   6.427  11.577  0.00  0.00    +0.000 A 
ATOM      6  C   UNL     1      45.081   5.690  10.594  0.00  0.00    +0.000 A 
ENDROOT
BRANCH   1  10
ATOM      7  C   UNL     1      46.660   2.041   7.225  0.00  0.00    +0.000 A 
ATOM      8  C   UNL     1      45.996   1.428   8.282  0.00  0.00    +0.000 A 
ATOM      9  C   UNL     1      45.358   2.202   9.259  0.00  0.00    +0.000 A 
ATOM     10  C   UNL     1      45.350   3.607   9.200  0.00  0.00    +0.000 A 
ATOM     11  C   UNL     1      46.031   4.205   8.125  0.00  0.00    +0.000 A 
ATOM     12  C   UNL     1      46.674   3.432   7.151  0.00  0.00    +0.000 A 
BRANCH   7  14
ATOM     13  C   UNL     1      47.990   2.230   5.272  0.00  0.00    +0.000 C 
ATOM     14  O   UNL     1      47.325   1.400   6.216  0.00  0.00    +0.000 OA
ENDBRANCH   7  14
ENDBRANCH   1  10
BRANCH   5  15
ATOM     15  C   UNL     1      44.895   7.779  12.019  0.00  0.00    +0.000 C 
BRANCH  15  16
ATOM     16  O   UNL     1      45.845   7.625  13.076  0.00  0.00    +0.000 OA
BRANCH  16  17
ATOM     17  C   UNL     1      47.132   7.887  12.650  0.00  0.00    +0.000 A 
ATOM     18  C   UNL     1      47.397   9.163  12.178  0.00  0.00    +0.000 A 
ATOM     19  C   UNL     1      48.691   9.457  11.736  0.00  0.00    +0.000 A 
ATOM     20  C   UNL     1      49.670   8.463  11.788  0.00  0.00    +0.000 A 
ATOM     21  C   UNL     1      49.305   7.215  12.273  0.00  0.00    +0.000 A 
ATOM     22  N   UNL     1      48.060   6.909  12.711  0.00  0.00    +0.000 NA
BRANCH  20  23
ATOM     23  C   UNL     1      51.061   8.653  11.324  0.00  0.00    +0.000 C 
ATOM     24  N   UNL     1      51.977   7.696  11.658  0.00  0.00    +0.000 N 
ATOM     25  O   UNL     1      51.376   9.617  10.639  0.00  0.00    +0.000 OA
ATOM     26  H   UNL     1      51.727   6.792  12.030  0.00  0.00    +0.000 HD
ATOM     27  H   UNL     1      52.901   7.800  11.257  0.00  0.00    +0.000 HD
ENDBRANCH  20  23
ENDBRANCH  16  17
ENDBRANCH  15  16
ENDBRANCH   5  15
TORSDOF 6
ENDMDL
MODEL 5
REMARK VINA RESULT:    -6.970      4.821      8.271
REMARK INTER + INTRA:         -10.040
REMARK INTER:                  -9.289
REMARK INTRA:                  -0.750
REMARK UNBOUND:                -0.624
REMARK  Name = 
REMARK  7 active torsions:
REMARK  status: ('A' for Active; 'I' for Inactive)
REMARK    1  A    between atoms: C_1  and  O_2
REMARK    2  A    between atoms: O_2  and  C_3
REMARK    3  A    between atoms: C_6  and  C_7
REMARK    4  A    between atoms: C_11  and  C_12
REMARK    5  A    between atoms: C_12  and  O_13
REMARK    6  A    between atoms: O_13  and  C_14
REMARK    7  A    between atoms: C_17  and  C_18
REMARK                            x       y       z     vdW  Elec       q    Type
REMARK                         _______ _______ _______ _____ _____    ______ ____
ROOT
ATOM      1  C   UNL     1      46.946   6.556  13.107  0.00  0.00    +0.000 A 
ATOM      2  C   UNL     1      46.873   7.931  12.873  0.00  0.00    +0.000 A 
ATOM      3  N   UNL     1      47.533   8.882  13.581  0.00  0.00    +0.000 NA
ATOM      4  C   UNL     1      48.322   8.449  14.585  0.00  0.00    +0.000 A 
ATOM      5  C   UNL     1      48.480   7.113  14.924  0.00  0.00    +0.000 A 
ATOM      6  C   UNL     1      47.785   6.166  14.163  0.00  0.00    +0.000 A 
ENDROOT
BRANCH   1  10
ATOM      7  C   UNL     1      44.640   3.704  10.827  0.00  0.00    +0.000 A 
ATOM      8  C   UNL     1      45.049   3.405  12.122  0.00  0.00    +0.000 A 
ATOM      9  C   UNL     1      45.814   4.325  12.850  0.00  0.00    +0.000 A 
ATOM     10  C   UNL     1      46.177   5.574  12.314  0.00  0.00    +0.000 A 
ATOM     11  C   UNL     1      45.756   5.852  11.002  0.00  0.00    +0.000 A 
ATOM     12  C   UNL     1      44.995   4.931  10.272  0.00  0.00    +0.000 A 
BRANCH   7  14
ATOM     13  C   UNL     1      44.628   2.061   9.118  0.00  0.00    +0.000 C 
ATOM     14  O   UNL     1      43.899   2.892  10.013  0.00  0.00    +0.000 OA
ENDBRANCH   7  14
ENDBRANCH   1  10
BRANCH   5  15
ATOM     15  C   UNL     1      49.355   6.709  16.078  0.00  0.00    +0.000 C 
BRANCH  15  16
ATOM     16  O   UNL     1      48.718   5.667  16.820  0.00  0.00    +0.000 OA
BRANCH  16  17
ATOM     17  C   UNL     1      49.570   4.603  17.043  0.00  0.00    +0.000 A 
ATOM     18  C   UNL     1      50.848   4.897  17.490  0.00  0.00    +0.000 A 
ATOM     19  C   UNL     1      51.735   3.840  17.720  0.00  0.00    +0.000 A 
ATOM     20  C   UNL     1      51.306   2.530  17.498  0.00  0.00    +0.000 A 
ATOM     21  C   UNL     1      50.008   2.339  17.045  0.00  0.00    +0.000 A 
ATOM     22  N   UNL     1      49.130   3.346  16.820  0.00  0.00    +0.000 NA
BRANCH  20  23
ATOM     23  C   UNL     1      52.164   1.340  17.682  0.00  0.00    +0.000 C 
ATOM     24  N   UNL     1      51.575   0.201  18.154  0.00  0.00    +0.000 N 
ATOM     25  O   UNL     1      53.353   1.364  17.395  0.00  0.00    +0.000 OA
ATOM     26  H   UNL     1      50.576   0.070  18.201  0.00  0.00    +0.000 HD
ATOM     27  H   UNL     1      52.160  -0.625  18.189  0.00  0.00    +0.000 HD
ENDBRANCH  20  23
ENDBRANCH  16  17
ENDBRANCH  15  16
ENDBRANCH   5  15
TORSDOF 6
ENDMDL
MODEL 6
REMARK VINA RESULT:    -6.067      5.762      8.293
REMARK INTER + INTRA:          -8.819
REMARK INTER:                  -8.080
REMARK INTRA:                  -0.739
REMARK UNBOUND:                -0.624
REMARK  Name = 
REMARK  7 active torsions:
REMARK  status: ('A' for Active; 'I' for Inactive)
REMARK    1  A    between atoms: C_1  and  O_2
REMARK    2  A    between atoms: O_2  and  C_3
REMARK    3  A    between atoms: C_6  and  C_7
REMARK    4  A    between atoms: C_11  and  C_12
REMARK    5  A    between atoms: C_12  and  O_13
REMARK    6  A    between atoms: O_13  and  C_14
REMARK    7  A    between atoms: C_17  and  C_18
REMARK                            x       y       z     vdW  Elec       q    Type
REMARK                         _______ _______ _______ _____ _____    ______ ____
ROOT
ATOM      1  C   UNL     1      50.342   4.947  17.765  0.00  0.00    +0.000 A 
ATOM      2  C   UNL     1      49.944   5.579  18.945  0.00  0.00    +0.000 A 
ATOM      3  N   UNL     1      49.207   6.716  19.014  0.00  0.00    +0.000 NA
ATOM      4  C   UNL     1      48.834   7.266  17.841  0.00  0.00    +0.000 A 
ATOM      5  C   UNL     1      49.165   6.742  16.600  0.00  0.00    +0.000 A 
ATOM      6  C   UNL     1      49.921   5.564  16.576  0.00  0.00    +0.000 A 
ENDROOT
BRANCH   1  10
ATOM      7  C   UNL     1      52.753   1.364  17.823  0.00  0.00    +0.000 A 
ATOM      8  C   UNL     1      53.296   2.586  18.208  0.00  0.00    +0.000 A 
ATOM      9  C   UNL     1      52.516   3.748  18.169  0.00  0.00    +0.000 A 
ATOM     10  C   UNL     1      51.170   3.723  17.761  0.00  0.00    +0.000 A 
ATOM     11  C   UNL     1      50.644   2.478  17.372  0.00  0.00    +0.000 A 
ATOM     12  C   UNL     1      51.425   1.316  17.407  0.00  0.00    +0.000 A 
BRANCH   7  14
ATOM     13  C   UNL     1      54.526   0.047  18.683  0.00  0.00    +0.000 C 
ATOM     14  O   UNL     1      53.409   0.164  17.811  0.00  0.00    +0.000 OA
ENDBRANCH   7  14
ENDBRANCH   1  10
BRANCH   5  15
ATOM     15  C   UNL     1      48.736   7.430  15.334  0.00  0.00    +0.000 C 
BRANCH  15  16
ATOM     16  O   UNL     1      48.874   6.531  14.231  0.00  0.00    +0.000 OA
BRANCH  16  17
ATOM     17  C   UNL     1      47.665   5.965  13.879  0.00  0.00    +0.000 A 
ATOM     18  C   UNL     1      46.728   6.791  13.278  0.00  0.00    +0.000 A 
ATOM     19  C   UNL     1      45.492   6.246  12.914  0.00  0.00    +0.000 A 
ATOM     20  C   UNL     1      45.245   4.895  13.162  0.00  0.00    +0.000 A 
ATOM     21  C   UNL     1      46.244   4.151  13.773  0.00  0.00    +0.000 A 
ATOM     22  N   UNL     1      47.450   4.656  14.130  0.00  0.00    +0.000 NA
BRANCH  20  23
ATOM     23  C   UNL     1      43.967   4.220  12.844  0.00  0.00    +0.000 C 
ATOM     24  N   UNL     1      44.004   2.876  12.601  0.00  0.00    +0.000 N 
ATOM     25  O   UNL     1      42.911   4.836  12.829  0.00  0.00    +0.000 OA
ATOM     26  H   UNL     1      44.801   2.295  12.809  0.00  0.00    +0.000 HD
ATOM     27  H   UNL     1      43.109   2.419  12.473  0.00  0.00    +0.000 HD
ENDBRANCH  20  23
ENDBRANCH  16  17
ENDBRANCH  15  16
ENDBRANCH   5  15
TORSDOF 6
ENDMDL
MODEL 7
REMARK VINA RESULT:    -6.038      3.914      8.159
REMARK INTER + INTRA:          -8.780
REMARK INTER:                  -8.119
REMARK INTRA:                  -0.661
REMARK UNBOUND:                -0.624
REMARK  Name = 
REMARK  7 active torsions:
REMARK  status: ('A' for Active; 'I' for Inactive)
REMARK    1  A    between atoms: C_1  and  O_2
REMARK    2  A    between atoms: O_2  and  C_3
REMARK    3  A    between atoms: C_6  and  C_7
REMARK    4  A    between atoms: C_11  and  C_12
REMARK    5  A    between atoms: C_12  and  O_13
REMARK    6  A    between atoms: O_13  and  C_14
REMARK    7  A    between atoms: C_17  and  C_18
REMARK                            x       y       z     vdW  Elec       q    Type
REMARK                         _______ _______ _______ _____ _____    ______ ____
ROOT
ATOM      1  C   UNL     1      46.856   7.054  12.253  0.00  0.00    +0.000 A 
ATOM      2  C   UNL     1      46.340   8.351  12.238  0.00  0.00    +0.000 A 
ATOM      3  N   UNL     1      46.957   9.446  12.749  0.00  0.00    +0.000 NA
ATOM      4  C   UNL     1      48.168   9.250  13.310  0.00  0.00    +0.000 A 
ATOM      5  C   UNL     1      48.792   8.013  13.393  0.00  0.00    +0.000 A 
ATOM      6  C   UNL     1      48.121   6.913  12.847  0.00  0.00    +0.000 A 
ENDROOT
BRANCH   1  10
ATOM      7  C   UNL     1      44.758   3.652  10.617  0.00  0.00    +0.000 A 
ATOM      8  C   UNL     1      45.095   4.731   9.805  0.00  0.00    +0.000 A 
ATOM      9  C   UNL     1      45.757   5.840  10.345  0.00  0.00    +0.000 A 
ATOM     10  C   UNL     1      46.117   5.898  11.703  0.00  0.00    +0.000 A 
ATOM     11  C   UNL     1      45.763   4.799  12.505  0.00  0.00    +0.000 A 
ATOM     12  C   UNL     1      45.096   3.692  11.967  0.00  0.00    +0.000 A 
BRANCH   7  14
ATOM     13  C   UNL     1      44.616   1.879   9.050  0.00  0.00    +0.000 C 
ATOM     14  O   UNL     1      44.108   2.518  10.214  0.00  0.00    +0.000 OA
ENDBRANCH   7  14
ENDBRANCH   1  10
BRANCH   5  15
ATOM     15  C   UNL     1      50.131   7.869  14.060  0.00  0.00    +0.000 C 
BRANCH  15  16
ATOM     16  O   UNL     1      49.984   8.046  15.471  0.00  0.00    +0.000 OA
BRANCH  16  17
ATOM     17  C   UNL     1      49.823   6.840  16.124  0.00  0.00    +0.000 A 
ATOM     18  C   UNL     1      50.958   6.246  16.650  0.00  0.00    +0.000 A 
ATOM     19  C   UNL     1      50.826   5.021  17.313  0.00  0.00    +0.000 A 
ATOM     20  C   UNL     1      49.561   4.442  17.426  0.00  0.00    +0.000 A 
ATOM     21  C   UNL     1      48.486   5.112  16.861  0.00  0.00    +0.000 A 
ATOM     22  N   UNL     1      48.589   6.300  16.219  0.00  0.00    +0.000 NA
BRANCH  20  23
ATOM     23  C   UNL     1      49.308   3.140  18.081  0.00  0.00    +0.000 C 
ATOM     24  N   UNL     1      48.539   3.138  19.211  0.00  0.00    +0.000 N 
ATOM     25  O   UNL     1      49.745   2.098  17.612  0.00  0.00    +0.000 OA
ATOM     26  H   UNL     1      47.987   3.927  19.509  0.00  0.00    +0.000 HD
ATOM     27  H   UNL     1      48.305   2.229  19.591  0.00  0.00    +0.000 HD
ENDBRANCH  20  23
ENDBRANCH  16  17
ENDBRANCH  15  16
ENDBRANCH   5  15
TORSDOF 6
ENDMDL
MODEL 8
REMARK VINA RESULT:    -6.037      5.831      8.188
REMARK INTER + INTRA:          -8.779
REMARK INTER:                  -8.069
REMARK INTRA:                  -0.710
REMARK UNBOUND:                -0.624
REMARK  Name = 
REMARK  7 active torsions:
REMARK  status: ('A' for Active; 'I' for Inactive)
REMARK    1  A    between atoms: C_1  and  O_2
REMARK    2  A    between atoms: O_2  and  C_3
REMARK    3  A    between atoms: C_6  and  C_7
REMARK    4  A    between atoms: C_11  and  C_12
REMARK    5  A    between atoms: C_12  and  O_13
REMARK    6  A    between atoms: O_13  and  C_14
REMARK    7  A    between atoms: C_17  and  C_18
REMARK                            x       y       z     vdW  Elec       q    Type
REMARK                         _______ _______ _______ _____ _____    ______ ____
ROOT
ATOM      1  C   UNL     1      49.672   3.323  17.415  0.00  0.00    +0.000 A 
ATOM      2  C   UNL     1      48.491   2.792  17.937  0.00  0.00    +0.000 A 
ATOM      3  N   UNL     1      47.249   3.297  17.734  0.00  0.00    +0.000 NA
ATOM      4  C   UNL     1      47.163   4.398  16.959  0.00  0.00    +0.000 A 
ATOM      5  C   UNL     1      48.258   5.025  16.382  0.00  0.00    +0.000 A 
ATOM      6  C   UNL     1      49.520   4.466  16.615  0.00  0.00    +0.000 A 
ENDROOT
BRANCH   1  10
ATOM      7  C   UNL     1      53.533   1.610  18.319  0.00  0.00    +0.000 A 
ATOM      8  C   UNL     1      53.272   2.947  18.598  0.00  0.00    +0.000 A 
ATOM      9  C   UNL     1      52.025   3.504  18.285  0.00  0.00    +0.000 A 
ATOM     10  C   UNL     1      51.000   2.739  17.701  0.00  0.00    +0.000 A 
ATOM     11  C   UNL     1      51.288   1.391  17.424  0.00  0.00    +0.000 A 
ATOM     12  C   UNL     1      52.535   0.835  17.732  0.00  0.00    +0.000 A 
BRANCH   7  14
ATOM     13  C   UNL     1      54.870  -0.308  17.933  0.00  0.00    +0.000 C 
ATOM     14  O   UNL     1      54.706   0.953  18.569  0.00  0.00    +0.000 OA
ENDBRANCH   7  14
ENDBRANCH   1  10
BRANCH   5  15
ATOM     15  C   UNL     1      48.086   6.268  15.554  0.00  0.00    +0.000 C 
BRANCH  15  16
ATOM     16  O   UNL     1      48.205   5.939  14.168  0.00  0.00    +0.000 OA
BRANCH  16  17
ATOM     17  C   UNL     1      46.979   5.954  13.532  0.00  0.00    +0.000 A 
ATOM     18  C   UNL     1      46.554   7.160  12.998  0.00  0.00    +0.000 A 
ATOM     19  C   UNL     1      45.315   7.206  12.352  0.00  0.00    +0.000 A 
ATOM     20  C   UNL     1      44.551   6.041  12.262  0.00  0.00    +0.000 A 
ATOM     21  C   UNL     1      45.061   4.883  12.832  0.00  0.00    +0.000 A 
ATOM     22  N   UNL     1      46.260   4.814  13.459  0.00  0.00    +0.000 NA
BRANCH  20  23
ATOM     23  C   UNL     1      43.217   5.978  11.626  0.00  0.00    +0.000 C 
ATOM     24  N   UNL     1      42.704   7.137  11.115  0.00  0.00    +0.000 N 
ATOM     25  O   UNL     1      42.606   4.923  11.534  0.00  0.00    +0.000 OA
ATOM     26  H   UNL     1      43.251   7.973  10.976  0.00  0.00    +0.000 HD
ATOM     27  H   UNL     1      41.832   7.055  10.607  0.00  0.00    +0.000 HD
ENDBRANCH  20  23
ENDBRANCH  16  17
ENDBRANCH  15  16
ENDBRANCH   5  15
TORSDOF 6
ENDMDL
MODEL 9
REMARK VINA RESULT:    -6.034      4.330      6.786
REMARK INTER + INTRA:          -8.774
REMARK INTER:                  -7.976
REMARK INTRA:                  -0.798
REMARK UNBOUND:                -0.624
REMARK  Name = 
REMARK  7 active torsions:
REMARK  status: ('A' for Active; 'I' for Inactive)
REMARK    1  A    between atoms: C_1  and  O_2
REMARK    2  A    between atoms: O_2  and  C_3
REMARK    3  A    between atoms: C_6  and  C_7
REMARK    4  A    between atoms: C_11  and  C_12
REMARK    5  A    between atoms: C_12  and  O_13
REMARK    6  A    between atoms: O_13  and  C_14
REMARK    7  A    between atoms: C_17  and  C_18
REMARK                            x       y       z     vdW  Elec       q    Type
REMARK                         _______ _______ _______ _____ _____    ______ ____
ROOT
ATOM      1  C   UNL     1      47.306   7.094  12.513  0.00  0.00    +0.000 A 
ATOM      2  C   UNL     1      45.944   7.306  12.291  0.00  0.00    +0.000 A 
ATOM      3  N   UNL     1      44.950   6.453  12.645  0.00  0.00    +0.000 NA
ATOM      4  C   UNL     1      45.323   5.315  13.265  0.00  0.00    +0.000 A 
ATOM      5  C   UNL     1      46.641   4.981  13.543  0.00  0.00    +0.000 A 
ATOM      6  C   UNL     1      47.632   5.893  13.164  0.00  0.00    +0.000 A 
ENDROOT
BRANCH   1  10
ATOM      7  C   UNL     1      50.325   9.872  11.165  0.00  0.00    +0.000 A 
ATOM      8  C   UNL     1      50.640   8.532  11.369  0.00  0.00    +0.000 A 
ATOM      9  C   UNL     1      49.662   7.639  11.826  0.00  0.00    +0.000 A 
ATOM     10  C   UNL     1      48.341   8.053  12.075  0.00  0.00    +0.000 A 
ATOM     11  C   UNL     1      48.047   9.412  11.865  0.00  0.00    +0.000 A 
ATOM     12  C   UNL     1      49.025  10.306  11.414  0.00  0.00    +0.000 A 
BRANCH   7  14
ATOM     13  C   UNL     1      52.565  10.633  11.015  0.00  0.00    +0.000 C 
ATOM     14  O   UNL     1      51.187  10.841  10.730  0.00  0.00    +0.000 OA
ENDBRANCH   7  14
ENDBRANCH   1  10
BRANCH   5  15
ATOM     15  C   UNL     1      46.980   3.679  14.211  0.00  0.00    +0.000 C 
BRANCH  15  16
ATOM     16  O   UNL     1      46.799   3.803  15.624  0.00  0.00    +0.000 OA
BRANCH  16  17
ATOM     17  C   UNL     1      48.004   3.775  16.298  0.00  0.00    +0.000 A 
ATOM     18  C   UNL     1      48.517   2.531  16.630  0.00  0.00    +0.000 A 
ATOM     19  C   UNL     1      49.734   2.471  17.317  0.00  0.00    +0.000 A 
ATOM     20  C   UNL     1      50.391   3.659  17.641  0.00  0.00    +0.000 A 
ATOM     21  C   UNL     1      49.795   4.855  17.269  0.00  0.00    +0.000 A 
ATOM     22  N   UNL     1      48.620   4.938  16.600  0.00  0.00    +0.000 NA
BRANCH  20  23
ATOM     23  C   UNL     1      51.667   3.716  18.387  0.00  0.00    +0.000 C 
ATOM     24  N   UNL     1      52.413   2.573  18.457  0.00  0.00    +0.000 N 
ATOM     25  O   UNL     1      52.057   4.756  18.900  0.00  0.00    +0.000 OA
ATOM     26  H   UNL     1      52.243   1.763  17.880  0.00  0.00    +0.000 HD
ATOM     27  H   UNL     1      53.322   2.657  18.895  0.00  0.00    +0.000 HD
ENDBRANCH  20  23
ENDBRANCH  16  17
ENDBRANCH  15  16
ENDBRANCH   5  15
TORSDOF 6
ENDMDL
