MODEL 1
REMARK VINA RESULT:    -8.174      0.000      0.000
REMARK INTER + INTRA:         -10.844
REMARK INTER:                 -10.325
REMARK INTRA:                  -0.519
REMARK UNBOUND:                -0.519
REMARK  Name = 
REMARK  5 active torsions:
REMARK  status: ('A' for Active; 'I' for Inactive)
REMARK    1  A    between atoms: N_1  and  C_2
REMARK    2  A    between atoms: C_2  and  C_3
REMARK    3  A    between atoms: C_7  and  C_8
REMARK    4  A    between atoms: C_8  and  N_9
REMARK    5  A    between atoms: C_15  and  C_16
REMARK                            x       y       z     vdW  Elec       q    Type
REMARK                         _______ _______ _______ _____ _____    ______ ____
ROOT
ATOM      1  N   UNL     1      44.277   4.009  10.655  0.00  0.00    +0.000 N 
ATOM      2  C   UNL     1      43.545   3.220  11.501  0.00  0.00    +0.000 A 
ATOM      3  N   UNL     1      43.828   3.463  12.759  0.00  0.00    +0.000 NA
ATOM      4  C   UNL     1      44.791   4.441  12.730  0.00  0.00    +0.000 A 
ATOM      5  C   UNL     1      45.448   5.075  13.794  0.00  0.00    +0.000 A 
ATOM      6  C   UNL     1      46.433   6.030  13.511  0.00  0.00    +0.000 A 
ATOM      7  C   UNL     1      46.766   6.363  12.186  0.00  0.00    +0.000 A 
ATOM      8  C   UNL     1      46.092   5.744  11.111  0.00  0.00    +0.000 A 
ATOM      9  C   UNL     1      45.109   4.795  11.421  0.00  0.00    +0.000 A 
ENDROOT
BRANCH   7  10
ATOM     10  C   UNL     1      47.856   7.370  11.895  0.00  0.00    +0.000 C 
ATOM     11  F   UNL     1      47.418   8.659  11.864  0.00  0.00    +0.000 F 
ATOM     12  F   UNL     1      48.851   7.336  12.824  0.00  0.00    +0.000 F 
ATOM     13  F   UNL     1      48.459   7.151  10.694  0.00  0.00    +0.000 F 
ENDBRANCH   7  10
BRANCH   1  14
ATOM     14  C   UNL     1      44.143   4.028   9.208  0.00  0.00    +0.000 C 
BRANCH  14  19
ATOM     15  C   UNL     1      46.634   2.567   6.673  0.00  0.00    +0.000 A 
ATOM     16  C   UNL     1      46.734   1.300   7.231  0.00  0.00    +0.000 A 
ATOM     17  N   UNL     1      46.101   0.920   8.363  0.00  0.00    +0.000 NA
ATOM     18  C   UNL     1      45.301   1.839   8.948  0.00  0.00    +0.000 A 
ATOM     19  C   UNL     1      45.107   3.135   8.476  0.00  0.00    +0.000 A 
ATOM     20  C   UNL     1      45.808   3.494   7.319  0.00  0.00    +0.000 A 
BRANCH  15  21
ATOM     21  C   UNL     1      47.324   2.908   5.386  0.00  0.00    +0.000 C 
BRANCH  21  22
ATOM     22  N   UNL     1      48.456   2.021   5.159  0.00  0.00    +0.000 NA
ATOM     23  H   UNL     1      48.406   1.644   4.214  0.00  0.00    +0.000 HD
ATOM     24  H   UNL     1      48.390   1.220   5.786  0.00  0.00    +0.000 HD
ENDBRANCH  21  22
ENDBRANCH  15  21
ENDBRANCH  14  19
ENDBRANCH   1  14
TORSDOF 5
ENDMDL
MODEL 2
REMARK VINA RESULT:    -7.683      3.130      6.168
REMARK INTER + INTRA:         -10.223
REMARK INTER:                  -9.605
REMARK INTRA:                  -0.618
REMARK UNBOUND:                -0.519
REMARK  Name = 
REMARK  5 active torsions:
REMARK  status: ('A' for Active; 'I' for Inactive)
REMARK    1  A    between atoms: N_1  and  C_2
REMARK    2  A    between atoms: C_2  and  C_3
REMARK    3  A    between atoms: C_7  and  C_8
REMARK    4  A    between atoms: C_8  and  N_9
REMARK    5  A    between atoms: C_15  and  C_16
REMARK                            x       y       z     vdW  Elec       q    Type
REMARK                         _______ _______ _______ _____ _____    ______ ____
ROOT
ATOM      1  N   UNL     1      44.192   4.918  11.074  0.00  0.00    +0.000 N 
ATOM      2  C   UNL     1      43.227   4.233  11.763  0.00  0.00    +0.000 A 
ATOM      3  N   UNL     1      43.082   3.011  11.309  0.00  0.00    +0.000 NA
ATOM      4  C   UNL     1      43.980   2.899  10.277  0.00  0.00    +0.000 A 
ATOM      5  C   UNL     1      44.246   1.804   9.443  0.00  0.00    +0.000 A 
ATOM      6  C   UNL     1      45.196   1.944   8.422  0.00  0.00    +0.000 A 
ATOM      7  C   UNL     1      45.882   3.155   8.226  0.00  0.00    +0.000 A 
ATOM      8  C   UNL     1      45.633   4.254   9.076  0.00  0.00    +0.000 A 
ATOM      9  C   UNL     1      44.683   4.087  10.091  0.00  0.00    +0.000 A 
ENDROOT
BRANCH   7  10
ATOM     10  C   UNL     1      46.878   3.303   7.098  0.00  0.00    +0.000 C 
ATOM     11  F   UNL     1      46.349   3.067   5.865  0.00  0.00    +0.000 F 
ATOM     12  F   UNL     1      47.412   4.554   7.041  0.00  0.00    +0.000 F 
ATOM     13  F   UNL     1      47.934   2.452   7.221  0.00  0.00    +0.000 F 
ENDBRANCH   7  10
BRANCH   1  14
ATOM     14  C   UNL     1      44.636   6.267  11.382  0.00  0.00    +0.000 C 
BRANCH  14  19
ATOM     15  C   UNL     1      47.222   5.586  14.143  0.00  0.00    +0.000 A 
ATOM     16  C   UNL     1      47.975   6.740  13.970  0.00  0.00    +0.000 A 
ATOM     17  N   UNL     1      47.730   7.667  13.019  0.00  0.00    +0.000 NA
ATOM     18  C   UNL     1      46.661   7.451  12.222  0.00  0.00    +0.000 A 
ATOM     19  C   UNL     1      45.821   6.342  12.307  0.00  0.00    +0.000 A 
ATOM     20  C   UNL     1      46.132   5.392  13.287  0.00  0.00    +0.000 A 
BRANCH  15  21
ATOM     21  C   UNL     1      47.517   4.622  15.253  0.00  0.00    +0.000 C 
BRANCH  21  22
ATOM     22  N   UNL     1      47.542   3.255  14.752  0.00  0.00    +0.000 NA
ATOM     23  H   UNL     1      46.718   2.757  15.088  0.00  0.00    +0.000 HD
ATOM     24  H   UNL     1      48.346   2.765  15.143  0.00  0.00    +0.000 HD
ENDBRANCH  21  22
ENDBRANCH  15  21
ENDBRANCH  14  19
ENDBRANCH   1  14
TORSDOF 5
ENDMDL
MODEL 3
REMARK VINA RESULT:    -7.636      3.072      5.704
REMARK INTER + INTRA:         -10.164
REMARK INTER:                  -9.453
REMARK INTRA:                  -0.711
REMARK UNBOUND:                -0.519
REMARK  Name = 
REMARK  5 active torsions:
REMARK  status: ('A' for Active; 'I' for Inactive)
REMARK    1  A    between atoms: N_1  and  C_2
REMARK    2  A    between atoms: C_2  and  C_3
REMARK    3  A    between atoms: C_7  and  C_8
REMARK    4  A    between atoms: C_8  and  N_9
REMARK    5  A    between atoms: C_15  and  C_16
REMARK                            x       y       z     vdW  Elec       q    Type
REMARK                         _______ _______ _______ _____ _____    ______ ____
ROOT
ATOM      1  N   UNL     1      44.107   4.858  11.263  0.00  0.00    +0.000 N 
ATOM      2  C   UNL     1      43.181   4.100  11.929  0.00  0.00    +0.000 A 
ATOM      3  N   UNL     1      43.094   2.890  11.428  0.00  0.00    +0.000 NA
ATOM      4  C   UNL     1      43.991   2.864  10.389  0.00  0.00    +0.000 A 
ATOM      5  C   UNL     1      44.307   1.816   9.513  0.00  0.00    +0.000 A 
ATOM      6  C   UNL     1      45.243   2.043   8.495  0.00  0.00    +0.000 A 
ATOM      7  C   UNL     1      45.867   3.293   8.344  0.00  0.00    +0.000 A 
ATOM      8  C   UNL     1      45.568   4.345   9.236  0.00  0.00    +0.000 A 
ATOM      9  C   UNL     1      44.633   4.092  10.247  0.00  0.00    +0.000 A 
ENDROOT
BRANCH   7  10
ATOM     10  C   UNL     1      46.848   3.534   7.218  0.00  0.00    +0.000 C 
ATOM     11  F   UNL     1      46.292   3.447   5.978  0.00  0.00    +0.000 F 
ATOM     12  F   UNL     1      47.418   4.769   7.286  0.00  0.00    +0.000 F 
ATOM     13  F   UNL     1      47.880   2.646   7.229  0.00  0.00    +0.000 F 
ENDBRANCH   7  10
BRANCH   1  14
ATOM     14  C   UNL     1      44.484   6.215  11.622  0.00  0.00    +0.000 C 
BRANCH  14  19
ATOM     15  C   UNL     1      48.134   7.225  12.276  0.00  0.00    +0.000 A 
ATOM     16  C   UNL     1      48.375   6.353  13.329  0.00  0.00    +0.000 A 
ATOM     17  N   UNL     1      47.446   5.521  13.848  0.00  0.00    +0.000 NA
ATOM     18  C   UNL     1      46.227   5.534  13.267  0.00  0.00    +0.000 A 
ATOM     19  C   UNL     1      45.869   6.351  12.197  0.00  0.00    +0.000 A 
ATOM     20  C   UNL     1      46.853   7.220  11.712  0.00  0.00    +0.000 A 
BRANCH  15  21
ATOM     21  C   UNL     1      49.225   8.086  11.713  0.00  0.00    +0.000 C 
BRANCH  21  22
ATOM     22  N   UNL     1      50.507   7.398  11.778  0.00  0.00    +0.000 NA
ATOM     23  H   UNL     1      50.372   6.469  12.175  0.00  0.00    +0.000 HD
ATOM     24  H   UNL     1      51.125   7.892  12.421  0.00  0.00    +0.000 HD
ENDBRANCH  21  22
ENDBRANCH  15  21
ENDBRANCH  14  19
ENDBRANCH   1  14
TORSDOF 5
ENDMDL
MODEL 4
REMARK VINA RESULT:    -7.297      1.574      2.239
REMARK INTER + INTRA:          -9.736
REMARK INTER:                  -9.484
REMARK INTRA:                  -0.252
REMARK UNBOUND:                -0.519
REMARK  Name = 
REMARK  5 active torsions:
REMARK  status: ('A' for Active; 'I' for Inactive)
REMARK    1  A    between atoms: N_1  and  C_2
REMARK    2  A    between atoms: C_2  and  C_3
REMARK    3  A    between atoms: C_7  and  C_8
REMARK    4  A    between atoms: C_8  and  N_9
REMARK    5  A    between atoms: C_15  and  C_16
REMARK                            x       y       z     vdW  Elec       q    Type
REMARK                         _______ _______ _______ _____ _____    ______ ____
ROOT
ATOM      1  N   UNL     1      44.301   4.567  11.061  0.00  0.00    +0.000 N 
ATOM      2  C   UNL     1      42.990   4.960  11.046  0.00  0.00    +0.000 A 
ATOM      3  N   UNL     1      42.861   6.233  11.335  0.00  0.00    +0.000 NA
ATOM      4  C   UNL     1      44.139   6.684  11.558  0.00  0.00    +0.000 A 
ATOM      5  C   UNL     1      44.582   7.969  11.900  0.00  0.00    +0.000 A 
ATOM      6  C   UNL     1      45.951   8.180  12.114  0.00  0.00    +0.000 A 
ATOM      7  C   UNL     1      46.878   7.131  11.988  0.00  0.00    +0.000 A 
ATOM      8  C   UNL     1      46.440   5.840  11.623  0.00  0.00    +0.000 A 
ATOM      9  C   UNL     1      45.067   5.656  11.411  0.00  0.00    +0.000 A 
ENDROOT
BRANCH   7  10
ATOM     10  C   UNL     1      48.348   7.365  12.257  0.00  0.00    +0.000 C 
ATOM     11  F   UNL     1      49.092   7.536  11.129  0.00  0.00    +0.000 F 
ATOM     12  F   UNL     1      48.563   8.474  13.018  0.00  0.00    +0.000 F 
ATOM     13  F   UNL     1      48.924   6.332  12.933  0.00  0.00    +0.000 F 
ENDBRANCH   7  10
BRANCH   1  14
ATOM     14  C   UNL     1      44.776   3.238  10.714  0.00  0.00    +0.000 C 
BRANCH  14  19
ATOM     15  C   UNL     1      46.516   1.964   7.533  0.00  0.00    +0.000 A 
ATOM     16  C   UNL     1      46.585   3.180   6.868  0.00  0.00    +0.000 A 
ATOM     17  N   UNL     1      46.080   4.336   7.352  0.00  0.00    +0.000 NA
ATOM     18  C   UNL     1      45.509   4.283   8.575  0.00  0.00    +0.000 A 
ATOM     19  C   UNL     1      45.393   3.128   9.346  0.00  0.00    +0.000 A 
ATOM     20  C   UNL     1      45.902   1.948   8.791  0.00  0.00    +0.000 A 
BRANCH  15  21
ATOM     21  C   UNL     1      47.143   0.727   6.962  0.00  0.00    +0.000 C 
BRANCH  21  22
ATOM     22  N   UNL     1      46.786  -0.442   7.753  0.00  0.00    +0.000 NA
ATOM     23  H   UNL     1      45.787  -0.423   7.953  0.00  0.00    +0.000 HD
ATOM     24  H   UNL     1      47.256  -0.396   8.657  0.00  0.00    +0.000 HD
ENDBRANCH  21  22
ENDBRANCH  15  21
ENDBRANCH  14  19
ENDBRANCH   1  14
TORSDOF 5
ENDMDL
MODEL 5
REMARK VINA RESULT:    -7.133      3.383      6.661
REMARK INTER + INTRA:          -9.528
REMARK INTER:                  -9.006
REMARK INTRA:                  -0.522
REMARK UNBOUND:                -0.519
REMARK  Name = 
REMARK  5 active torsions:
REMARK  status: ('A' for Active; 'I' for Inactive)
REMARK    1  A    between atoms: N_1  and  C_2
REMARK    2  A    between atoms: C_2  and  C_3
REMARK    3  A    between atoms: C_7  and  C_8
REMARK    4  A    between atoms: C_8  and  N_9
REMARK    5  A    between atoms: C_15  and  C_16
REMARK                            x       y       z     vdW  Elec       q    Type
REMARK                         _______ _______ _______ _____ _____    ______ ____
ROOT
ATOM      1  N   UNL     1      44.629   6.038  11.721  0.00  0.00    +0.000 N 
ATOM      2  C   UNL     1      43.725   5.668  12.680  0.00  0.00    +0.000 A 
ATOM      3  N   UNL     1      43.286   4.446  12.488  0.00  0.00    +0.000 NA
ATOM      4  C   UNL     1      43.922   4.008  11.354  0.00  0.00    +0.000 A 
ATOM      5  C   UNL     1      43.825   2.772  10.699  0.00  0.00    +0.000 A 
ATOM      6  C   UNL     1      44.554   2.569   9.521  0.00  0.00    +0.000 A 
ATOM      7  C   UNL     1      45.379   3.577   8.991  0.00  0.00    +0.000 A 
ATOM      8  C   UNL     1      45.498   4.815   9.657  0.00  0.00    +0.000 A 
ATOM      9  C   UNL     1      44.761   4.992  10.836  0.00  0.00    +0.000 A 
ENDROOT
BRANCH   7  10
ATOM     10  C   UNL     1      46.133   3.356   7.699  0.00  0.00    +0.000 C 
ATOM     11  F   UNL     1      46.980   4.373   7.378  0.00  0.00    +0.000 F 
ATOM     12  F   UNL     1      46.898   2.230   7.733  0.00  0.00    +0.000 F 
ATOM     13  F   UNL     1      45.301   3.210   6.631  0.00  0.00    +0.000 F 
ENDBRANCH   7  10
BRANCH   1  14
ATOM     14  C   UNL     1      45.346   7.302  11.696  0.00  0.00    +0.000 C 
BRANCH  14  19
ATOM     15  C   UNL     1      48.046   8.358  14.219  0.00  0.00    +0.000 A 
ATOM     16  C   UNL     1      48.913   7.294  14.009  0.00  0.00    +0.000 A 
ATOM     17  N   UNL     1      48.662   6.270  13.164  0.00  0.00    +0.000 NA
ATOM     18  C   UNL     1      47.505   6.328  12.468  0.00  0.00    +0.000 A 
ATOM     19  C   UNL     1      46.565   7.350  12.578  0.00  0.00    +0.000 A 
ATOM     20  C   UNL     1      46.852   8.373  13.489  0.00  0.00    +0.000 A 
BRANCH  15  21
ATOM     21  C   UNL     1      48.410   9.490  15.133  0.00  0.00    +0.000 C 
BRANCH  21  22
ATOM     22  N   UNL     1      47.675   9.393  16.386  0.00  0.00    +0.000 NA
ATOM     23  H   UNL     1      47.488   8.413  16.594  0.00  0.00    +0.000 HD
ATOM     24  H   UNL     1      46.764   9.838  16.281  0.00  0.00    +0.000 HD
ENDBRANCH  21  22
ENDBRANCH  15  21
ENDBRANCH  14  19
ENDBRANCH   1  14
TORSDOF 5
ENDMDL
MODEL 6
REMARK VINA RESULT:    -6.916      1.478      2.106
REMARK INTER + INTRA:          -9.254
REMARK INTER:                  -8.722
REMARK INTRA:                  -0.533
REMARK UNBOUND:                -0.519
REMARK  Name = 
REMARK  5 active torsions:
REMARK  status: ('A' for Active; 'I' for Inactive)
REMARK    1  A    between atoms: N_1  and  C_2
REMARK    2  A    between atoms: C_2  and  C_3
REMARK    3  A    between atoms: C_7  and  C_8
REMARK    4  A    between atoms: C_8  and  N_9
REMARK    5  A    between atoms: C_15  and  C_16
REMARK                            x       y       z     vdW  Elec       q    Type
REMARK                         _______ _______ _______ _____ _____    ______ ____
ROOT
ATOM      1  N   UNL     1      45.441   5.162  11.911  0.00  0.00    +0.000 N 
ATOM      2  C   UNL     1      45.027   4.382  12.956  0.00  0.00    +0.000 A 
ATOM      3  N   UNL     1      45.778   4.554  14.019  0.00  0.00    +0.000 NA
ATOM      4  C   UNL     1      46.725   5.475  13.645  0.00  0.00    +0.000 A 
ATOM      5  C   UNL     1      47.777   6.023  14.393  0.00  0.00    +0.000 A 
ATOM      6  C   UNL     1      48.647   6.931  13.775  0.00  0.00    +0.000 A 
ATOM      7  C   UNL     1      48.480   7.299  12.429  0.00  0.00    +0.000 A 
ATOM      8  C   UNL     1      47.411   6.767  11.678  0.00  0.00    +0.000 A 
ATOM      9  C   UNL     1      46.553   5.865  12.320  0.00  0.00    +0.000 A 
ENDROOT
BRANCH   7  10
ATOM     10  C   UNL     1      49.449   8.252  11.765  0.00  0.00    +0.000 C 
ATOM     11  F   UNL     1      50.294   7.650  10.884  0.00  0.00    +0.000 F 
ATOM     12  F   UNL     1      48.812   9.229  11.063  0.00  0.00    +0.000 F 
ATOM     13  F   UNL     1      50.243   8.897  12.665  0.00  0.00    +0.000 F 
ENDBRANCH   7  10
BRANCH   1  14
ATOM     14  C   UNL     1      44.775   5.250  10.622  0.00  0.00    +0.000 C 
BRANCH  14  19
ATOM     15  C   UNL     1      46.117   3.269   7.615  0.00  0.00    +0.000 A 
ATOM     16  C   UNL     1      45.577   2.036   7.958  0.00  0.00    +0.000 A 
ATOM     17  N   UNL     1      44.869   1.809   9.086  0.00  0.00    +0.000 NA
ATOM     18  C   UNL     1      44.660   2.870   9.895  0.00  0.00    +0.000 A 
ATOM     19  C   UNL     1      45.135   4.157   9.653  0.00  0.00    +0.000 A 
ATOM     20  C   UNL     1      45.890   4.340   8.488  0.00  0.00    +0.000 A 
BRANCH  15  21
ATOM     21  C   UNL     1      46.849   3.466   6.321  0.00  0.00    +0.000 C 
BRANCH  21  22
ATOM     22  N   UNL     1      48.199   2.928   6.408  0.00  0.00    +0.000 NA
ATOM     23  H   UNL     1      48.775   3.552   6.971  0.00  0.00    +0.000 HD
ATOM     24  H   UNL     1      48.620   2.916   5.480  0.00  0.00    +0.000 HD
ENDBRANCH  21  22
ENDBRANCH  15  21
ENDBRANCH  14  19
ENDBRANCH   1  14
TORSDOF 5
ENDMDL
MODEL 7
REMARK VINA RESULT:    -6.828      3.754      6.664
REMARK INTER + INTRA:          -9.143
REMARK INTER:                  -8.586
REMARK INTRA:                  -0.557
REMARK UNBOUND:                -0.519
REMARK  Name = 
REMARK  5 active torsions:
REMARK  status: ('A' for Active; 'I' for Inactive)
REMARK    1  A    between atoms: N_1  and  C_2
REMARK    2  A    between atoms: C_2  and  C_3
REMARK    3  A    between atoms: C_7  and  C_8
REMARK    4  A    between atoms: C_8  and  N_9
REMARK    5  A    between atoms: C_15  and  C_16
REMARK                            x       y       z     vdW  Elec       q    Type
REMARK                         _______ _______ _______ _____ _____    ______ ____
ROOT
ATOM      1  N   UNL     1      45.143   5.928  12.118  0.00  0.00    +0.000 N 
ATOM      2  C   UNL     1      44.234   5.611  13.092  0.00  0.00    +0.000 A 
ATOM      3  N   UNL     1      43.595   4.499  12.816  0.00  0.00    +0.000 NA
ATOM      4  C   UNL     1      44.101   4.081  11.610  0.00  0.00    +0.000 A 
ATOM      5  C   UNL     1      43.775   2.947  10.853  0.00  0.00    +0.000 A 
ATOM      6  C   UNL     1      44.409   2.749   9.619  0.00  0.00    +0.000 A 
ATOM      7  C   UNL     1      45.361   3.663   9.136  0.00  0.00    +0.000 A 
ATOM      8  C   UNL     1      45.709   4.795   9.903  0.00  0.00    +0.000 A 
ATOM      9  C   UNL     1      45.064   4.967  11.135  0.00  0.00    +0.000 A 
ENDROOT
BRANCH   7  10
ATOM     10  C   UNL     1      46.011   3.456   7.786  0.00  0.00    +0.000 C 
ATOM     11  F   UNL     1      46.846   4.467   7.418  0.00  0.00    +0.000 F 
ATOM     12  F   UNL     1      46.760   2.319   7.742  0.00  0.00    +0.000 F 
ATOM     13  F   UNL     1      45.099   3.340   6.782  0.00  0.00    +0.000 F 
ENDBRANCH   7  10
BRANCH   1  14
ATOM     14  C   UNL     1      46.054   7.059  12.165  0.00  0.00    +0.000 C 
BRANCH  14  19
ATOM     15  C   UNL     1      43.699   9.839  10.942  0.00  0.00    +0.000 A 
ATOM     16  C   UNL     1      44.504  10.918  11.283  0.00  0.00    +0.000 A 
ATOM     17  N   UNL     1      45.698  10.803  11.903  0.00  0.00    +0.000 NA
ATOM     18  C   UNL     1      46.128   9.549  12.165  0.00  0.00    +0.000 A 
ATOM     19  C   UNL     1      45.420   8.389  11.858  0.00  0.00    +0.000 A 
ATOM     20  C   UNL     1      44.173   8.558  11.245  0.00  0.00    +0.000 A 
BRANCH  15  21
ATOM     21  C   UNL     1      42.406  10.034  10.207  0.00  0.00    +0.000 C 
BRANCH  21  22
ATOM     22  N   UNL     1      41.277   9.666  11.049  0.00  0.00    +0.000 NA
ATOM     23  H   UNL     1      40.414   9.748  10.513  0.00  0.00    +0.000 HD
ATOM     24  H   UNL     1      41.195  10.330  11.818  0.00  0.00    +0.000 HD
ENDBRANCH  21  22
ENDBRANCH  15  21
ENDBRANCH  14  19
ENDBRANCH   1  14
TORSDOF 5
ENDMDL
MODEL 8
REMARK VINA RESULT:    -6.504      5.043      7.802
REMARK INTER + INTRA:          -8.735
REMARK INTER:                  -8.212
REMARK INTRA:                  -0.523
REMARK UNBOUND:                -0.519
REMARK  Name = 
REMARK  5 active torsions:
REMARK  status: ('A' for Active; 'I' for Inactive)
REMARK    1  A    between atoms: N_1  and  C_2
REMARK    2  A    between atoms: C_2  and  C_3
REMARK    3  A    between atoms: C_7  and  C_8
REMARK    4  A    between atoms: C_8  and  N_9
REMARK    5  A    between atoms: C_15  and  C_16
REMARK                            x       y       z     vdW  Elec       q    Type
REMARK                         _______ _______ _______ _____ _____    ______ ____
ROOT
ATOM      1  N   UNL     1      47.239   5.225  14.808  0.00  0.00    +0.000 N 
ATOM      2  C   UNL     1      48.170   6.201  14.575  0.00  0.00    +0.000 A 
ATOM      3  N   UNL     1      48.044   6.716  13.375  0.00  0.00    +0.000 NA
ATOM      4  C   UNL     1      46.997   6.040  12.800  0.00  0.00    +0.000 A 
ATOM      5  C   UNL     1      46.434   6.189  11.524  0.00  0.00    +0.000 A 
ATOM      6  C   UNL     1      45.380   5.348  11.146  0.00  0.00    +0.000 A 
ATOM      7  C   UNL     1      44.880   4.367  12.020  0.00  0.00    +0.000 A 
ATOM      8  C   UNL     1      45.429   4.227  13.313  0.00  0.00    +0.000 A 
ATOM      9  C   UNL     1      46.479   5.083  13.668  0.00  0.00    +0.000 A 
ENDROOT
BRANCH   7  10
ATOM     10  C   UNL     1      43.765   3.442  11.585  0.00  0.00    +0.000 C 
ATOM     11  F   UNL     1      43.412   2.527  12.529  0.00  0.00    +0.000 F 
ATOM     12  F   UNL     1      42.625   4.118  11.275  0.00  0.00    +0.000 F 
ATOM     13  F   UNL     1      44.089   2.726  10.472  0.00  0.00    +0.000 F 
ENDBRANCH   7  10
BRANCH   1  14
ATOM     14  C   UNL     1      47.073   4.515  16.065  0.00  0.00    +0.000 C 
BRANCH  14  19
ATOM     15  C   UNL     1      50.390   3.444  17.683  0.00  0.00    +0.000 A 
ATOM     16  C   UNL     1      50.472   2.184  17.106  0.00  0.00    +0.000 A 
ATOM     17  N   UNL     1      49.528   1.664  16.291  0.00  0.00    +0.000 NA
ATOM     18  C   UNL     1      48.468   2.452  16.009  0.00  0.00    +0.000 A 
ATOM     19  C   UNL     1      48.282   3.738  16.512  0.00  0.00    +0.000 A 
ATOM     20  C   UNL     1      49.269   4.224  17.378  0.00  0.00    +0.000 A 
BRANCH  15  21
ATOM     21  C   UNL     1      51.499   3.982  18.538  0.00  0.00    +0.000 C 
BRANCH  21  22
ATOM     22  N   UNL     1      52.507   2.959  18.776  0.00  0.00    +0.000 NA
ATOM     23  H   UNL     1      53.106   2.878  17.956  0.00  0.00    +0.000 HD
ATOM     24  H   UNL     1      52.052   2.053  18.883  0.00  0.00    +0.000 HD
ENDBRANCH  21  22
ENDBRANCH  15  21
ENDBRANCH  14  19
ENDBRANCH   1  14
TORSDOF 5
ENDMDL
MODEL 9
REMARK VINA RESULT:    -5.899      4.863      6.754
REMARK INTER + INTRA:          -7.971
REMARK INTER:                  -7.233
REMARK INTRA:                  -0.738
REMARK UNBOUND:                -0.519
REMARK  Name = 
REMARK  5 active torsions:
REMARK  status: ('A' for Active; 'I' for Inactive)
REMARK    1  A    between atoms: N_1  and  C_2
REMARK    2  A    between atoms: C_2  and  C_3
REMARK    3  A    between atoms: C_7  and  C_8
REMARK    4  A    between atoms: C_8  and  N_9
REMARK    5  A    between atoms: C_15  and  C_16
REMARK                            x       y       z     vdW  Elec       q    Type
REMARK                         _______ _______ _______ _____ _____    ______ ____
ROOT
ATOM      1  N   UNL     1      48.294   6.855  14.300  0.00  0.00    +0.000 N 
ATOM      2  C   UNL     1      48.564   8.172  14.556  0.00  0.00    +0.000 A 
ATOM      3  N   UNL     1      48.810   8.379  15.829  0.00  0.00    +0.000 NA
ATOM      4  C   UNL     1      48.684   7.149  16.425  0.00  0.00    +0.000 A 
ATOM      5  C   UNL     1      48.841   6.793  17.772  0.00  0.00    +0.000 A 
ATOM      6  C   UNL     1      48.622   5.462  18.152  0.00  0.00    +0.000 A 
ATOM      7  C   UNL     1      48.252   4.487  17.210  0.00  0.00    +0.000 A 
ATOM      8  C   UNL     1      48.113   4.836  15.849  0.00  0.00    +0.000 A 
ATOM      9  C   UNL     1      48.342   6.171  15.495  0.00  0.00    +0.000 A 
ENDROOT
BRANCH   7  10
ATOM     10  C   UNL     1      47.983   3.062  17.640  0.00  0.00    +0.000 C 
ATOM     11  F   UNL     1      48.634   2.131  16.889  0.00  0.00    +0.000 F 
ATOM     12  F   UNL     1      48.360   2.833  18.928  0.00  0.00    +0.000 F 
ATOM     13  F   UNL     1      46.662   2.740  17.574  0.00  0.00    +0.000 F 
ENDBRANCH   7  10
BRANCH   1  14
ATOM     14  C   UNL     1      48.052   6.296  12.981  0.00  0.00    +0.000 C 
BRANCH  14  19
ATOM     15  C   UNL     1      44.485   4.970  12.442  0.00  0.00    +0.000 A 
ATOM     16  C   UNL     1      43.989   6.067  11.751  0.00  0.00    +0.000 A 
ATOM     17  N   UNL     1      44.702   7.186  11.499  0.00  0.00    +0.000 NA
ATOM     18  C   UNL     1      45.983   7.199  11.926  0.00  0.00    +0.000 A 
ATOM     19  C   UNL     1      46.599   6.156  12.615  0.00  0.00    +0.000 A 
ATOM     20  C   UNL     1      45.813   5.029  12.882  0.00  0.00    +0.000 A 
BRANCH  15  21
ATOM     21  C   UNL     1      43.656   3.736  12.644  0.00  0.00    +0.000 C 
BRANCH  21  22
ATOM     22  N   UNL     1      42.881   3.438  11.448  0.00  0.00    +0.000 NA
ATOM     23  H   UNL     1      42.007   3.964  11.472  0.00  0.00    +0.000 HD
ATOM     24  H   UNL     1      42.617   2.454  11.451  0.00  0.00    +0.000 HD
ENDBRANCH  21  22
ENDBRANCH  15  21
ENDBRANCH  14  19
ENDBRANCH   1  14
TORSDOF 5
ENDMDL
