MODEL 1
REMARK VINA RESULT:    -6.377      0.000      0.000
REMARK INTER + INTRA:          -8.289
REMARK INTER:                  -7.868
REMARK INTRA:                  -0.420
REMARK UNBOUND:                -0.420
REMARK  Name = 
REMARK  7 active torsions:
REMARK  status: ('A' for Active; 'I' for Inactive)
REMARK    1  A    between atoms: C_1  and  C_2
REMARK    2  A    between atoms: C_2  and  C_3
REMARK    3  A    between atoms: C_2  and  C_4
REMARK    4  A    between atoms: C_2  and  C_5
REMARK    5  A    between atoms: C_8  and  C_9
REMARK    6  A    between atoms: N_16  and  C_17
REMARK    7  A    between atoms: C_17  and  C_18
REMARK                            x       y       z     vdW  Elec       q    Type
REMARK                         _______ _______ _______ _____ _____    ______ ____
ROOT
ATOM      1  C   UNL     1      44.896   5.065  12.392  0.00  0.00    +0.000 A 
ATOM      2  N   UNL     1      45.643   5.188  13.483  0.00  0.00    +0.000 NA
ATOM      3  C   UNL     1      46.768   5.890  13.126  0.00  0.00    +0.000 A 
ATOM      4  C   UNL     1      47.899   6.295  13.849  0.00  0.00    +0.000 A 
ATOM      5  C   UNL     1      48.892   7.001  13.160  0.00  0.00    +0.000 A 
ATOM      6  C   UNL     1      48.709   7.266  11.810  0.00  0.00    +0.000 A 
ATOM      7  N   UNL     1      47.637   6.895  11.070  0.00  0.00    +0.000 NA
ATOM      8  C   UNL     1      46.713   6.219  11.785  0.00  0.00    +0.000 A 
ATOM      9  N   UNL     1      45.537   5.673  11.317  0.00  0.00    +0.000 N 
ENDROOT
BRANCH   4  10
ATOM     10  C   UNL     1      48.066   5.990  15.284  0.00  0.00    +0.000 C 
ATOM     11  N   UNL     1      47.429   4.888  15.771  0.00  0.00    +0.000 N 
ATOM     12  O   UNL     1      48.752   6.705  16.007  0.00  0.00    +0.000 OA
ATOM     13  H   UNL     1      46.863   4.290  15.170  0.00  0.00    +0.000 HD
ATOM     14  H   UNL     1      47.526   4.654  16.749  0.00  0.00    +0.000 HD
ENDBRANCH   4  10
BRANCH   1  16
ATOM     15  C   UNL     1      42.963   4.442  13.852  0.00  0.00    +0.000 C 
ATOM     16  C   UNL     1      43.543   4.352  12.414  0.00  0.00    +0.000 C 
ATOM     17  C   UNL     1      43.654   2.859  12.084  0.00  0.00    +0.000 C 
ATOM     18  C   UNL     1      42.530   5.035  11.480  0.00  0.00    +0.000 C 
ENDBRANCH   1  16
BRANCH   9  19
ATOM     19  C   UNL     1      45.149   5.771   9.918  0.00  0.00    +0.000 C 
BRANCH  19  20
ATOM     20  C   UNL     1      45.597   4.590   9.092  0.00  0.00    +0.000 A 
ATOM     21  C   UNL     1      45.207   3.283   9.382  0.00  0.00    +0.000 A 
ATOM     22  C   UNL     1      45.579   2.258   8.519  0.00  0.00    +0.000 A 
ATOM     23  C   UNL     1      46.361   2.549   7.409  0.00  0.00    +0.000 A 
ATOM     24  C   UNL     1      46.759   3.859   7.219  0.00  0.00    +0.000 A 
ATOM     25  N   UNL     1      46.399   4.878   8.032  0.00  0.00    +0.000 NA
ENDBRANCH  19  20
ENDBRANCH   9  19
TORSDOF 4
ENDMDL
MODEL 2
REMARK VINA RESULT:    -6.252      3.096      7.224
REMARK INTER + INTRA:          -8.135
REMARK INTER:                  -7.337
REMARK INTRA:                  -0.798
REMARK UNBOUND:                -0.420
REMARK  Name = 
REMARK  7 active torsions:
REMARK  status: ('A' for Active; 'I' for Inactive)
REMARK    1  A    between atoms: C_1  and  C_2
REMARK    2  A    between atoms: C_2  and  C_3
REMARK    3  A    between atoms: C_2  and  C_4
REMARK    4  A    between atoms: C_2  and  C_5
REMARK    5  A    between atoms: C_8  and  C_9
REMARK    6  A    between atoms: N_16  and  C_17
REMARK    7  A    between atoms: C_17  and  C_18
REMARK                            x       y       z     vdW  Elec       q    Type
REMARK                         _______ _______ _______ _____ _____    ______ ____
ROOT
ATOM      1  C   UNL     1      47.762   4.863  15.916  0.00  0.00    +0.000 A 
ATOM      2  N   UNL     1      46.765   4.394  15.174  0.00  0.00    +0.000 NA
ATOM      3  C   UNL     1      46.767   5.102  13.998  0.00  0.00    +0.000 A 
ATOM      4  C   UNL     1      45.944   5.054  12.863  0.00  0.00    +0.000 A 
ATOM      5  C   UNL     1      46.222   5.946  11.822  0.00  0.00    +0.000 A 
ATOM      6  C   UNL     1      47.290   6.822  11.958  0.00  0.00    +0.000 A 
ATOM      7  N   UNL     1      48.110   6.906  13.033  0.00  0.00    +0.000 NA
ATOM      8  C   UNL     1      47.797   6.024  14.005  0.00  0.00    +0.000 A 
ATOM      9  N   UNL     1      48.409   5.886  15.232  0.00  0.00    +0.000 N 
ENDROOT
BRANCH   4  10
ATOM     10  C   UNL     1      44.810   4.114  12.753  0.00  0.00    +0.000 C 
ATOM     11  N   UNL     1      45.103   2.794  12.581  0.00  0.00    +0.000 N 
ATOM     12  O   UNL     1      43.651   4.511  12.812  0.00  0.00    +0.000 OA
ATOM     13  H   UNL     1      46.065   2.462  12.537  0.00  0.00    +0.000 HD
ATOM     14  H   UNL     1      44.347   2.128  12.503  0.00  0.00    +0.000 HD
ENDBRANCH   4  10
BRANCH   1  16
ATOM     15  C   UNL     1      47.395   2.904  17.427  0.00  0.00    +0.000 C 
ATOM     16  C   UNL     1      48.081   4.292  17.298  0.00  0.00    +0.000 C 
ATOM     17  C   UNL     1      47.527   5.156  18.438  0.00  0.00    +0.000 C 
ATOM     18  C   UNL     1      49.590   4.063  17.481  0.00  0.00    +0.000 C 
ENDBRANCH   1  16
BRANCH   9  19
ATOM     19  C   UNL     1      49.523   6.734  15.632  0.00  0.00    +0.000 C 
BRANCH  19  20
ATOM     20  C   UNL     1      49.128   7.815  16.608  0.00  0.00    +0.000 A 
ATOM     21  C   UNL     1      48.245   8.840  16.271  0.00  0.00    +0.000 A 
ATOM     22  C   UNL     1      47.851   9.744  17.252  0.00  0.00    +0.000 A 
ATOM     23  C   UNL     1      48.371   9.631  18.534  0.00  0.00    +0.000 A 
ATOM     24  C   UNL     1      49.287   8.625  18.778  0.00  0.00    +0.000 A 
ATOM     25  N   UNL     1      49.676   7.723  17.849  0.00  0.00    +0.000 NA
ENDBRANCH  19  20
ENDBRANCH   9  19
TORSDOF 4
ENDMDL
MODEL 3
REMARK VINA RESULT:    -5.976      2.377      4.338
REMARK INTER + INTRA:          -7.794
REMARK INTER:                  -7.460
REMARK INTRA:                  -0.333
REMARK UNBOUND:                -0.420
REMARK  Name = 
REMARK  7 active torsions:
REMARK  status: ('A' for Active; 'I' for Inactive)
REMARK    1  A    between atoms: C_1  and  C_2
REMARK    2  A    between atoms: C_2  and  C_3
REMARK    3  A    between atoms: C_2  and  C_4
REMARK    4  A    between atoms: C_2  and  C_5
REMARK    5  A    between atoms: C_8  and  C_9
REMARK    6  A    between atoms: N_16  and  C_17
REMARK    7  A    between atoms: C_17  and  C_18
REMARK                            x       y       z     vdW  Elec       q    Type
REMARK                         _______ _______ _______ _____ _____    ______ ____
ROOT
ATOM      1  C   UNL     1      45.846   4.976  13.169  0.00  0.00    +0.000 A 
ATOM      2  N   UNL     1      46.024   4.455  14.378  0.00  0.00    +0.000 NA
ATOM      3  C   UNL     1      47.127   5.063  14.922  0.00  0.00    +0.000 A 
ATOM      4  C   UNL     1      47.786   4.903  16.150  0.00  0.00    +0.000 A 
ATOM      5  C   UNL     1      48.917   5.692  16.387  0.00  0.00    +0.000 A 
ATOM      6  C   UNL     1      49.325   6.588  15.409  0.00  0.00    +0.000 A 
ATOM      7  N   UNL     1      48.723   6.777  14.210  0.00  0.00    +0.000 NA
ATOM      8  C   UNL     1      47.639   5.992  14.036  0.00  0.00    +0.000 A 
ATOM      9  N   UNL     1      46.840   5.916  12.916  0.00  0.00    +0.000 N 
ENDROOT
BRANCH   4  10
ATOM     10  C   UNL     1      47.330   3.934  17.167  0.00  0.00    +0.000 C 
ATOM     11  N   UNL     1      47.050   4.414  18.411  0.00  0.00    +0.000 N 
ATOM     12  O   UNL     1      47.212   2.743  16.898  0.00  0.00    +0.000 OA
ATOM     13  H   UNL     1      47.142   5.404  18.635  0.00  0.00    +0.000 HD
ATOM     14  H   UNL     1      46.735   3.774  19.127  0.00  0.00    +0.000 HD
ENDBRANCH   4  10
BRANCH   1  16
ATOM     15  C   UNL     1      44.392   3.047  12.519  0.00  0.00    +0.000 C 
ATOM     16  C   UNL     1      44.686   4.552  12.266  0.00  0.00    +0.000 C 
ATOM     17  C   UNL     1      45.018   4.684  10.775  0.00  0.00    +0.000 C 
ATOM     18  C   UNL     1      43.398   5.321  12.601  0.00  0.00    +0.000 C 
ENDBRANCH   1  16
BRANCH   9  19
ATOM     19  C   UNL     1      47.100   6.721  11.732  0.00  0.00    +0.000 C 
BRANCH  19  20
ATOM     20  C   UNL     1      46.498   8.103  11.809  0.00  0.00    +0.000 A 
ATOM     21  C   UNL     1      47.258   9.236  12.097  0.00  0.00    +0.000 A 
ATOM     22  C   UNL     1      46.653  10.487  12.054  0.00  0.00    +0.000 A 
ATOM     23  C   UNL     1      45.299  10.581  11.762  0.00  0.00    +0.000 A 
ATOM     24  C   UNL     1      44.597   9.410  11.545  0.00  0.00    +0.000 A 
ATOM     25  N   UNL     1      45.162   8.182  11.565  0.00  0.00    +0.000 NA
ENDBRANCH  19  20
ENDBRANCH   9  19
TORSDOF 4
ENDMDL
MODEL 4
REMARK VINA RESULT:    -5.852      2.860      5.011
REMARK INTER + INTRA:          -7.641
REMARK INTER:                  -6.807
REMARK INTRA:                  -0.834
REMARK UNBOUND:                -0.420
REMARK  Name = 
REMARK  7 active torsions:
REMARK  status: ('A' for Active; 'I' for Inactive)
REMARK    1  A    between atoms: C_1  and  C_2
REMARK    2  A    between atoms: C_2  and  C_3
REMARK    3  A    between atoms: C_2  and  C_4
REMARK    4  A    between atoms: C_2  and  C_5
REMARK    5  A    between atoms: C_8  and  C_9
REMARK    6  A    between atoms: N_16  and  C_17
REMARK    7  A    between atoms: C_17  and  C_18
REMARK                            x       y       z     vdW  Elec       q    Type
REMARK                         _______ _______ _______ _____ _____    ______ ____
ROOT
ATOM      1  C   UNL     1      47.872   6.805  14.107  0.00  0.00    +0.000 A 
ATOM      2  N   UNL     1      48.301   6.963  15.355  0.00  0.00    +0.000 NA
ATOM      3  C   UNL     1      48.192   5.744  15.977  0.00  0.00    +0.000 A 
ATOM      4  C   UNL     1      48.475   5.321  17.283  0.00  0.00    +0.000 A 
ATOM      5  C   UNL     1      48.231   3.980  17.599  0.00  0.00    +0.000 A 
ATOM      6  C   UNL     1      47.729   3.141  16.613  0.00  0.00    +0.000 A 
ATOM      7  N   UNL     1      47.439   3.504  15.341  0.00  0.00    +0.000 NA
ATOM      8  C   UNL     1      47.694   4.806  15.093  0.00  0.00    +0.000 A 
ATOM      9  N   UNL     1      47.469   5.488  13.916  0.00  0.00    +0.000 N 
ENDROOT
BRANCH   4  10
ATOM     10  C   UNL     1      49.002   6.241  18.312  0.00  0.00    +0.000 C 
ATOM     11  N   UNL     1      50.071   7.016  17.974  0.00  0.00    +0.000 N 
ATOM     12  O   UNL     1      48.495   6.300  19.427  0.00  0.00    +0.000 OA
ATOM     13  H   UNL     1      50.490   6.972  17.046  0.00  0.00    +0.000 HD
ATOM     14  H   UNL     1      50.451   7.655  18.657  0.00  0.00    +0.000 HD
ENDBRANCH   4  10
BRANCH   1  16
ATOM     15  C   UNL     1      48.901   9.019  13.566  0.00  0.00    +0.000 C 
ATOM     16  C   UNL     1      47.869   7.956  13.100  0.00  0.00    +0.000 C 
ATOM     17  C   UNL     1      46.515   8.672  13.024  0.00  0.00    +0.000 C 
ATOM     18  C   UNL     1      48.309   7.488  11.704  0.00  0.00    +0.000 C 
ENDBRANCH   1  16
BRANCH   9  19
ATOM     19  C   UNL     1      46.894   4.835  12.750  0.00  0.00    +0.000 C 
BRANCH  19  20
ATOM     20  C   UNL     1      45.414   5.085  12.597  0.00  0.00    +0.000 A 
ATOM     21  C   UNL     1      44.899   5.987  11.666  0.00  0.00    +0.000 A 
ATOM     22  C   UNL     1      43.521   6.093  11.515  0.00  0.00    +0.000 A 
ATOM     23  C   UNL     1      42.685   5.329  12.317  0.00  0.00    +0.000 A 
ATOM     24  C   UNL     1      43.266   4.500  13.259  0.00  0.00    +0.000 A 
ATOM     25  N   UNL     1      44.602   4.365  13.417  0.00  0.00    +0.000 NA
ENDBRANCH  19  20
ENDBRANCH   9  19
TORSDOF 4
ENDMDL
MODEL 5
REMARK VINA RESULT:    -5.830      3.205      6.962
REMARK INTER + INTRA:          -7.614
REMARK INTER:                  -7.005
REMARK INTRA:                  -0.609
REMARK UNBOUND:                -0.420
REMARK  Name = 
REMARK  7 active torsions:
REMARK  status: ('A' for Active; 'I' for Inactive)
REMARK    1  A    between atoms: C_1  and  C_2
REMARK    2  A    between atoms: C_2  and  C_3
REMARK    3  A    between atoms: C_2  and  C_4
REMARK    4  A    between atoms: C_2  and  C_5
REMARK    5  A    between atoms: C_8  and  C_9
REMARK    6  A    between atoms: N_16  and  C_17
REMARK    7  A    between atoms: C_17  and  C_18
REMARK                            x       y       z     vdW  Elec       q    Type
REMARK                         _______ _______ _______ _____ _____    ______ ____
ROOT
ATOM      1  C   UNL     1      47.515   8.241  12.545  0.00  0.00    +0.000 A 
ATOM      2  N   UNL     1      46.352   7.829  12.053  0.00  0.00    +0.000 NA
ATOM      3  C   UNL     1      46.196   6.517  12.427  0.00  0.00    +0.000 A 
ATOM      4  C   UNL     1      45.185   5.578  12.181  0.00  0.00    +0.000 A 
ATOM      5  C   UNL     1      45.349   4.294  12.712  0.00  0.00    +0.000 A 
ATOM      6  C   UNL     1      46.490   4.016  13.452  0.00  0.00    +0.000 A 
ATOM      7  N   UNL     1      47.492   4.888  13.714  0.00  0.00    +0.000 NA
ATOM      8  C   UNL     1      47.281   6.110  13.179  0.00  0.00    +0.000 A 
ATOM      9  N   UNL     1      48.126   7.197  13.231  0.00  0.00    +0.000 N 
ENDROOT
BRANCH   4  10
ATOM     10  C   UNL     1      43.985   5.903  11.383  0.00  0.00    +0.000 C 
ATOM     11  N   UNL     1      43.590   7.207  11.346  0.00  0.00    +0.000 N 
ATOM     12  O   UNL     1      43.371   5.030  10.779  0.00  0.00    +0.000 OA
ATOM     13  H   UNL     1      44.102   7.934  11.843  0.00  0.00    +0.000 HD
ATOM     14  H   UNL     1      42.773   7.459  10.807  0.00  0.00    +0.000 HD
ENDBRANCH   4  10
BRANCH   1  16
ATOM     15  C   UNL     1      46.860  10.520  11.751  0.00  0.00    +0.000 C 
ATOM     16  C   UNL     1      48.017   9.672  12.346  0.00  0.00    +0.000 C 
ATOM     17  C   UNL     1      49.177   9.758  11.347  0.00  0.00    +0.000 C 
ATOM     18  C   UNL     1      48.408  10.325  13.681  0.00  0.00    +0.000 C 
ENDBRANCH   1  16
BRANCH   9  19
ATOM     19  C   UNL     1      49.415   7.135  13.906  0.00  0.00    +0.000 C 
BRANCH  19  20
ATOM     20  C   UNL     1      49.296   7.088  15.410  0.00  0.00    +0.000 A 
ATOM     21  C   UNL     1      48.708   8.115  16.147  0.00  0.00    +0.000 A 
ATOM     22  C   UNL     1      48.546   7.958  17.519  0.00  0.00    +0.000 A 
ATOM     23  C   UNL     1      49.006   6.801  18.133  0.00  0.00    +0.000 A 
ATOM     24  C   UNL     1      49.632   5.852  17.346  0.00  0.00    +0.000 A 
ATOM     25  N   UNL     1      49.789   5.971  16.009  0.00  0.00    +0.000 NA
ENDBRANCH  19  20
ENDBRANCH   9  19
TORSDOF 4
ENDMDL
MODEL 6
REMARK VINA RESULT:    -5.706      2.707      4.796
REMARK INTER + INTRA:          -7.460
REMARK INTER:                  -6.956
REMARK INTRA:                  -0.505
REMARK UNBOUND:                -0.420
REMARK  Name = 
REMARK  7 active torsions:
REMARK  status: ('A' for Active; 'I' for Inactive)
REMARK    1  A    between atoms: C_1  and  C_2
REMARK    2  A    between atoms: C_2  and  C_3
REMARK    3  A    between atoms: C_2  and  C_4
REMARK    4  A    between atoms: C_2  and  C_5
REMARK    5  A    between atoms: C_8  and  C_9
REMARK    6  A    between atoms: N_16  and  C_17
REMARK    7  A    between atoms: C_17  and  C_18
REMARK                            x       y       z     vdW  Elec       q    Type
REMARK                         _______ _______ _______ _____ _____    ______ ____
ROOT
ATOM      1  C   UNL     1      46.418   5.559  13.321  0.00  0.00    +0.000 A 
ATOM      2  N   UNL     1      46.691   4.581  14.178  0.00  0.00    +0.000 NA
ATOM      3  C   UNL     1      47.570   5.088  15.103  0.00  0.00    +0.000 A 
ATOM      4  C   UNL     1      48.207   4.516  16.214  0.00  0.00    +0.000 A 
ATOM      5  C   UNL     1      49.073   5.327  16.954  0.00  0.00    +0.000 A 
ATOM      6  C   UNL     1      49.255   6.646  16.560  0.00  0.00    +0.000 A 
ATOM      7  N   UNL     1      48.665   7.241  15.496  0.00  0.00    +0.000 NA
ATOM      8  C   UNL     1      47.841   6.413  14.820  0.00  0.00    +0.000 A 
ATOM      9  N   UNL     1      47.129   6.701  13.676  0.00  0.00    +0.000 N 
ENDROOT
BRANCH   4  10
ATOM     10  C   UNL     1      47.997   3.106  16.603  0.00  0.00    +0.000 C 
ATOM     11  N   UNL     1      47.057   2.851  17.555  0.00  0.00    +0.000 N 
ATOM     12  O   UNL     1      48.648   2.204  16.086  0.00  0.00    +0.000 OA
ATOM     13  H   UNL     1      46.511   3.599  17.982  0.00  0.00    +0.000 HD
ATOM     14  H   UNL     1      46.891   1.896  17.840  0.00  0.00    +0.000 HD
ENDBRANCH   4  10
BRANCH   1  16
ATOM     15  C   UNL     1      45.199   3.844  11.968  0.00  0.00    +0.000 C 
ATOM     16  C   UNL     1      45.447   5.366  12.155  0.00  0.00    +0.000 C 
ATOM     17  C   UNL     1      46.011   5.880  10.824  0.00  0.00    +0.000 C 
ATOM     18  C   UNL     1      44.082   6.010  12.444  0.00  0.00    +0.000 C 
ENDBRANCH   1  16
BRANCH   9  19
ATOM     19  C   UNL     1      47.200   8.006  13.037  0.00  0.00    +0.000 C 
BRANCH  19  20
ATOM     20  C   UNL     1      48.563   8.316  12.468  0.00  0.00    +0.000 A 
ATOM     21  C   UNL     1      49.295   7.387  11.729  0.00  0.00    +0.000 A 
ATOM     22  C   UNL     1      50.499   7.776  11.153  0.00  0.00    +0.000 A 
ATOM     23  C   UNL     1      50.968   9.067  11.355  0.00  0.00    +0.000 A 
ATOM     24  C   UNL     1      50.217   9.915  12.149  0.00  0.00    +0.000 A 
ATOM     25  N   UNL     1      49.036   9.569  12.708  0.00  0.00    +0.000 NA
ENDBRANCH  19  20
ENDBRANCH   9  19
TORSDOF 4
ENDMDL
MODEL 7
REMARK VINA RESULT:    -5.324      3.206      7.072
REMARK INTER + INTRA:          -6.990
REMARK INTER:                  -6.743
REMARK INTRA:                  -0.247
REMARK UNBOUND:                -0.420
REMARK  Name = 
REMARK  7 active torsions:
REMARK  status: ('A' for Active; 'I' for Inactive)
REMARK    1  A    between atoms: C_1  and  C_2
REMARK    2  A    between atoms: C_2  and  C_3
REMARK    3  A    between atoms: C_2  and  C_4
REMARK    4  A    between atoms: C_2  and  C_5
REMARK    5  A    between atoms: C_8  and  C_9
REMARK    6  A    between atoms: N_16  and  C_17
REMARK    7  A    between atoms: C_17  and  C_18
REMARK                            x       y       z     vdW  Elec       q    Type
REMARK                         _______ _______ _______ _____ _____    ______ ____
ROOT
ATOM      1  C   UNL     1      48.135   4.741  16.271  0.00  0.00    +0.000 A 
ATOM      2  N   UNL     1      47.385   4.286  15.274  0.00  0.00    +0.000 NA
ATOM      3  C   UNL     1      47.350   5.267  14.314  0.00  0.00    +0.000 A 
ATOM      4  C   UNL     1      46.707   5.351  13.071  0.00  0.00    +0.000 A 
ATOM      5  C   UNL     1      46.874   6.527  12.331  0.00  0.00    +0.000 A 
ATOM      6  C   UNL     1      47.661   7.542  12.857  0.00  0.00    +0.000 A 
ATOM      7  N   UNL     1      48.299   7.508  14.052  0.00  0.00    +0.000 NA
ATOM      8  C   UNL     1      48.104   6.352  14.720  0.00  0.00    +0.000 A 
ATOM      9  N   UNL     1      48.580   6.025  15.972  0.00  0.00    +0.000 N 
ENDROOT
BRANCH   4  10
ATOM     10  C   UNL     1      45.869   4.255  12.542  0.00  0.00    +0.000 C 
ATOM     11  N   UNL     1      45.124   4.514  11.431  0.00  0.00    +0.000 N 
ATOM     12  O   UNL     1      45.846   3.157  13.088  0.00  0.00    +0.000 OA
ATOM     13  H   UNL     1      45.147   5.424  10.973  0.00  0.00    +0.000 HD
ATOM     14  H   UNL     1      44.542   3.782  11.047  0.00  0.00    +0.000 HD
ENDBRANCH   4  10
BRANCH   1  16
ATOM     15  C   UNL     1      47.307   2.827  17.652  0.00  0.00    +0.000 C 
ATOM     16  C   UNL     1      48.420   3.903  17.518  0.00  0.00    +0.000 C 
ATOM     17  C   UNL     1      48.382   4.729  18.809  0.00  0.00    +0.000 C 
ATOM     18  C   UNL     1      49.756   3.151  17.401  0.00  0.00    +0.000 C 
ENDBRANCH   1  16
BRANCH   9  19
ATOM     19  C   UNL     1      49.387   6.951  16.751  0.00  0.00    +0.000 C 
BRANCH  19  20
ATOM     20  C   UNL     1      50.867   6.821  16.484  0.00  0.00    +0.000 A 
ATOM     21  C   UNL     1      51.673   5.909  17.164  0.00  0.00    +0.000 A 
ATOM     22  C   UNL     1      53.007   5.777  16.795  0.00  0.00    +0.000 A 
ATOM     23  C   UNL     1      53.519   6.580  15.785  0.00  0.00    +0.000 A 
ATOM     24  C   UNL     1      52.675   7.503  15.196  0.00  0.00    +0.000 A 
ATOM     25  N   UNL     1      51.371   7.642  15.524  0.00  0.00    +0.000 NA
ENDBRANCH  19  20
ENDBRANCH   9  19
TORSDOF 4
ENDMDL
MODEL 8
REMARK VINA RESULT:    -5.172      3.528      7.657
REMARK INTER + INTRA:          -6.802
REMARK INTER:                  -6.129
REMARK INTRA:                  -0.673
REMARK UNBOUND:                -0.420
REMARK  Name = 
REMARK  7 active torsions:
REMARK  status: ('A' for Active; 'I' for Inactive)
REMARK    1  A    between atoms: C_1  and  C_2
REMARK    2  A    between atoms: C_2  and  C_3
REMARK    3  A    between atoms: C_2  and  C_4
REMARK    4  A    between atoms: C_2  and  C_5
REMARK    5  A    between atoms: C_8  and  C_9
REMARK    6  A    between atoms: N_16  and  C_17
REMARK    7  A    between atoms: C_17  and  C_18
REMARK                            x       y       z     vdW  Elec       q    Type
REMARK                         _______ _______ _______ _____ _____    ______ ____
ROOT
ATOM      1  C   UNL     1      49.018   6.818  16.207  0.00  0.00    +0.000 A 
ATOM      2  N   UNL     1      48.661   7.170  14.976  0.00  0.00    +0.000 NA
ATOM      3  C   UNL     1      47.931   6.131  14.454  0.00  0.00    +0.000 A 
ATOM      4  C   UNL     1      47.323   5.937  13.206  0.00  0.00    +0.000 A 
ATOM      5  C   UNL     1      46.652   4.727  12.991  0.00  0.00    +0.000 A 
ATOM      6  C   UNL     1      46.619   3.791  14.015  0.00  0.00    +0.000 A 
ATOM      7  N   UNL     1      47.192   3.932  15.234  0.00  0.00    +0.000 NA
ATOM      8  C   UNL     1      47.823   5.115  15.385  0.00  0.00    +0.000 A 
ATOM      9  N   UNL     1      48.534   5.543  16.485  0.00  0.00    +0.000 N 
ENDROOT
BRANCH   4  10
ATOM     10  C   UNL     1      47.383   6.952  12.134  0.00  0.00    +0.000 C 
ATOM     11  N   UNL     1      48.593   7.523  11.878  0.00  0.00    +0.000 N 
ATOM     12  O   UNL     1      46.379   7.267  11.504  0.00  0.00    +0.000 OA
ATOM     13  H   UNL     1      49.430   7.258  12.396  0.00  0.00    +0.000 HD
ATOM     14  H   UNL     1      48.665   8.220  11.149  0.00  0.00    +0.000 HD
ENDBRANCH   4  10
BRANCH   1  16
ATOM     15  C   UNL     1      51.336   7.409  16.935  0.00  0.00    +0.000 C 
ATOM     16  C   UNL     1      49.830   7.746  17.111  0.00  0.00    +0.000 C 
ATOM     17  C   UNL     1      49.513   7.549  18.599  0.00  0.00    +0.000 C 
ATOM     18  C   UNL     1      49.653   9.220  16.714  0.00  0.00    +0.000 C 
ENDBRANCH   1  16
BRANCH   9  19
ATOM     19  C   UNL     1      48.690   4.711  17.669  0.00  0.00    +0.000 C 
BRANCH  19  20
ATOM     20  C   UNL     1      49.920   3.837  17.623  0.00  0.00    +0.000 A 
ATOM     21  C   UNL     1      51.145   4.241  18.154  0.00  0.00    +0.000 A 
ATOM     22  C   UNL     1      52.208   3.344  18.163  0.00  0.00    +0.000 A 
ATOM     23  C   UNL     1      52.040   2.080  17.612  0.00  0.00    +0.000 A 
ATOM     24  C   UNL     1      50.815   1.772  17.051  0.00  0.00    +0.000 A 
ATOM     25  N   UNL     1      49.760   2.618  17.042  0.00  0.00    +0.000 NA
ENDBRANCH  19  20
ENDBRANCH   9  19
TORSDOF 4
ENDMDL
MODEL 9
REMARK VINA RESULT:    -5.017      3.243      6.036
REMARK INTER + INTRA:          -6.610
REMARK INTER:                  -6.137
REMARK INTRA:                  -0.473
REMARK UNBOUND:                -0.420
REMARK  Name = 
REMARK  7 active torsions:
REMARK  status: ('A' for Active; 'I' for Inactive)
REMARK    1  A    between atoms: C_1  and  C_2
REMARK    2  A    between atoms: C_2  and  C_3
REMARK    3  A    between atoms: C_2  and  C_4
REMARK    4  A    between atoms: C_2  and  C_5
REMARK    5  A    between atoms: C_8  and  C_9
REMARK    6  A    between atoms: N_16  and  C_17
REMARK    7  A    between atoms: C_17  and  C_18
REMARK                            x       y       z     vdW  Elec       q    Type
REMARK                         _______ _______ _______ _____ _____    ______ ____
ROOT
ATOM      1  C   UNL     1      45.004   8.386  11.729  0.00  0.00    +0.000 A 
ATOM      2  N   UNL     1      44.440   7.302  11.208  0.00  0.00    +0.000 NA
ATOM      3  C   UNL     1      44.950   6.218  11.879  0.00  0.00    +0.000 A 
ATOM      4  C   UNL     1      44.736   4.838  11.749  0.00  0.00    +0.000 A 
ATOM      5  C   UNL     1      45.444   3.988  12.605  0.00  0.00    +0.000 A 
ATOM      6  C   UNL     1      46.311   4.545  13.535  0.00  0.00    +0.000 A 
ATOM      7  N   UNL     1      46.552   5.868  13.697  0.00  0.00    +0.000 NA
ATOM      8  C   UNL     1      45.843   6.640  12.847  0.00  0.00    +0.000 A 
ATOM      9  N   UNL     1      45.893   8.012  12.731  0.00  0.00    +0.000 N 
ENDROOT
BRANCH   4  10
ATOM     10  C   UNL     1      43.811   4.277  10.743  0.00  0.00    +0.000 C 
ATOM     11  N   UNL     1      43.908   4.749   9.469  0.00  0.00    +0.000 N 
ATOM     12  O   UNL     1      42.988   3.421  11.049  0.00  0.00    +0.000 OA
ATOM     13  H   UNL     1      44.595   5.456   9.211  0.00  0.00    +0.000 HD
ATOM     14  H   UNL     1      43.288   4.382   8.759  0.00  0.00    +0.000 HD
ENDBRANCH   4  10
BRANCH   1  16
ATOM     15  C   UNL     1      43.793  10.491  12.327  0.00  0.00    +0.000 C 
ATOM     16  C   UNL     1      44.657   9.793  11.241  0.00  0.00    +0.000 C 
ATOM     17  C   UNL     1      43.816   9.784   9.958  0.00  0.00    +0.000 C 
ATOM     18  C   UNL     1      45.917  10.653  11.052  0.00  0.00    +0.000 C 
ENDBRANCH   1  16
BRANCH   9  19
ATOM     19  C   UNL     1      46.773   8.820  13.563  0.00  0.00    +0.000 C 
BRANCH  19  20
ATOM     20  C   UNL     1      48.148   9.006  12.968  0.00  0.00    +0.000 A 
ATOM     21  C   UNL     1      48.656   8.163  11.981  0.00  0.00    +0.000 A 
ATOM     22  C   UNL     1      49.891   8.455  11.410  0.00  0.00    +0.000 A 
ATOM     23  C   UNL     1      50.608   9.556  11.860  0.00  0.00    +0.000 A 
ATOM     24  C   UNL     1      50.066  10.311  12.884  0.00  0.00    +0.000 A 
ATOM     25  N   UNL     1      48.863  10.060  13.445  0.00  0.00    +0.000 NA
ENDBRANCH  19  20
ENDBRANCH   9  19
TORSDOF 4
ENDMDL
