MODEL 1
REMARK VINA RESULT:    -8.129      0.000      0.000
REMARK INTER + INTRA:         -10.508
REMARK INTER:                 -10.029
REMARK INTRA:                  -0.479
REMARK UNBOUND:                -0.479
REMARK  Name = 
REMARK  4 active torsions:
REMARK  status: ('A' for Active; 'I' for Inactive)
REMARK    1  A    between atoms: C_2  and  C_4
REMARK    2  A    between atoms: C_7  and  N_8
REMARK    3  A    between atoms: N_8  and  C_9
REMARK    4  A    between atoms: C_9  and  C_10
REMARK                            x       y       z     vdW  Elec       q    Type
REMARK                         _______ _______ _______ _____ _____    ______ ____
ROOT
ATOM      1  C   UNL     1      46.223   1.997   7.967  0.00  0.00    +0.000 A 
ATOM      2  N   UNL     1      45.587   1.644   9.130  0.00  0.00    +0.000 NA
ATOM      3  C   UNL     1      44.812   2.593   9.714  0.00  0.00    +0.000 A 
ATOM      4  C   UNL     1      44.619   3.885   9.228  0.00  0.00    +0.000 A 
ATOM      5  C   UNL     1      45.247   4.182   8.018  0.00  0.00    +0.000 A 
ATOM      6  C   UNL     1      46.070   3.247   7.375  0.00  0.00    +0.000 A 
ATOM      7 CL   UNL     1      46.836   3.757   5.918  0.00  0.00    +0.000 Cl
ENDROOT
BRANCH   1   9
ATOM      8  N   UNL     1      46.688  -0.366   7.643  0.00  0.00    +0.000 N 
ATOM      9  C   UNL     1      47.114   0.917   7.405  0.00  0.00    +0.000 C 
ATOM     10  O   UNL     1      48.151   1.110   6.786  0.00  0.00    +0.000 OA
ATOM     11  H   UNL     1      47.244  -1.141   7.311  0.00  0.00    +0.000 HD
ATOM     12  H   UNL     1      45.836  -0.525   8.168  0.00  0.00    +0.000 HD
ENDBRANCH   1   9
BRANCH   4  13
ATOM     13  N   UNL     1      43.857   4.824   9.947  0.00  0.00    +0.000 N 
ATOM     14  H   UNL     1      43.044   5.191   9.466  0.00  0.00    +0.000 HD
BRANCH  13  15
ATOM     15  C   UNL     1      43.891   4.980  11.415  0.00  0.00    +0.000 C 
ATOM     16  C   UNL     1      42.985   4.145  12.308  0.00  0.00    +0.000 C 
ATOM     17  C   UNL     1      42.656   5.581  12.086  0.00  0.00    +0.000 C 
BRANCH  15  18
ATOM     18  C   UNL     1      45.225   5.488  11.964  0.00  0.00    +0.000 A 
ATOM     19  C   UNL     1      45.855   4.852  13.052  0.00  0.00    +0.000 A 
ATOM     20  C   UNL     1      47.125   5.237  13.492  0.00  0.00    +0.000 A 
ATOM     21  C   UNL     1      47.793   6.280  12.859  0.00  0.00    +0.000 A 
ATOM     22  C   UNL     1      47.179   6.951  11.805  0.00  0.00    +0.000 A 
ATOM     23  C   UNL     1      45.908   6.563  11.371  0.00  0.00    +0.000 A 
ENDBRANCH  15  18
ENDBRANCH  13  15
ENDBRANCH   4  13
TORSDOF 4
ENDMDL
MODEL 2
REMARK VINA RESULT:    -7.949      1.672      2.139
REMARK INTER + INTRA:         -10.287
REMARK INTER:                  -9.726
REMARK INTRA:                  -0.562
REMARK UNBOUND:                -0.479
REMARK  Name = 
REMARK  4 active torsions:
REMARK  status: ('A' for Active; 'I' for Inactive)
REMARK    1  A    between atoms: C_2  and  C_4
REMARK    2  A    between atoms: C_7  and  N_8
REMARK    3  A    between atoms: N_8  and  C_9
REMARK    4  A    between atoms: C_9  and  C_10
REMARK                            x       y       z     vdW  Elec       q    Type
REMARK                         _______ _______ _______ _____ _____    ______ ____
ROOT
ATOM      1  C   UNL     1      46.801   2.906   7.335  0.00  0.00    +0.000 A 
ATOM      2  N   UNL     1      46.712   4.273   7.406  0.00  0.00    +0.000 NA
ATOM      3  C   UNL     1      45.808   4.781   8.281  0.00  0.00    +0.000 A 
ATOM      4  C   UNL     1      44.970   4.027   9.101  0.00  0.00    +0.000 A 
ATOM      5  C   UNL     1      45.130   2.642   9.028  0.00  0.00    +0.000 A 
ATOM      6  C   UNL     1      46.038   2.060   8.134  0.00  0.00    +0.000 A 
ATOM      7 CL   UNL     1      46.098   0.338   8.098  0.00  0.00    +0.000 Cl
ENDROOT
BRANCH   1   9
ATOM      8  N   UNL     1      47.768   3.098   5.114  0.00  0.00    +0.000 N 
ATOM      9  C   UNL     1      47.781   2.410   6.301  0.00  0.00    +0.000 C 
ATOM     10  O   UNL     1      48.545   1.466   6.449  0.00  0.00    +0.000 OA
ATOM     11  H   UNL     1      48.386   2.812   4.368  0.00  0.00    +0.000 HD
ATOM     12  H   UNL     1      47.124   3.871   4.986  0.00  0.00    +0.000 HD
ENDBRANCH   1   9
BRANCH   4  13
ATOM     13  N   UNL     1      44.009   4.645   9.920  0.00  0.00    +0.000 N 
ATOM     14  H   UNL     1      43.118   4.847   9.479  0.00  0.00    +0.000 HD
BRANCH  13  15
ATOM     15  C   UNL     1      44.034   4.628  11.397  0.00  0.00    +0.000 C 
ATOM     16  C   UNL     1      43.168   3.650  12.178  0.00  0.00    +0.000 C 
ATOM     17  C   UNL     1      42.770   5.084  12.126  0.00  0.00    +0.000 C 
BRANCH  15  18
ATOM     18  C   UNL     1      45.340   5.131  12.011  0.00  0.00    +0.000 A 
ATOM     19  C   UNL     1      45.907   6.358  11.614  0.00  0.00    +0.000 A 
ATOM     20  C   UNL     1      47.040   6.882  12.245  0.00  0.00    +0.000 A 
ATOM     21  C   UNL     1      47.642   6.181  13.283  0.00  0.00    +0.000 A 
ATOM     22  C   UNL     1      47.127   4.948  13.672  0.00  0.00    +0.000 A 
ATOM     23  C   UNL     1      45.995   4.428  13.037  0.00  0.00    +0.000 A 
ENDBRANCH  15  18
ENDBRANCH  13  15
ENDBRANCH   4  13
TORSDOF 4
ENDMDL
MODEL 3
REMARK VINA RESULT:    -6.683      4.031      6.414
REMARK INTER + INTRA:          -8.725
REMARK INTER:                  -8.274
REMARK INTRA:                  -0.450
REMARK UNBOUND:                -0.479
REMARK  Name = 
REMARK  4 active torsions:
REMARK  status: ('A' for Active; 'I' for Inactive)
REMARK    1  A    between atoms: C_2  and  C_4
REMARK    2  A    between atoms: C_7  and  N_8
REMARK    3  A    between atoms: N_8  and  C_9
REMARK    4  A    between atoms: C_9  and  C_10
REMARK                            x       y       z     vdW  Elec       q    Type
REMARK                         _______ _______ _______ _____ _____    ______ ____
ROOT
ATOM      1  C   UNL     1      48.081   6.258  14.608  0.00  0.00    +0.000 A 
ATOM      2  N   UNL     1      47.665   5.061  15.135  0.00  0.00    +0.000 NA
ATOM      3  C   UNL     1      46.690   4.402  14.458  0.00  0.00    +0.000 A 
ATOM      4  C   UNL     1      46.085   4.847  13.283  0.00  0.00    +0.000 A 
ATOM      5  C   UNL     1      46.576   6.045  12.759  0.00  0.00    +0.000 A 
ATOM      6  C   UNL     1      47.572   6.775  13.421  0.00  0.00    +0.000 A 
ATOM      7 CL   UNL     1      48.048   8.268  12.703  0.00  0.00    +0.000 Cl
ENDROOT
BRANCH   1   9
ATOM      8  N   UNL     1      48.643   7.993  16.213  0.00  0.00    +0.000 N 
ATOM      9  C   UNL     1      49.121   6.964  15.442  0.00  0.00    +0.000 C 
ATOM     10  O   UNL     1      50.313   6.690  15.461  0.00  0.00    +0.000 OA
ATOM     11  H   UNL     1      49.286   8.523  16.785  0.00  0.00    +0.000 HD
ATOM     12  H   UNL     1      47.658   8.229  16.185  0.00  0.00    +0.000 HD
ENDBRANCH   1   9
BRANCH   4  13
ATOM     13  N   UNL     1      45.028   4.130  12.696  0.00  0.00    +0.000 N 
ATOM     14  H   UNL     1      44.527   3.500  13.313  0.00  0.00    +0.000 HD
BRANCH  13  15
ATOM     15  C   UNL     1      44.347   4.519  11.445  0.00  0.00    +0.000 C 
ATOM     16  C   UNL     1      43.564   5.822  11.357  0.00  0.00    +0.000 C 
ATOM     17  C   UNL     1      42.818   4.536  11.453  0.00  0.00    +0.000 C 
BRANCH  15  18
ATOM     18  C   UNL     1      44.971   3.932  10.179  0.00  0.00    +0.000 A 
ATOM     19  C   UNL     1      44.973   2.542   9.945  0.00  0.00    +0.000 A 
ATOM     20  C   UNL     1      45.440   2.001   8.743  0.00  0.00    +0.000 A 
ATOM     21  C   UNL     1      45.931   2.840   7.748  0.00  0.00    +0.000 A 
ATOM     22  C   UNL     1      45.976   4.214   7.966  0.00  0.00    +0.000 A 
ATOM     23  C   UNL     1      45.509   4.750   9.170  0.00  0.00    +0.000 A 
ENDBRANCH  15  18
ENDBRANCH  13  15
ENDBRANCH   4  13
TORSDOF 4
ENDMDL
MODEL 4
REMARK VINA RESULT:    -6.492      3.911      6.642
REMARK INTER + INTRA:          -8.489
REMARK INTER:                  -8.633
REMARK INTRA:                   0.144
REMARK UNBOUND:                -0.479
REMARK  Name = 
REMARK  4 active torsions:
REMARK  status: ('A' for Active; 'I' for Inactive)
REMARK    1  A    between atoms: C_2  and  C_4
REMARK    2  A    between atoms: C_7  and  N_8
REMARK    3  A    between atoms: N_8  and  C_9
REMARK    4  A    between atoms: C_9  and  C_10
REMARK                            x       y       z     vdW  Elec       q    Type
REMARK                         _______ _______ _______ _____ _____    ______ ____
ROOT
ATOM      1  C   UNL     1      47.043   8.368  13.143  0.00  0.00    +0.000 A 
ATOM      2  N   UNL     1      45.706   8.671  13.088  0.00  0.00    +0.000 NA
ATOM      3  C   UNL     1      44.937   7.894  12.283  0.00  0.00    +0.000 A 
ATOM      4  C   UNL     1      45.400   6.827  11.514  0.00  0.00    +0.000 A 
ATOM      5  C   UNL     1      46.758   6.527  11.640  0.00  0.00    +0.000 A 
ATOM      6  C   UNL     1      47.603   7.302  12.446  0.00  0.00    +0.000 A 
ATOM      7 CL   UNL     1      49.270   6.866  12.470  0.00  0.00    +0.000 Cl
ENDROOT
BRANCH   1   9
ATOM      8  N   UNL     1      47.721   9.100  15.359  0.00  0.00    +0.000 N 
ATOM      9  C   UNL     1      47.847   9.307  14.008  0.00  0.00    +0.000 C 
ATOM     10  O   UNL     1      48.564  10.207  13.594  0.00  0.00    +0.000 OA
ATOM     11  H   UNL     1      48.217   9.702  16.001  0.00  0.00    +0.000 HD
ATOM     12  H   UNL     1      47.115   8.363  15.702  0.00  0.00    +0.000 HD
ENDBRANCH   1   9
BRANCH   4  13
ATOM     13  N   UNL     1      44.538   6.129  10.649  0.00  0.00    +0.000 N 
ATOM     14  H   UNL     1      44.318   6.596   9.777  0.00  0.00    +0.000 HD
BRANCH  13  15
ATOM     15  C   UNL     1      44.294   4.674  10.708  0.00  0.00    +0.000 C 
ATOM     16  C   UNL     1      43.051   4.120  11.391  0.00  0.00    +0.000 C 
ATOM     17  C   UNL     1      44.366   4.004  12.081  0.00  0.00    +0.000 C 
BRANCH  15  18
ATOM     18  C   UNL     1      44.946   3.879   9.577  0.00  0.00    +0.000 A 
ATOM     19  C   UNL     1      45.651   4.527   8.543  0.00  0.00    +0.000 A 
ATOM     20  C   UNL     1      46.345   3.808   7.565  0.00  0.00    +0.000 A 
ATOM     21  C   UNL     1      46.337   2.418   7.589  0.00  0.00    +0.000 A 
ATOM     22  C   UNL     1      45.618   1.749   8.576  0.00  0.00    +0.000 A 
ATOM     23  C   UNL     1      44.925   2.474   9.551  0.00  0.00    +0.000 A 
ENDBRANCH  15  18
ENDBRANCH  13  15
ENDBRANCH   4  13
TORSDOF 4
ENDMDL
MODEL 5
REMARK VINA RESULT:    -6.353      4.427      6.522
REMARK INTER + INTRA:          -8.318
REMARK INTER:                  -8.537
REMARK INTRA:                   0.219
REMARK UNBOUND:                -0.479
REMARK  Name = 
REMARK  4 active torsions:
REMARK  status: ('A' for Active; 'I' for Inactive)
REMARK    1  A    between atoms: C_2  and  C_4
REMARK    2  A    between atoms: C_7  and  N_8
REMARK    3  A    between atoms: N_8  and  C_9
REMARK    4  A    between atoms: C_9  and  C_10
REMARK                            x       y       z     vdW  Elec       q    Type
REMARK                         _______ _______ _______ _____ _____    ______ ____
ROOT
ATOM      1  C   UNL     1      47.742   3.885  15.481  0.00  0.00    +0.000 A 
ATOM      2  N   UNL     1      47.222   3.184  14.423  0.00  0.00    +0.000 NA
ATOM      3  C   UNL     1      46.851   3.907  13.336  0.00  0.00    +0.000 A 
ATOM      4  C   UNL     1      46.953   5.292  13.217  0.00  0.00    +0.000 A 
ATOM      5  C   UNL     1      47.533   5.956  14.300  0.00  0.00    +0.000 A 
ATOM      6  C   UNL     1      47.924   5.264  15.454  0.00  0.00    +0.000 A 
ATOM      7 CL   UNL     1      48.570   6.206  16.745  0.00  0.00    +0.000 Cl
ENDROOT
BRANCH   1   9
ATOM      8  N   UNL     1      47.053   2.860  17.574  0.00  0.00    +0.000 N 
ATOM      9  C   UNL     1      48.078   3.027  16.676  0.00  0.00    +0.000 C 
ATOM     10  O   UNL     1      49.163   2.504  16.886  0.00  0.00    +0.000 OA
ATOM     11  H   UNL     1      47.210   2.312  18.408  0.00  0.00    +0.000 HD
ATOM     12  H   UNL     1      46.158   3.306  17.407  0.00  0.00    +0.000 HD
ENDBRANCH   1   9
BRANCH   4  13
ATOM     13  N   UNL     1      46.469   5.960  12.079  0.00  0.00    +0.000 N 
ATOM     14  H   UNL     1      47.173   6.372  11.477  0.00  0.00    +0.000 HD
BRANCH  13  15
ATOM     15  C   UNL     1      45.130   5.748  11.491  0.00  0.00    +0.000 C 
ATOM     16  C   UNL     1      44.087   6.856  11.510  0.00  0.00    +0.000 C 
ATOM     17  C   UNL     1      43.940   5.710  12.450  0.00  0.00    +0.000 C 
BRANCH  15  18
ATOM     18  C   UNL     1      45.089   4.697  10.382  0.00  0.00    +0.000 A 
ATOM     19  C   UNL     1      45.646   4.954   9.114  0.00  0.00    +0.000 A 
ATOM     20  C   UNL     1      45.714   3.964   8.128  0.00  0.00    +0.000 A 
ATOM     21  C   UNL     1      45.211   2.694   8.384  0.00  0.00    +0.000 A 
ATOM     22  C   UNL     1      44.620   2.421   9.615  0.00  0.00    +0.000 A 
ATOM     23  C   UNL     1      44.554   3.415  10.596  0.00  0.00    +0.000 A 
ENDBRANCH  15  18
ENDBRANCH  13  15
ENDBRANCH   4  13
TORSDOF 4
ENDMDL
MODEL 6
REMARK VINA RESULT:    -6.311      4.218      6.756
REMARK INTER + INTRA:          -8.266
REMARK INTER:                  -8.052
REMARK INTRA:                  -0.214
REMARK UNBOUND:                -0.479
REMARK  Name = 
REMARK  4 active torsions:
REMARK  status: ('A' for Active; 'I' for Inactive)
REMARK    1  A    between atoms: C_2  and  C_4
REMARK    2  A    between atoms: C_7  and  N_8
REMARK    3  A    between atoms: N_8  and  C_9
REMARK    4  A    between atoms: C_9  and  C_10
REMARK                            x       y       z     vdW  Elec       q    Type
REMARK                         _______ _______ _______ _____ _____    ______ ____
ROOT
ATOM      1  C   UNL     1      47.933   6.063  14.652  0.00  0.00    +0.000 A 
ATOM      2  N   UNL     1      47.477   6.518  13.440  0.00  0.00    +0.000 NA
ATOM      3  C   UNL     1      46.615   5.711  12.772  0.00  0.00    +0.000 A 
ATOM      4  C   UNL     1      46.166   4.468  13.217  0.00  0.00    +0.000 A 
ATOM      5  C   UNL     1      46.619   4.071  14.476  0.00  0.00    +0.000 A 
ATOM      6  C   UNL     1      47.521   4.856  15.207  0.00  0.00    +0.000 A 
ATOM      7 CL   UNL     1      48.051   4.226  16.721  0.00  0.00    +0.000 Cl
ENDROOT
BRANCH   1   9
ATOM      8  N   UNL     1      48.404   8.135  15.832  0.00  0.00    +0.000 N 
ATOM      9  C   UNL     1      48.933   6.981  15.312  0.00  0.00    +0.000 C 
ATOM     10  O   UNL     1      50.135   6.769  15.396  0.00  0.00    +0.000 OA
ATOM     11  H   UNL     1      49.017   8.805  16.274  0.00  0.00    +0.000 HD
ATOM     12  H   UNL     1      47.410   8.316  15.749  0.00  0.00    +0.000 HD
ENDBRANCH   1   9
BRANCH   4  13
ATOM     13  N   UNL     1      45.331   3.669  12.415  0.00  0.00    +0.000 N 
ATOM     14  H   UNL     1      45.041   2.788  12.825  0.00  0.00    +0.000 HD
BRANCH  13  15
ATOM     15  C   UNL     1      44.536   4.171  11.277  0.00  0.00    +0.000 C 
ATOM     16  C   UNL     1      43.731   5.458  11.396  0.00  0.00    +0.000 C 
ATOM     17  C   UNL     1      43.014   4.152  11.421  0.00  0.00    +0.000 C 
BRANCH  15  18
ATOM     18  C   UNL     1      45.051   3.733   9.906  0.00  0.00    +0.000 A 
ATOM     19  C   UNL     1      45.555   4.671   8.983  0.00  0.00    +0.000 A 
ATOM     20  C   UNL     1      46.131   4.273   7.772  0.00  0.00    +0.000 A 
ATOM     21  C   UNL     1      46.204   2.923   7.449  0.00  0.00    +0.000 A 
ATOM     22  C   UNL     1      45.681   1.975   8.325  0.00  0.00    +0.000 A 
ATOM     23  C   UNL     1      45.105   2.379   9.533  0.00  0.00    +0.000 A 
ENDBRANCH  15  18
ENDBRANCH  13  15
ENDBRANCH   4  13
TORSDOF 4
ENDMDL
MODEL 7
REMARK VINA RESULT:    -5.809      3.153      5.056
REMARK INTER + INTRA:          -7.646
REMARK INTER:                  -7.429
REMARK INTRA:                  -0.218
REMARK UNBOUND:                -0.479
REMARK  Name = 
REMARK  4 active torsions:
REMARK  status: ('A' for Active; 'I' for Inactive)
REMARK    1  A    between atoms: C_2  and  C_4
REMARK    2  A    between atoms: C_7  and  N_8
REMARK    3  A    between atoms: N_8  and  C_9
REMARK    4  A    between atoms: C_9  and  C_10
REMARK                            x       y       z     vdW  Elec       q    Type
REMARK                         _______ _______ _______ _____ _____    ______ ____
ROOT
ATOM      1  C   UNL     1      44.579   4.209  11.444  0.00  0.00    +0.000 A 
ATOM      2  N   UNL     1      44.386   4.447  12.782  0.00  0.00    +0.000 NA
ATOM      3  C   UNL     1      44.920   5.591  13.281  0.00  0.00    +0.000 A 
ATOM      4  C   UNL     1      45.643   6.528  12.546  0.00  0.00    +0.000 A 
ATOM      5  C   UNL     1      45.772   6.267  11.181  0.00  0.00    +0.000 A 
ATOM      6  C   UNL     1      45.253   5.096  10.611  0.00  0.00    +0.000 A 
ATOM      7 CL   UNL     1      45.531   4.861   8.927  0.00  0.00    +0.000 Cl
ENDROOT
BRANCH   1   9
ATOM      8  N   UNL     1      44.769   2.244  10.026  0.00  0.00    +0.000 N 
ATOM      9  C   UNL     1      44.013   2.893  10.970  0.00  0.00    +0.000 C 
ATOM     10  O   UNL     1      42.962   2.399  11.354  0.00  0.00    +0.000 OA
ATOM     11  H   UNL     1      44.444   1.365   9.650  0.00  0.00    +0.000 HD
ATOM     12  H   UNL     1      45.633   2.662   9.698  0.00  0.00    +0.000 HD
ENDBRANCH   1   9
BRANCH   4  13
ATOM     13  N   UNL     1      46.224   7.647  13.170  0.00  0.00    +0.000 N 
ATOM     14  H   UNL     1      45.639   8.127  13.845  0.00  0.00    +0.000 HD
BRANCH  13  15
ATOM     15  C   UNL     1      47.676   7.903  13.244  0.00  0.00    +0.000 C 
ATOM     16  C   UNL     1      48.638   6.809  13.685  0.00  0.00    +0.000 C 
ATOM     17  C   UNL     1      48.318   7.914  14.631  0.00  0.00    +0.000 C 
BRANCH  15  18
ATOM     18  C   UNL     1      48.171   9.004  12.305  0.00  0.00    +0.000 A 
ATOM     19  C   UNL     1      47.355  10.106  11.980  0.00  0.00    +0.000 A 
ATOM     20  C   UNL     1      47.833  11.173  11.213  0.00  0.00    +0.000 A 
ATOM     21  C   UNL     1      49.140  11.155  10.739  0.00  0.00    +0.000 A 
ATOM     22  C   UNL     1      49.958  10.062  11.011  0.00  0.00    +0.000 A 
ATOM     23  C   UNL     1      49.473   8.997  11.777  0.00  0.00    +0.000 A 
ENDBRANCH  15  18
ENDBRANCH  13  15
ENDBRANCH   4  13
TORSDOF 4
ENDMDL
MODEL 8
REMARK VINA RESULT:    -5.665      4.568      6.321
REMARK INTER + INTRA:          -7.468
REMARK INTER:                  -7.188
REMARK INTRA:                  -0.280
REMARK UNBOUND:                -0.479
REMARK  Name = 
REMARK  4 active torsions:
REMARK  status: ('A' for Active; 'I' for Inactive)
REMARK    1  A    between atoms: C_2  and  C_4
REMARK    2  A    between atoms: C_7  and  N_8
REMARK    3  A    between atoms: N_8  and  C_9
REMARK    4  A    between atoms: C_9  and  C_10
REMARK                            x       y       z     vdW  Elec       q    Type
REMARK                         _______ _______ _______ _____ _____    ______ ____
ROOT
ATOM      1  C   UNL     1      45.287   3.877  12.321  0.00  0.00    +0.000 A 
ATOM      2  N   UNL     1      46.028   2.940  12.995  0.00  0.00    +0.000 NA
ATOM      3  C   UNL     1      46.804   3.393  14.013  0.00  0.00    +0.000 A 
ATOM      4  C   UNL     1      46.906   4.723  14.417  0.00  0.00    +0.000 A 
ATOM      5  C   UNL     1      46.097   5.632  13.733  0.00  0.00    +0.000 A 
ATOM      6  C   UNL     1      45.285   5.225  12.665  0.00  0.00    +0.000 A 
ATOM      7 CL   UNL     1      44.380   6.454  11.864  0.00  0.00    +0.000 Cl
ENDROOT
BRANCH   1   9
ATOM      8  N   UNL     1      45.206   3.150  10.004  0.00  0.00    +0.000 N 
ATOM      9  C   UNL     1      44.496   3.315  11.166  0.00  0.00    +0.000 C 
ATOM     10  O   UNL     1      43.309   3.020  11.202  0.00  0.00    +0.000 OA
ATOM     11  H   UNL     1      44.737   2.794   9.183  0.00  0.00    +0.000 HD
ATOM     12  H   UNL     1      46.186   3.408   9.971  0.00  0.00    +0.000 HD
ENDBRANCH   1   9
BRANCH   4  13
ATOM     13  N   UNL     1      47.798   5.106  15.434  0.00  0.00    +0.000 N 
ATOM     14  H   UNL     1      48.126   6.064  15.394  0.00  0.00    +0.000 HD
BRANCH  13  15
ATOM     15  C   UNL     1      47.944   4.404  16.725  0.00  0.00    +0.000 C 
ATOM     16  C   UNL     1      46.751   3.727  17.383  0.00  0.00    +0.000 C 
ATOM     17  C   UNL     1      47.248   5.016  17.940  0.00  0.00    +0.000 C 
BRANCH  15  18
ATOM     18  C   UNL     1      49.352   3.873  16.998  0.00  0.00    +0.000 A 
ATOM     19  C   UNL     1      50.411   4.746  17.316  0.00  0.00    +0.000 A 
ATOM     20  C   UNL     1      51.675   4.267  17.675  0.00  0.00    +0.000 A 
ATOM     21  C   UNL     1      51.914   2.898  17.711  0.00  0.00    +0.000 A 
ATOM     22  C   UNL     1      50.897   2.012  17.365  0.00  0.00    +0.000 A 
ATOM     23  C   UNL     1      49.636   2.497  17.005  0.00  0.00    +0.000 A 
ENDBRANCH  15  18
ENDBRANCH  13  15
ENDBRANCH   4  13
TORSDOF 4
ENDMDL
MODEL 9
REMARK VINA RESULT:    -5.578      3.797      5.487
REMARK INTER + INTRA:          -7.361
REMARK INTER:                  -7.196
REMARK INTRA:                  -0.165
REMARK UNBOUND:                -0.479
REMARK  Name = 
REMARK  4 active torsions:
REMARK  status: ('A' for Active; 'I' for Inactive)
REMARK    1  A    between atoms: C_2  and  C_4
REMARK    2  A    between atoms: C_7  and  N_8
REMARK    3  A    between atoms: N_8  and  C_9
REMARK    4  A    between atoms: C_9  and  C_10
REMARK                            x       y       z     vdW  Elec       q    Type
REMARK                         _______ _______ _______ _____ _____    ______ ____
ROOT
ATOM      1  C   UNL     1      44.734   3.818  12.147  0.00  0.00    +0.000 A 
ATOM      2  N   UNL     1      45.794   3.334  12.871  0.00  0.00    +0.000 NA
ATOM      3  C   UNL     1      46.567   4.250  13.509  0.00  0.00    +0.000 A 
ATOM      4  C   UNL     1      46.368   5.629  13.479  0.00  0.00    +0.000 A 
ATOM      5  C   UNL     1      45.250   6.070  12.770  0.00  0.00    +0.000 A 
ATOM      6  C   UNL     1      44.423   5.172  12.081  0.00  0.00    +0.000 A 
ATOM      7 CL   UNL     1      43.110   5.848  11.193  0.00  0.00    +0.000 Cl
ENDROOT
BRANCH   1   9
ATOM      8  N   UNL     1      44.520   2.326  10.241  0.00  0.00    +0.000 N 
ATOM      9  C   UNL     1      43.956   2.752  11.417  0.00  0.00    +0.000 C 
ATOM     10  O   UNL     1      42.894   2.274  11.790  0.00  0.00    +0.000 OA
ATOM     11  H   UNL     1      44.046   1.625   9.689  0.00  0.00    +0.000 HD
ATOM     12  H   UNL     1      45.394   2.732   9.924  0.00  0.00    +0.000 HD
ENDBRANCH   1   9
BRANCH   4  13
ATOM     13  N   UNL     1      47.270   6.505  14.110  0.00  0.00    +0.000 N 
ATOM     14  H   UNL     1      47.577   6.229  15.036  0.00  0.00    +0.000 HD
BRANCH  13  15
ATOM     15  C   UNL     1      48.095   7.506  13.404  0.00  0.00    +0.000 C 
ATOM     16  C   UNL     1      48.130   7.553  11.883  0.00  0.00    +0.000 C 
ATOM     17  C   UNL     1      49.300   6.992  12.616  0.00  0.00    +0.000 C 
BRANCH  15  18
ATOM     18  C   UNL     1      48.353   8.785  14.201  0.00  0.00    +0.000 A 
ATOM     19  C   UNL     1      48.335   8.782  15.610  0.00  0.00    +0.000 A 
ATOM     20  C   UNL     1      48.678   9.917  16.351  0.00  0.00    +0.000 A 
ATOM     21  C   UNL     1      49.034  11.091  15.697  0.00  0.00    +0.000 A 
ATOM     22  C   UNL     1      49.024  11.135  14.306  0.00  0.00    +0.000 A 
ATOM     23  C   UNL     1      48.679   9.997  13.570  0.00  0.00    +0.000 A 
ENDBRANCH  15  18
ENDBRANCH  13  15
ENDBRANCH   4  13
TORSDOF 4
ENDMDL
