MODEL 1
REMARK VINA RESULT:    -7.196      0.000      0.000
REMARK INTER + INTRA:         -10.400
REMARK INTER:                  -9.299
REMARK INTRA:                  -1.101
REMARK UNBOUND:                -1.101
REMARK  Name = 
REMARK  7 active torsions:
REMARK  status: ('A' for Active; 'I' for Inactive)
REMARK    1  A    between atoms: C_1  and  C_2
REMARK    2  A    between atoms: C_2  and  N_3
REMARK    3  A    between atoms: C_2  and  C_17
REMARK    4  A    between atoms: C_4  and  C_6
REMARK    5  A    between atoms: N_12  and  C_13
REMARK    6  A    between atoms: C_20  and  O_21
REMARK    7  A    between atoms: O_21  and  C_22
REMARK                            x       y       z     vdW  Elec       q    Type
REMARK                         _______ _______ _______ _____ _____    ______ ____
ROOT
ATOM      1  C   UNL     1      47.425   8.942  12.216  0.00  0.00    +0.000 C 
ATOM      2  C   UNL     1      46.789   7.957  13.203  0.00  0.00    +0.000 C 
ENDROOT
BRANCH   2   3
ATOM      3  C   UNL     1      45.932   6.914  12.517  0.00  0.00    +0.000 A 
ATOM      4  C   UNL     1      44.763   7.277  11.837  0.00  0.00    +0.000 A 
ATOM      5  C   UNL     1      44.064   6.323  11.094  0.00  0.00    +0.000 A 
ATOM      6  C   UNL     1      44.554   5.027  11.071  0.00  0.00    +0.000 A 
ATOM      7  N   UNL     1      45.598   4.619  11.820  0.00  0.00    +0.000 NA
ATOM      8  C   UNL     1      46.261   5.562  12.517  0.00  0.00    +0.000 A 
BRANCH   6   9
ATOM      9  O   UNL     1      43.974   4.126  10.195  0.00  0.00    +0.000 OA
BRANCH   9  10
ATOM     10  C   UNL     1      44.814   3.529   9.279  0.00  0.00    +0.000 A 
ATOM     11  C   UNL     1      45.128   2.167   9.285  0.00  0.00    +0.000 A 
ATOM     12  N   UNL     1      45.974   1.590   8.394  0.00  0.00    +0.000 NA
ATOM     13  C   UNL     1      46.511   2.440   7.494  0.00  0.00    +0.000 A 
ATOM     14  C   UNL     1      46.240   3.799   7.505  0.00  0.00    +0.000 A 
ATOM     15  N   UNL     1      45.403   4.376   8.401  0.00  0.00    +0.000 NA
ENDBRANCH   9  10
ENDBRANCH   6   9
ENDBRANCH   2   3
BRANCH   2  16
ATOM     16  N   UNL     1      47.799   7.307  14.010  0.00  0.00    +0.000 N 
ATOM     17  C   UNL     1      48.377   7.908  15.100  0.00  0.00    +0.000 C 
ATOM     18  O   UNL     1      47.988   8.982  15.545  0.00  0.00    +0.000 OA
ATOM     19  H   UNL     1      48.283   6.530  13.575  0.00  0.00    +0.000 HD
BRANCH  17  20
ATOM     20  C   UNL     1      49.451   7.145  15.749  0.00  0.00    +0.000 A 
ATOM     21  C   UNL     1      50.746   7.646  15.767  0.00  0.00    +0.000 A 
ATOM     22  S   UNL     1      51.843   6.659  16.622  0.00  0.00    +0.000 S 
ATOM     23  C   UNL     1      50.637   5.505  16.952  0.00  0.00    +0.000 A 
ATOM     24  N   UNL     1      50.921   4.381  17.658  0.00  0.00    +0.000 NA
ATOM     25  C   UNL     1      49.923   3.570  17.801  0.00  0.00    +0.000 A 
ATOM     26  N   UNL     1      48.651   3.771  17.304  0.00  0.00    +0.000 N 
ATOM     27  C   UNL     1      47.616   2.777  17.506  0.00  0.00    +0.000 C 
ATOM     28  C   UNL     1      48.318   4.929  16.608  0.00  0.00    +0.000 A 
ATOM     29  O   UNL     1      47.181   5.158  16.200  0.00  0.00    +0.000 OA
ATOM     30  C   UNL     1      49.414   5.866  16.422  0.00  0.00    +0.000 A 
ENDBRANCH  17  20
ENDBRANCH   2  16
TORSDOF 5
ENDMDL
MODEL 2
REMARK VINA RESULT:    -7.084      1.800      1.921
REMARK INTER + INTRA:         -10.255
REMARK INTER:                  -9.316
REMARK INTRA:                  -0.939
REMARK UNBOUND:                -1.101
REMARK  Name = 
REMARK  7 active torsions:
REMARK  status: ('A' for Active; 'I' for Inactive)
REMARK    1  A    between atoms: C_1  and  C_2
REMARK    2  A    between atoms: C_2  and  N_3
REMARK    3  A    between atoms: C_2  and  C_17
REMARK    4  A    between atoms: C_4  and  C_6
REMARK    5  A    between atoms: N_12  and  C_13
REMARK    6  A    between atoms: C_20  and  O_21
REMARK    7  A    between atoms: O_21  and  C_22
REMARK                            x       y       z     vdW  Elec       q    Type
REMARK                         _______ _______ _______ _____ _____    ______ ____
ROOT
ATOM      1  C   UNL     1      49.359   7.361  12.940  0.00  0.00    +0.000 C 
ATOM      2  C   UNL     1      47.987   7.775  13.486  0.00  0.00    +0.000 C 
ENDROOT
BRANCH   2   3
ATOM      3  C   UNL     1      46.845   7.058  12.798  0.00  0.00    +0.000 A 
ATOM      4  C   UNL     1      45.912   7.765  12.028  0.00  0.00    +0.000 A 
ATOM      5  C   UNL     1      44.951   7.071  11.289  0.00  0.00    +0.000 A 
ATOM      6  C   UNL     1      44.946   5.687  11.360  0.00  0.00    +0.000 A 
ATOM      7  N   UNL     1      45.743   4.988  12.193  0.00  0.00    +0.000 NA
ATOM      8  C   UNL     1      46.669   5.681  12.885  0.00  0.00    +0.000 A 
BRANCH   6   9
ATOM      9  O   UNL     1      44.120   4.993  10.495  0.00  0.00    +0.000 OA
BRANCH   9  10
ATOM     10  C   UNL     1      44.737   4.123   9.620  0.00  0.00    +0.000 A 
ATOM     11  C   UNL     1      44.663   2.731   9.726  0.00  0.00    +0.000 A 
ATOM     12  N   UNL     1      45.292   1.881   8.874  0.00  0.00    +0.000 NA
ATOM     13  C   UNL     1      46.017   2.483   7.909  0.00  0.00    +0.000 A 
ATOM     14  C   UNL     1      46.131   3.861   7.820  0.00  0.00    +0.000 A 
ATOM     15  N   UNL     1      45.512   4.709   8.676  0.00  0.00    +0.000 NA
ENDBRANCH   9  10
ENDBRANCH   6   9
ENDBRANCH   2   3
BRANCH   2  16
ATOM     16  N   UNL     1      47.912   7.559  14.914  0.00  0.00    +0.000 N 
ATOM     17  C   UNL     1      48.572   8.350  15.820  0.00  0.00    +0.000 C 
ATOM     18  O   UNL     1      49.168   9.371  15.494  0.00  0.00    +0.000 OA
ATOM     19  H   UNL     1      47.611   6.637  15.210  0.00  0.00    +0.000 HD
BRANCH  17  20
ATOM     20  C   UNL     1      48.462   7.934  17.225  0.00  0.00    +0.000 A 
ATOM     21  C   UNL     1      48.184   8.874  18.208  0.00  0.00    +0.000 A 
ATOM     22  S   UNL     1      48.026   8.199  19.766  0.00  0.00    +0.000 S 
ATOM     23  C   UNL     1      48.376   6.637  19.188  0.00  0.00    +0.000 A 
ATOM     24  N   UNL     1      48.409   5.573  20.029  0.00  0.00    +0.000 NA
ATOM     25  C   UNL     1      48.727   4.452  19.465  0.00  0.00    +0.000 A 
ATOM     26  N   UNL     1      49.019   4.285  18.126  0.00  0.00    +0.000 N 
ATOM     27  C   UNL     1      49.389   2.981  17.610  0.00  0.00    +0.000 C 
ATOM     28  C   UNL     1      48.957   5.348  17.231  0.00  0.00    +0.000 A 
ATOM     29  O   UNL     1      49.161   5.218  16.025  0.00  0.00    +0.000 OA
ATOM     30  C   UNL     1      48.607   6.627  17.826  0.00  0.00    +0.000 A 
ENDBRANCH  17  20
ENDBRANCH   2  16
TORSDOF 5
ENDMDL
MODEL 3
REMARK VINA RESULT:    -7.066      2.707      3.541
REMARK INTER + INTRA:         -10.232
REMARK INTER:                  -9.238
REMARK INTRA:                  -0.995
REMARK UNBOUND:                -1.101
REMARK  Name = 
REMARK  7 active torsions:
REMARK  status: ('A' for Active; 'I' for Inactive)
REMARK    1  A    between atoms: C_1  and  C_2
REMARK    2  A    between atoms: C_2  and  N_3
REMARK    3  A    between atoms: C_2  and  C_17
REMARK    4  A    between atoms: C_4  and  C_6
REMARK    5  A    between atoms: N_12  and  C_13
REMARK    6  A    between atoms: C_20  and  O_21
REMARK    7  A    between atoms: O_21  and  C_22
REMARK                            x       y       z     vdW  Elec       q    Type
REMARK                         _______ _______ _______ _____ _____    ______ ____
ROOT
ATOM      1  C   UNL     1      47.148   4.389  15.677  0.00  0.00    +0.000 C 
ATOM      2  C   UNL     1      47.599   5.282  14.515  0.00  0.00    +0.000 C 
ENDROOT
BRANCH   2   3
ATOM      3  C   UNL     1      46.672   5.199  13.321  0.00  0.00    +0.000 A 
ATOM      4  C   UNL     1      46.749   6.137  12.284  0.00  0.00    +0.000 A 
ATOM      5  C   UNL     1      45.984   5.963  11.129  0.00  0.00    +0.000 A 
ATOM      6  C   UNL     1      45.151   4.858  11.058  0.00  0.00    +0.000 A 
ATOM      7  N   UNL     1      44.957   4.012  12.091  0.00  0.00    +0.000 NA
ATOM      8  C   UNL     1      45.717   4.196  13.188  0.00  0.00    +0.000 A 
BRANCH   6   9
ATOM      9  O   UNL     1      44.533   4.583   9.851  0.00  0.00    +0.000 OA
BRANCH   9  10
ATOM     10  C   UNL     1      45.230   3.783   8.971  0.00  0.00    +0.000 A 
ATOM     11  C   UNL     1      45.327   2.394   9.093  0.00  0.00    +0.000 A 
ATOM     12  N   UNL     1      46.034   1.614   8.234  0.00  0.00    +0.000 NA
ATOM     13  C   UNL     1      46.658   2.287   7.246  0.00  0.00    +0.000 A 
ATOM     14  C   UNL     1      46.603   3.668   7.139  0.00  0.00    +0.000 A 
ATOM     15  N   UNL     1      45.905   4.446   8.002  0.00  0.00    +0.000 NA
ENDBRANCH   9  10
ENDBRANCH   6   9
ENDBRANCH   2   3
BRANCH   2  16
ATOM     16  N   UNL     1      47.728   6.658  14.940  0.00  0.00    +0.000 N 
ATOM     17  C   UNL     1      48.944   7.265  15.132  0.00  0.00    +0.000 C 
ATOM     18  O   UNL     1      50.005   6.727  14.834  0.00  0.00    +0.000 OA
ATOM     19  H   UNL     1      46.912   7.066  15.382  0.00  0.00    +0.000 HD
BRANCH  17  20
ATOM     20  C   UNL     1      48.893   8.637  15.655  0.00  0.00    +0.000 A 
ATOM     21  C   UNL     1      49.256   9.703  14.843  0.00  0.00    +0.000 A 
ATOM     22  S   UNL     1      49.069  11.222  15.595  0.00  0.00    +0.000 S 
ATOM     23  C   UNL     1      48.547  10.503  17.047  0.00  0.00    +0.000 A 
ATOM     24  N   UNL     1      48.224  11.262  18.125  0.00  0.00    +0.000 NA
ATOM     25  C   UNL     1      47.883  10.586  19.174  0.00  0.00    +0.000 A 
ATOM     26  N   UNL     1      47.832   9.210  19.258  0.00  0.00    +0.000 N 
ATOM     27  C   UNL     1      47.459   8.560  20.500  0.00  0.00    +0.000 C 
ATOM     28  C   UNL     1      48.121   8.405  18.161  0.00  0.00    +0.000 A 
ATOM     29  O   UNL     1      48.032   7.179  18.192  0.00  0.00    +0.000 OA
ATOM     30  C   UNL     1      48.513   9.126  16.961  0.00  0.00    +0.000 A 
ENDBRANCH  17  20
ENDBRANCH   2  16
TORSDOF 5
ENDMDL
MODEL 4
REMARK VINA RESULT:    -6.602      2.159      4.299
REMARK INTER + INTRA:          -9.633
REMARK INTER:                  -8.670
REMARK INTRA:                  -0.963
REMARK UNBOUND:                -1.101
REMARK  Name = 
REMARK  7 active torsions:
REMARK  status: ('A' for Active; 'I' for Inactive)
REMARK    1  A    between atoms: C_1  and  C_2
REMARK    2  A    between atoms: C_2  and  N_3
REMARK    3  A    between atoms: C_2  and  C_17
REMARK    4  A    between atoms: C_4  and  C_6
REMARK    5  A    between atoms: N_12  and  C_13
REMARK    6  A    between atoms: C_20  and  O_21
REMARK    7  A    between atoms: O_21  and  C_22
REMARK                            x       y       z     vdW  Elec       q    Type
REMARK                         _______ _______ _______ _____ _____    ______ ____
ROOT
ATOM      1  C   UNL     1      47.144   3.970  16.168  0.00  0.00    +0.000 C 
ATOM      2  C   UNL     1      47.585   4.670  14.877  0.00  0.00    +0.000 C 
ENDROOT
BRANCH   2   3
ATOM      3  C   UNL     1      46.587   4.499  13.751  0.00  0.00    +0.000 A 
ATOM      4  C   UNL     1      46.159   5.599  12.997  0.00  0.00    +0.000 A 
ATOM      5  C   UNL     1      45.349   5.402  11.876  0.00  0.00    +0.000 A 
ATOM      6  C   UNL     1      44.980   4.105  11.557  0.00  0.00    +0.000 A 
ATOM      7  N   UNL     1      45.266   3.042  12.337  0.00  0.00    +0.000 NA
ATOM      8  C   UNL     1      46.058   3.260  13.405  0.00  0.00    +0.000 A 
BRANCH   6   9
ATOM      9  O   UNL     1      44.335   3.888  10.352  0.00  0.00    +0.000 OA
BRANCH   9  10
ATOM     10  C   UNL     1      45.126   3.502   9.290  0.00  0.00    +0.000 A 
ATOM     11  C   UNL     1      45.656   4.393   8.353  0.00  0.00    +0.000 A 
ATOM     12  N   UNL     1      46.416   4.004   7.297  0.00  0.00    +0.000 NA
ATOM     13  C   UNL     1      46.616   2.674   7.206  0.00  0.00    +0.000 A 
ATOM     14  C   UNL     1      46.061   1.778   8.106  0.00  0.00    +0.000 A 
ATOM     15  N   UNL     1      45.295   2.165   9.154  0.00  0.00    +0.000 NA
ENDBRANCH   9  10
ENDBRANCH   6   9
ENDBRANCH   2   3
BRANCH   2  16
ATOM     16  N   UNL     1      47.827   6.077  15.108  0.00  0.00    +0.000 N 
ATOM     17  C   UNL     1      48.893   6.536  15.839  0.00  0.00    +0.000 C 
ATOM     18  O   UNL     1      49.786   5.797  16.239  0.00  0.00    +0.000 OA
ATOM     19  H   UNL     1      47.032   6.692  14.977  0.00  0.00    +0.000 HD
BRANCH  17  20
ATOM     20  C   UNL     1      48.937   7.988  16.055  0.00  0.00    +0.000 A 
ATOM     21  C   UNL     1      48.889   8.501  17.344  0.00  0.00    +0.000 A 
ATOM     22  S   UNL     1      49.019  10.200  17.403  0.00  0.00    +0.000 S 
ATOM     23  C   UNL     1      49.090  10.312  15.707  0.00  0.00    +0.000 A 
ATOM     24  N   UNL     1      49.201  11.516  15.090  0.00  0.00    +0.000 NA
ATOM     25  C   UNL     1      49.203  11.459  13.798  0.00  0.00    +0.000 A 
ATOM     26  N   UNL     1      49.106  10.305  13.047  0.00  0.00    +0.000 N 
ATOM     27  C   UNL     1      49.093  10.367  11.598  0.00  0.00    +0.000 C 
ATOM     28  C   UNL     1      49.029   9.052  13.648  0.00  0.00    +0.000 A 
ATOM     29  O   UNL     1      48.995   8.005  13.005  0.00  0.00    +0.000 OA
ATOM     30  C   UNL     1      49.020   9.073  15.102  0.00  0.00    +0.000 A 
ENDBRANCH  17  20
ENDBRANCH   2  16
TORSDOF 5
ENDMDL
MODEL 5
REMARK VINA RESULT:    -6.500      2.493      8.133
REMARK INTER + INTRA:          -9.500
REMARK INTER:                  -9.469
REMARK INTRA:                  -0.032
REMARK UNBOUND:                -1.101
REMARK  Name = 
REMARK  7 active torsions:
REMARK  status: ('A' for Active; 'I' for Inactive)
REMARK    1  A    between atoms: C_1  and  C_2
REMARK    2  A    between atoms: C_2  and  N_3
REMARK    3  A    between atoms: C_2  and  C_17
REMARK    4  A    between atoms: C_4  and  C_6
REMARK    5  A    between atoms: N_12  and  C_13
REMARK    6  A    between atoms: C_20  and  O_21
REMARK    7  A    between atoms: O_21  and  C_22
REMARK                            x       y       z     vdW  Elec       q    Type
REMARK                         _______ _______ _______ _____ _____    ______ ____
ROOT
ATOM      1  C   UNL     1      45.685   9.046  12.741  0.00  0.00    +0.000 C 
ATOM      2  C   UNL     1      46.807   8.056  12.407  0.00  0.00    +0.000 C 
ENDROOT
BRANCH   2   3
ATOM      3  C   UNL     1      47.813   7.913  13.530  0.00  0.00    +0.000 A 
ATOM      4  C   UNL     1      47.809   8.798  14.616  0.00  0.00    +0.000 A 
ATOM      5  C   UNL     1      48.650   8.566  15.707  0.00  0.00    +0.000 A 
ATOM      6  C   UNL     1      49.484   7.460  15.664  0.00  0.00    +0.000 A 
ATOM      7  N   UNL     1      49.606   6.668  14.580  0.00  0.00    +0.000 NA
ATOM      8  C   UNL     1      48.773   6.907  13.547  0.00  0.00    +0.000 A 
BRANCH   6   9
ATOM      9  O   UNL     1      50.182   7.125  16.811  0.00  0.00    +0.000 OA
BRANCH   9  10
ATOM     10  C   UNL     1      50.129   5.803  17.200  0.00  0.00    +0.000 A 
ATOM     11  C   UNL     1      51.251   4.972  17.283  0.00  0.00    +0.000 A 
ATOM     12  N   UNL     1      51.188   3.665  17.645  0.00  0.00    +0.000 NA
ATOM     13  C   UNL     1      49.946   3.211  17.911  0.00  0.00    +0.000 A 
ATOM     14  C   UNL     1      48.823   4.015  17.791  0.00  0.00    +0.000 A 
ATOM     15  N   UNL     1      48.884   5.317  17.420  0.00  0.00    +0.000 NA
ENDBRANCH   9  10
ENDBRANCH   6   9
ENDBRANCH   2   3
BRANCH   2  16
ATOM     16  N   UNL     1      46.268   6.758  12.066  0.00  0.00    +0.000 N 
ATOM     17  C   UNL     1      45.047   6.598  11.459  0.00  0.00    +0.000 C 
ATOM     18  O   UNL     1      44.385   7.545  11.049  0.00  0.00    +0.000 OA
ATOM     19  H   UNL     1      46.670   5.966  12.554  0.00  0.00    +0.000 HD
BRANCH  17  20
ATOM     20  C   UNL     1      44.611   5.209  11.269  0.00  0.00    +0.000 A 
ATOM     21  C   UNL     1      43.866   4.573  12.252  0.00  0.00    +0.000 A 
ATOM     22  S   UNL     1      43.392   2.991  11.828  0.00  0.00    +0.000 S 
ATOM     23  C   UNL     1      44.209   3.083  10.339  0.00  0.00    +0.000 A 
ATOM     24  N   UNL     1      44.207   2.036   9.475  0.00  0.00    +0.000 NA
ATOM     25  C   UNL     1      44.901   2.226   8.400  0.00  0.00    +0.000 A 
ATOM     26  N   UNL     1      45.607   3.372   8.094  0.00  0.00    +0.000 N 
ATOM     27  C   UNL     1      46.372   3.461   6.866  0.00  0.00    +0.000 C 
ATOM     28  C   UNL     1      45.599   4.477   8.940  0.00  0.00    +0.000 A 
ATOM     29  O   UNL     1      46.175   5.529   8.669  0.00  0.00    +0.000 OA
ATOM     30  C   UNL     1      44.833   4.303  10.164  0.00  0.00    +0.000 A 
ENDBRANCH  17  20
ENDBRANCH   2  16
TORSDOF 5
ENDMDL
MODEL 6
REMARK VINA RESULT:    -6.488      4.308      7.761
REMARK INTER + INTRA:          -9.485
REMARK INTER:                  -8.471
REMARK INTRA:                  -1.014
REMARK UNBOUND:                -1.101
REMARK  Name = 
REMARK  7 active torsions:
REMARK  status: ('A' for Active; 'I' for Inactive)
REMARK    1  A    between atoms: C_1  and  C_2
REMARK    2  A    between atoms: C_2  and  N_3
REMARK    3  A    between atoms: C_2  and  C_17
REMARK    4  A    between atoms: C_4  and  C_6
REMARK    5  A    between atoms: N_12  and  C_13
REMARK    6  A    between atoms: C_20  and  O_21
REMARK    7  A    between atoms: O_21  and  C_22
REMARK                            x       y       z     vdW  Elec       q    Type
REMARK                         _______ _______ _______ _____ _____    ______ ____
ROOT
ATOM      1  C   UNL     1      46.493   8.911  13.566  0.00  0.00    +0.000 C 
ATOM      2  C   UNL     1      46.773   8.468  12.125  0.00  0.00    +0.000 C 
ENDROOT
BRANCH   2   3
ATOM      3  C   UNL     1      48.240   8.555  11.763  0.00  0.00    +0.000 A 
ATOM      4  C   UNL     1      48.858   9.795  11.555  0.00  0.00    +0.000 A 
ATOM      5  C   UNL     1      50.239   9.861  11.360  0.00  0.00    +0.000 A 
ATOM      6  C   UNL     1      50.956   8.675  11.363  0.00  0.00    +0.000 A 
ATOM      7  N   UNL     1      50.375   7.460  11.427  0.00  0.00    +0.000 NA
ATOM      8  C   UNL     1      49.042   7.426  11.628  0.00  0.00    +0.000 A 
BRANCH   6   9
ATOM      9  O   UNL     1      52.338   8.749  11.353  0.00  0.00    +0.000 OA
BRANCH   9  10
ATOM     10  C   UNL     1      52.980   8.130  10.301  0.00  0.00    +0.000 A 
ATOM     11  C   UNL     1      52.867   8.543   8.971  0.00  0.00    +0.000 A 
ATOM     12  N   UNL     1      53.485   7.915   7.937  0.00  0.00    +0.000 NA
ATOM     13  C   UNL     1      54.217   6.838   8.288  0.00  0.00    +0.000 A 
ATOM     14  C   UNL     1      54.302   6.395   9.598  0.00  0.00    +0.000 A 
ATOM     15  N   UNL     1      53.678   7.016  10.628  0.00  0.00    +0.000 NA
ENDBRANCH   9  10
ENDBRANCH   6   9
ENDBRANCH   2   3
BRANCH   2  16
ATOM     16  N   UNL     1      46.290   7.125  11.894  0.00  0.00    +0.000 N 
ATOM     17  C   UNL     1      44.985   6.851  11.568  0.00  0.00    +0.000 C 
ATOM     18  O   UNL     1      44.167   7.732  11.323  0.00  0.00    +0.000 OA
ATOM     19  H   UNL     1      46.858   6.376  12.273  0.00  0.00    +0.000 HD
BRANCH  17  20
ATOM     20  C   UNL     1      44.643   5.427  11.460  0.00  0.00    +0.000 A 
ATOM     21  C   UNL     1      43.950   4.799  12.486  0.00  0.00    +0.000 A 
ATOM     22  S   UNL     1      43.582   3.167  12.156  0.00  0.00    +0.000 S 
ATOM     23  C   UNL     1      44.382   3.230  10.656  0.00  0.00    +0.000 A 
ATOM     24  N   UNL     1      44.446   2.137   9.852  0.00  0.00    +0.000 NA
ATOM     25  C   UNL     1      45.118   2.312   8.761  0.00  0.00    +0.000 A 
ATOM     26  N   UNL     1      45.742   3.485   8.384  0.00  0.00    +0.000 N 
ATOM     27  C   UNL     1      46.491   3.555   7.144  0.00  0.00    +0.000 C 
ATOM     28  C   UNL     1      45.664   4.632   9.166  0.00  0.00    +0.000 A 
ATOM     29  O   UNL     1      46.165   5.704   8.831  0.00  0.00    +0.000 OA
ATOM     30  C   UNL     1      44.920   4.477  10.405  0.00  0.00    +0.000 A 
ENDBRANCH  17  20
ENDBRANCH   2  16
TORSDOF 5
ENDMDL
MODEL 7
REMARK VINA RESULT:    -6.419      2.357      3.313
REMARK INTER + INTRA:          -9.397
REMARK INTER:                  -8.372
REMARK INTRA:                  -1.024
REMARK UNBOUND:                -1.101
REMARK  Name = 
REMARK  7 active torsions:
REMARK  status: ('A' for Active; 'I' for Inactive)
REMARK    1  A    between atoms: C_1  and  C_2
REMARK    2  A    between atoms: C_2  and  N_3
REMARK    3  A    between atoms: C_2  and  C_17
REMARK    4  A    between atoms: C_4  and  C_6
REMARK    5  A    between atoms: N_12  and  C_13
REMARK    6  A    between atoms: C_20  and  O_21
REMARK    7  A    between atoms: O_21  and  C_22
REMARK                            x       y       z     vdW  Elec       q    Type
REMARK                         _______ _______ _______ _____ _____    ______ ____
ROOT
ATOM      1  C   UNL     1      49.963   8.461  13.918  0.00  0.00    +0.000 C 
ATOM      2  C   UNL     1      48.522   8.731  14.367  0.00  0.00    +0.000 C 
ENDROOT
BRANCH   2   3
ATOM      3  C   UNL     1      47.498   8.244  13.364  0.00  0.00    +0.000 A 
ATOM      4  C   UNL     1      47.781   7.169  12.512  0.00  0.00    +0.000 A 
ATOM      5  C   UNL     1      46.776   6.646  11.694  0.00  0.00    +0.000 A 
ATOM      6  C   UNL     1      45.522   7.231  11.746  0.00  0.00    +0.000 A 
ATOM      7  N   UNL     1      45.255   8.347  12.455  0.00  0.00    +0.000 NA
ATOM      8  C   UNL     1      46.239   8.823  13.244  0.00  0.00    +0.000 A 
BRANCH   6   9
ATOM      9  O   UNL     1      44.483   6.606  11.079  0.00  0.00    +0.000 OA
BRANCH   9  10
ATOM     10  C   UNL     1      44.159   5.332  11.499  0.00  0.00    +0.000 A 
ATOM     11  C   UNL     1      43.984   4.977  12.839  0.00  0.00    +0.000 A 
ATOM     12  N   UNL     1      43.688   3.716  13.246  0.00  0.00    +0.000 NA
ATOM     13  C   UNL     1      43.586   2.811  12.251  0.00  0.00    +0.000 A 
ATOM     14  C   UNL     1      43.799   3.144  10.923  0.00  0.00    +0.000 A 
ATOM     15  N   UNL     1      44.105   4.400  10.518  0.00  0.00    +0.000 NA
ENDBRANCH   9  10
ENDBRANCH   6   9
ENDBRANCH   2   3
BRANCH   2  16
ATOM     16  N   UNL     1      48.263   8.137  15.660  0.00  0.00    +0.000 N 
ATOM     17  C   UNL     1      48.684   8.706  16.836  0.00  0.00    +0.000 C 
ATOM     18  O   UNL     1      49.197   9.819  16.884  0.00  0.00    +0.000 OA
ATOM     19  H   UNL     1      48.032   7.150  15.658  0.00  0.00    +0.000 HD
BRANCH  17  20
ATOM     20  C   UNL     1      48.418   7.923  18.050  0.00  0.00    +0.000 A 
ATOM     21  C   UNL     1      47.868   8.539  19.166  0.00  0.00    +0.000 A 
ATOM     22  S   UNL     1      47.566   7.463  20.454  0.00  0.00    +0.000 S 
ATOM     23  C   UNL     1      48.209   6.149  19.583  0.00  0.00    +0.000 A 
ATOM     24  N   UNL     1      48.257   4.907  20.128  0.00  0.00    +0.000 NA
ATOM     25  C   UNL     1      48.807   4.011  19.374  0.00  0.00    +0.000 A 
ATOM     26  N   UNL     1      49.320   4.233  18.112  0.00  0.00    +0.000 N 
ATOM     27  C   UNL     1      49.938   3.152  17.368  0.00  0.00    +0.000 C 
ATOM     28  C   UNL     1      49.252   5.485  17.510  0.00  0.00    +0.000 A 
ATOM     29  O   UNL     1      49.653   5.699  16.368  0.00  0.00    +0.000 OA
ATOM     30  C   UNL     1      48.644   6.523  18.327  0.00  0.00    +0.000 A 
ENDBRANCH  17  20
ENDBRANCH   2  16
TORSDOF 5
ENDMDL
MODEL 8
REMARK VINA RESULT:    -6.204      3.343      5.383
REMARK INTER + INTRA:          -9.119
REMARK INTER:                  -8.476
REMARK INTRA:                  -0.643
REMARK UNBOUND:                -1.101
REMARK  Name = 
REMARK  7 active torsions:
REMARK  status: ('A' for Active; 'I' for Inactive)
REMARK    1  A    between atoms: C_1  and  C_2
REMARK    2  A    between atoms: C_2  and  N_3
REMARK    3  A    between atoms: C_2  and  C_17
REMARK    4  A    between atoms: C_4  and  C_6
REMARK    5  A    between atoms: N_12  and  C_13
REMARK    6  A    between atoms: C_20  and  O_21
REMARK    7  A    between atoms: O_21  and  C_22
REMARK                            x       y       z     vdW  Elec       q    Type
REMARK                         _______ _______ _______ _____ _____    ______ ____
ROOT
ATOM      1  C   UNL     1      44.341   4.543  13.240  0.00  0.00    +0.000 C 
ATOM      2  C   UNL     1      45.699   5.245  13.128  0.00  0.00    +0.000 C 
ENDROOT
BRANCH   2   3
ATOM      3  C   UNL     1      45.580   6.668  12.625  0.00  0.00    +0.000 A 
ATOM      4  C   UNL     1      44.609   7.018  11.679  0.00  0.00    +0.000 A 
ATOM      5  C   UNL     1      44.424   8.359  11.334  0.00  0.00    +0.000 A 
ATOM      6  C   UNL     1      45.234   9.306  11.939  0.00  0.00    +0.000 A 
ATOM      7  N   UNL     1      46.263   8.989  12.751  0.00  0.00    +0.000 NA
ATOM      8  C   UNL     1      46.411   7.689  13.076  0.00  0.00    +0.000 A 
BRANCH   6   9
ATOM      9  O   UNL     1      44.935  10.643  11.740  0.00  0.00    +0.000 OA
BRANCH   9  10
ATOM     10  C   UNL     1      43.809  10.917  10.991  0.00  0.00    +0.000 A 
ATOM     11  C   UNL     1      42.537  11.098  11.540  0.00  0.00    +0.000 A 
ATOM     12  N   UNL     1      41.429  11.346  10.795  0.00  0.00    +0.000 NA
ATOM     13  C   UNL     1      41.643  11.393   9.464  0.00  0.00    +0.000 A 
ATOM     14  C   UNL     1      42.893  11.173   8.907  0.00  0.00    +0.000 A 
ATOM     15  N   UNL     1      43.996  10.916   9.650  0.00  0.00    +0.000 NA
ENDBRANCH   9  10
ENDBRANCH   6   9
ENDBRANCH   2   3
BRANCH   2  16
ATOM     16  N   UNL     1      46.397   5.229  14.395  0.00  0.00    +0.000 N 
ATOM     17  C   UNL     1      47.138   4.156  14.820  0.00  0.00    +0.000 C 
ATOM     18  O   UNL     1      47.369   3.187  14.105  0.00  0.00    +0.000 OA
ATOM     19  H   UNL     1      46.079   5.899  15.086  0.00  0.00    +0.000 HD
BRANCH  17  20
ATOM     20  C   UNL     1      47.702   4.271  16.172  0.00  0.00    +0.000 A 
ATOM     21  C   UNL     1      47.298   3.395  17.170  0.00  0.00    +0.000 A 
ATOM     22  S   UNL     1      48.108   3.634  18.651  0.00  0.00    +0.000 S 
ATOM     23  C   UNL     1      48.987   4.949  18.024  0.00  0.00    +0.000 A 
ATOM     24  N   UNL     1      49.877   5.625  18.795  0.00  0.00    +0.000 NA
ATOM     25  C   UNL     1      50.445   6.627  18.205  0.00  0.00    +0.000 A 
ATOM     26  N   UNL     1      50.213   7.027  16.905  0.00  0.00    +0.000 N 
ATOM     27  C   UNL     1      50.892   8.186  16.358  0.00  0.00    +0.000 C 
ATOM     28  C   UNL     1      49.336   6.333  16.077  0.00  0.00    +0.000 A 
ATOM     29  O   UNL     1      49.149   6.636  14.900  0.00  0.00    +0.000 OA
ATOM     30  C   UNL     1      48.672   5.201  16.704  0.00  0.00    +0.000 A 
ENDBRANCH  17  20
ENDBRANCH   2  16
TORSDOF 5
ENDMDL
MODEL 9
REMARK VINA RESULT:    -6.107      1.860      2.755
REMARK INTER + INTRA:          -8.993
REMARK INTER:                  -7.883
REMARK INTRA:                  -1.109
REMARK UNBOUND:                -1.101
REMARK  Name = 
REMARK  7 active torsions:
REMARK  status: ('A' for Active; 'I' for Inactive)
REMARK    1  A    between atoms: C_1  and  C_2
REMARK    2  A    between atoms: C_2  and  N_3
REMARK    3  A    between atoms: C_2  and  C_17
REMARK    4  A    between atoms: C_4  and  C_6
REMARK    5  A    between atoms: N_12  and  C_13
REMARK    6  A    between atoms: C_20  and  O_21
REMARK    7  A    between atoms: O_21  and  C_22
REMARK                            x       y       z     vdW  Elec       q    Type
REMARK                         _______ _______ _______ _____ _____    ______ ____
ROOT
ATOM      1  C   UNL     1      49.248   9.977  14.070  0.00  0.00    +0.000 C 
ATOM      2  C   UNL     1      48.322   8.860  14.568  0.00  0.00    +0.000 C 
ENDROOT
BRANCH   2   3
ATOM      3  C   UNL     1      47.403   8.338  13.484  0.00  0.00    +0.000 A 
ATOM      4  C   UNL     1      47.765   7.232  12.705  0.00  0.00    +0.000 A 
ATOM      5  C   UNL     1      46.846   6.680  11.809  0.00  0.00    +0.000 A 
ATOM      6  C   UNL     1      45.597   7.270  11.710  0.00  0.00    +0.000 A 
ATOM      7  N   UNL     1      45.266   8.412  12.347  0.00  0.00    +0.000 NA
ATOM      8  C   UNL     1      46.166   8.915  13.214  0.00  0.00    +0.000 A 
BRANCH   6   9
ATOM      9  O   UNL     1      44.627   6.622  10.964  0.00  0.00    +0.000 OA
BRANCH   9  10
ATOM     10  C   UNL     1      44.285   5.350  11.371  0.00  0.00    +0.000 A 
ATOM     11  C   UNL     1      44.361   4.224  10.546  0.00  0.00    +0.000 A 
ATOM     12  N   UNL     1      44.001   2.977  10.946  0.00  0.00    +0.000 NA
ATOM     13  C   UNL     1      43.544   2.901  12.213  0.00  0.00    +0.000 A 
ATOM     14  C   UNL     1      43.426   4.018  13.026  0.00  0.00    +0.000 A 
ATOM     15  N   UNL     1      43.776   5.263  12.623  0.00  0.00    +0.000 NA
ENDBRANCH   9  10
ENDBRANCH   6   9
ENDBRANCH   2   3
BRANCH   2  16
ATOM     16  N   UNL     1      49.086   7.768  15.131  0.00  0.00    +0.000 N 
ATOM     17  C   UNL     1      49.714   7.852  16.348  0.00  0.00    +0.000 C 
ATOM     18  O   UNL     1      49.568   8.808  17.102  0.00  0.00    +0.000 OA
ATOM     19  H   UNL     1      49.396   7.058  14.477  0.00  0.00    +0.000 HD
BRANCH  17  20
ATOM     20  C   UNL     1      50.523   6.686  16.726  0.00  0.00    +0.000 A 
ATOM     21  C   UNL     1      51.905   6.791  16.790  0.00  0.00    +0.000 A 
ATOM     22  S   UNL     1      52.671   5.359  17.311  0.00  0.00    +0.000 S 
ATOM     23  C   UNL     1      51.186   4.535  17.419  0.00  0.00    +0.000 A 
ATOM     24  N   UNL     1      51.134   3.237  17.810  0.00  0.00    +0.000 NA
ATOM     25  C   UNL     1      49.947   2.723  17.809  0.00  0.00    +0.000 A 
ATOM     26  N   UNL     1      48.789   3.383  17.451  0.00  0.00    +0.000 N 
ATOM     27  C   UNL     1      47.513   2.694  17.464  0.00  0.00    +0.000 C 
ATOM     28  C   UNL     1      48.803   4.724  17.081  0.00  0.00    +0.000 A 
ATOM     29  O   UNL     1      47.781   5.352  16.809  0.00  0.00    +0.000 OA
ATOM     30  C   UNL     1      50.120   5.339  17.066  0.00  0.00    +0.000 A 
ENDBRANCH  17  20
ENDBRANCH   2  16
TORSDOF 5
ENDMDL
