MODEL 1
REMARK VINA RESULT:    -8.035      0.000      0.000
REMARK INTER + INTRA:         -12.932
REMARK INTER:                 -11.793
REMARK INTRA:                  -1.138
REMARK UNBOUND:                -1.138
REMARK  Name = 
REMARK  10 active torsions:
REMARK  status: ('A' for Active; 'I' for Inactive)
REMARK    1  A    between atoms: C_1  and  O_2
REMARK    2  A    between atoms: O_2  and  C_3
REMARK    3  A    between atoms: C_10  and  C_11
REMARK    4  A    between atoms: N_13  and  C_14
REMARK    5  A    between atoms: C_14  and  C_15
REMARK    6  A    between atoms: C_18  and  C_19
REMARK    7  A    between atoms: C_19  and  N_20
REMARK    8  A    between atoms: N_20  and  C_21
REMARK    9  A    between atoms: C_21  and  C_22
REMARK   10  A    between atoms: C_21  and  C_23
REMARK                            x       y       z     vdW  Elec       q    Type
REMARK                         _______ _______ _______ _____ _____    ______ ____
ROOT
ATOM      1  C   UNL     1      47.332   6.157  14.004  0.00  0.00    +0.000 A 
ATOM      2  C   UNL     1      47.159   4.818  14.378  0.00  0.00    +0.000 A 
ATOM      3  C   UNL     1      46.260   3.991  13.687  0.00  0.00    +0.000 A 
ATOM      4  C   UNL     1      45.513   4.483  12.605  0.00  0.00    +0.000 A 
ATOM      5  C   UNL     1      45.716   5.813  12.213  0.00  0.00    +0.000 A 
ATOM      6  C   UNL     1      46.619   6.637  12.897  0.00  0.00    +0.000 A 
ENDROOT
BRANCH   1   7
ATOM      7  C   UNL     1      48.293   7.053  14.750  0.00  0.00    +0.000 C 
BRANCH   7  10
ATOM      8  C   UNL     1      49.426   6.063  16.704  0.00  0.00    +0.000 C 
ATOM      9  O   UNL     1      48.576   6.498  17.479  0.00  0.00    +0.000 OA
ATOM     10  N   UNL     1      49.353   6.289  15.361  0.00  0.00    +0.000 N 
ATOM     11  H   UNL     1      50.095   5.976  14.751  0.00  0.00    +0.000 HD
BRANCH   8  19
ATOM     12  C   UNL     1      50.004   2.682  16.973  0.00  0.00    +0.000 A 
ATOM     13  N   UNL     1      50.477   1.441  17.189  0.00  0.00    +0.000 NA
ATOM     14  C   UNL     1      51.697   1.319  17.711  0.00  0.00    +0.000 A 
ATOM     15  N   UNL     1      52.526   2.301  18.056  0.00  0.00    +0.000 NA
ATOM     16  C   UNL     1      52.013   3.523  17.820  0.00  0.00    +0.000 A 
ATOM     17  S   UNL     1      52.935   4.901  18.196  0.00  0.00    +0.000 S 
ATOM     18  C   UNL     1      51.698   5.935  17.656  0.00  0.00    +0.000 A 
ATOM     19  C   UNL     1      50.573   5.268  17.185  0.00  0.00    +0.000 A 
ATOM     20  C   UNL     1      50.769   3.821  17.281  0.00  0.00    +0.000 A 
BRANCH  12  22
ATOM     21  C   UNL     1      47.702   2.848  17.334  0.00  0.00    +0.000 C 
ATOM     22  O   UNL     1      48.764   2.799  16.384  0.00  0.00    +0.000 OA
ENDBRANCH  12  22
ENDBRANCH   8  19
ENDBRANCH   7  10
ENDBRANCH   1   7
BRANCH   4  23
ATOM     23  C   UNL     1      44.544   3.594  11.843  0.00  0.00    +0.000 C 
BRANCH  23  24
ATOM     24  N   UNL     1      45.226   2.799  10.819  0.00  0.00    +0.000 NA
ATOM     25  H   UNL     1      45.125   1.816  11.078  0.00  0.00    +0.000 HD
BRANCH  24  26
ATOM     26  C   UNL     1      44.662   2.940   9.457  0.00  0.00    +0.000 C 
ATOM     27  C   UNL     1      44.185   4.363   9.132  0.00  0.00    +0.000 C 
BRANCH  26  28
ATOM     28  C   UNL     1      45.683   2.504   8.396  0.00  0.00    +0.000 A 
ATOM     29  C   UNL     1      46.165   3.410   7.445  0.00  0.00    +0.000 A 
ATOM     30  C   UNL     1      47.086   2.977   6.493  0.00  0.00    +0.000 A 
ATOM     31  C   UNL     1      47.501   1.653   6.505  0.00  0.00    +0.000 A 
ATOM     32  C   UNL     1      46.978   0.815   7.474  0.00  0.00    +0.000 A 
ATOM     33  N   UNL     1      46.087   1.207   8.417  0.00  0.00    +0.000 NA
ENDBRANCH  26  28
ENDBRANCH  24  26
ENDBRANCH  23  24
ENDBRANCH   4  23
TORSDOF 8
ENDMDL
MODEL 2
REMARK VINA RESULT:    -8.018      2.252      2.655
REMARK INTER + INTRA:         -12.906
REMARK INTER:                 -11.915
REMARK INTRA:                  -0.991
REMARK UNBOUND:                -1.138
REMARK  Name = 
REMARK  10 active torsions:
REMARK  status: ('A' for Active; 'I' for Inactive)
REMARK    1  A    between atoms: C_1  and  O_2
REMARK    2  A    between atoms: O_2  and  C_3
REMARK    3  A    between atoms: C_10  and  C_11
REMARK    4  A    between atoms: N_13  and  C_14
REMARK    5  A    between atoms: C_14  and  C_15
REMARK    6  A    between atoms: C_18  and  C_19
REMARK    7  A    between atoms: C_19  and  N_20
REMARK    8  A    between atoms: N_20  and  C_21
REMARK    9  A    between atoms: C_21  and  C_22
REMARK   10  A    between atoms: C_21  and  C_23
REMARK                            x       y       z     vdW  Elec       q    Type
REMARK                         _______ _______ _______ _____ _____    ______ ____
ROOT
ATOM      1  C   UNL     1      47.297   6.172  13.301  0.00  0.00    +0.000 A 
ATOM      2  C   UNL     1      47.004   4.947  13.915  0.00  0.00    +0.000 A 
ATOM      3  C   UNL     1      46.041   4.084  13.370  0.00  0.00    +0.000 A 
ATOM      4  C   UNL     1      45.348   4.425  12.197  0.00  0.00    +0.000 A 
ATOM      5  C   UNL     1      45.670   5.635  11.569  0.00  0.00    +0.000 A 
ATOM      6  C   UNL     1      46.637   6.494  12.107  0.00  0.00    +0.000 A 
ENDROOT
BRANCH   1   7
ATOM      7  C   UNL     1      48.328   7.107  13.890  0.00  0.00    +0.000 C 
BRANCH   7  10
ATOM      8  C   UNL     1      49.104   6.811  16.212  0.00  0.00    +0.000 C 
ATOM      9  O   UNL     1      50.160   6.297  15.845  0.00  0.00    +0.000 OA
ATOM     10  N   UNL     1      48.166   7.234  15.317  0.00  0.00    +0.000 N 
ATOM     11  H   UNL     1      47.280   7.596  15.641  0.00  0.00    +0.000 HD
BRANCH   8  19
ATOM     12  C   UNL     1      48.888   4.656  18.884  0.00  0.00    +0.000 A 
ATOM     13  N   UNL     1      48.733   4.046  20.073  0.00  0.00    +0.000 NA
ATOM     14  C   UNL     1      48.403   4.796  21.123  0.00  0.00    +0.000 A 
ATOM     15  N   UNL     1      48.201   6.112  21.139  0.00  0.00    +0.000 NA
ATOM     16  C   UNL     1      48.370   6.680  19.930  0.00  0.00    +0.000 A 
ATOM     17  S   UNL     1      48.156   8.358  19.760  0.00  0.00    +0.000 S 
ATOM     18  C   UNL     1      48.512   8.284  18.100  0.00  0.00    +0.000 A 
ATOM     19  C   UNL     1      48.796   7.002  17.643  0.00  0.00    +0.000 A 
ATOM     20  C   UNL     1      48.714   6.044  18.745  0.00  0.00    +0.000 A 
BRANCH  12  22
ATOM     21  C   UNL     1      48.189   3.218  17.181  0.00  0.00    +0.000 C 
ATOM     22  O   UNL     1      49.281   3.880  17.814  0.00  0.00    +0.000 OA
ENDBRANCH  12  22
ENDBRANCH   8  19
ENDBRANCH   7  10
ENDBRANCH   1   7
BRANCH   4  23
ATOM     23  C   UNL     1      44.310   3.495  11.592  0.00  0.00    +0.000 C 
BRANCH  23  24
ATOM     24  N   UNL     1      44.907   2.571  10.625  0.00  0.00    +0.000 NA
ATOM     25  H   UNL     1      44.583   1.630  10.861  0.00  0.00    +0.000 HD
BRANCH  24  26
ATOM     26  C   UNL     1      44.510   2.815   9.219  0.00  0.00    +0.000 C 
ATOM     27  C   UNL     1      44.112   4.271   8.935  0.00  0.00    +0.000 C 
BRANCH  26  28
ATOM     28  C   UNL     1      45.636   2.411   8.256  0.00  0.00    +0.000 A 
ATOM     29  C   UNL     1      46.144   3.319   7.321  0.00  0.00    +0.000 A 
ATOM     30  C   UNL     1      47.162   2.915   6.459  0.00  0.00    +0.000 A 
ATOM     31  C   UNL     1      47.647   1.618   6.543  0.00  0.00    +0.000 A 
ATOM     32  C   UNL     1      47.094   0.776   7.493  0.00  0.00    +0.000 A 
ATOM     33  N   UNL     1      46.108   1.140   8.349  0.00  0.00    +0.000 NA
ENDBRANCH  26  28
ENDBRANCH  24  26
ENDBRANCH  23  24
ENDBRANCH   4  23
TORSDOF 8
ENDMDL
MODEL 3
REMARK VINA RESULT:    -7.231      2.401      3.341
REMARK INTER + INTRA:         -11.752
REMARK INTER:                 -10.809
REMARK INTRA:                  -0.942
REMARK UNBOUND:                -1.138
REMARK  Name = 
REMARK  10 active torsions:
REMARK  status: ('A' for Active; 'I' for Inactive)
REMARK    1  A    between atoms: C_1  and  O_2
REMARK    2  A    between atoms: O_2  and  C_3
REMARK    3  A    between atoms: C_10  and  C_11
REMARK    4  A    between atoms: N_13  and  C_14
REMARK    5  A    between atoms: C_14  and  C_15
REMARK    6  A    between atoms: C_18  and  C_19
REMARK    7  A    between atoms: C_19  and  N_20
REMARK    8  A    between atoms: N_20  and  C_21
REMARK    9  A    between atoms: C_21  and  C_22
REMARK   10  A    between atoms: C_21  and  C_23
REMARK                            x       y       z     vdW  Elec       q    Type
REMARK                         _______ _______ _______ _____ _____    ______ ____
ROOT
ATOM      1  C   UNL     1      46.790   6.666  12.931  0.00  0.00    +0.000 A 
ATOM      2  C   UNL     1      46.364   5.341  13.091  0.00  0.00    +0.000 A 
ATOM      3  C   UNL     1      45.365   4.804  12.265  0.00  0.00    +0.000 A 
ATOM      4  C   UNL     1      44.769   5.580  11.258  0.00  0.00    +0.000 A 
ATOM      5  C   UNL     1      45.223   6.893  11.080  0.00  0.00    +0.000 A 
ATOM      6  C   UNL     1      46.226   7.427  11.898  0.00  0.00    +0.000 A 
ENDROOT
BRANCH   1   7
ATOM      7  C   UNL     1      47.861   7.250  13.824  0.00  0.00    +0.000 C 
BRANCH   7  10
ATOM      8  C   UNL     1      49.048   6.349  15.789  0.00  0.00    +0.000 C 
ATOM      9  O   UNL     1      50.143   6.696  15.348  0.00  0.00    +0.000 OA
ATOM     10  N   UNL     1      47.892   6.588  15.105  0.00  0.00    +0.000 N 
ATOM     11  H   UNL     1      47.012   6.239  15.455  0.00  0.00    +0.000 HD
BRANCH   8  19
ATOM     12  C   UNL     1      49.031   7.441  19.052  0.00  0.00    +0.000 A 
ATOM     13  N   UNL     1      49.002   7.592  20.388  0.00  0.00    +0.000 NA
ATOM     14  C   UNL     1      48.874   6.499  21.139  0.00  0.00    +0.000 A 
ATOM     15  N   UNL     1      48.771   5.241  20.716  0.00  0.00    +0.000 NA
ATOM     16  C   UNL     1      48.801   5.138  19.374  0.00  0.00    +0.000 A 
ATOM     17  S   UNL     1      48.678   3.603  18.653  0.00  0.00    +0.000 S 
ATOM     18  C   UNL     1      48.791   4.273  17.095  0.00  0.00    +0.000 A 
ATOM     19  C   UNL     1      48.924   5.657  17.086  0.00  0.00    +0.000 A 
ATOM     20  C   UNL     1      48.925   6.171  18.456  0.00  0.00    +0.000 A 
BRANCH  12  22
ATOM     21  C   UNL     1      50.422   9.136  18.248  0.00  0.00    +0.000 C 
ATOM     22  O   UNL     1      49.109   8.581  18.281  0.00  0.00    +0.000 OA
ENDBRANCH  12  22
ENDBRANCH   8  19
ENDBRANCH   7  10
ENDBRANCH   1   7
BRANCH   4  23
ATOM     23  C   UNL     1      43.692   5.007  10.351  0.00  0.00    +0.000 C 
BRANCH  23  24
ATOM     24  N   UNL     1      44.264   4.396   9.149  0.00  0.00    +0.000 NA
ATOM     25  H   UNL     1      44.930   5.064   8.754  0.00  0.00    +0.000 HD
BRANCH  24  26
ATOM     26  C   UNL     1      45.016   3.144   9.396  0.00  0.00    +0.000 C 
ATOM     27  C   UNL     1      44.123   1.955   9.782  0.00  0.00    +0.000 C 
BRANCH  26  28
ATOM     28  C   UNL     1      45.852   2.758   8.167  0.00  0.00    +0.000 A 
ATOM     29  C   UNL     1      46.030   3.654   7.108  0.00  0.00    +0.000 A 
ATOM     30  C   UNL     1      46.790   3.267   6.005  0.00  0.00    +0.000 A 
ATOM     31  C   UNL     1      47.350   1.997   5.979  0.00  0.00    +0.000 A 
ATOM     32  C   UNL     1      47.127   1.165   7.063  0.00  0.00    +0.000 A 
ATOM     33  N   UNL     1      46.399   1.515   8.152  0.00  0.00    +0.000 NA
ENDBRANCH  26  28
ENDBRANCH  24  26
ENDBRANCH  23  24
ENDBRANCH   4  23
TORSDOF 8
ENDMDL
MODEL 4
REMARK VINA RESULT:    -6.882      3.541      8.419
REMARK INTER + INTRA:         -11.240
REMARK INTER:                  -9.517
REMARK INTRA:                  -1.722
REMARK UNBOUND:                -1.138
REMARK  Name = 
REMARK  10 active torsions:
REMARK  status: ('A' for Active; 'I' for Inactive)
REMARK    1  A    between atoms: C_1  and  O_2
REMARK    2  A    between atoms: O_2  and  C_3
REMARK    3  A    between atoms: C_10  and  C_11
REMARK    4  A    between atoms: N_13  and  C_14
REMARK    5  A    between atoms: C_14  and  C_15
REMARK    6  A    between atoms: C_18  and  C_19
REMARK    7  A    between atoms: C_19  and  N_20
REMARK    8  A    between atoms: N_20  and  C_21
REMARK    9  A    between atoms: C_21  and  C_22
REMARK   10  A    between atoms: C_21  and  C_23
REMARK                            x       y       z     vdW  Elec       q    Type
REMARK                         _______ _______ _______ _____ _____    ______ ____
ROOT
ATOM      1  C   UNL     1      48.583   8.011  13.182  0.00  0.00    +0.000 A 
ATOM      2  C   UNL     1      49.282   6.970  13.808  0.00  0.00    +0.000 A 
ATOM      3  C   UNL     1      49.412   6.932  15.204  0.00  0.00    +0.000 A 
ATOM      4  C   UNL     1      48.846   7.933  16.009  0.00  0.00    +0.000 A 
ATOM      5  C   UNL     1      48.119   8.952  15.380  0.00  0.00    +0.000 A 
ATOM      6  C   UNL     1      47.981   8.987  13.987  0.00  0.00    +0.000 A 
ENDROOT
BRANCH   1   7
ATOM      7  C   UNL     1      48.447   8.060  11.678  0.00  0.00    +0.000 C 
BRANCH   7  10
ATOM      8  C   UNL     1      46.302   6.945  11.192  0.00  0.00    +0.000 C 
ATOM      9  O   UNL     1      45.653   7.901  11.616  0.00  0.00    +0.000 OA
ATOM     10  N   UNL     1      47.666   6.952  11.187  0.00  0.00    +0.000 N 
ATOM     11  H   UNL     1      48.177   6.132  10.893  0.00  0.00    +0.000 HD
BRANCH   8  19
ATOM     12  C   UNL     1      44.513   4.401  12.664  0.00  0.00    +0.000 A 
ATOM     13  N   UNL     1      43.800   3.304  12.976  0.00  0.00    +0.000 NA
ATOM     14  C   UNL     1      43.460   2.477  11.988  0.00  0.00    +0.000 A 
ATOM     15  N   UNL     1      43.748   2.608  10.696  0.00  0.00    +0.000 NA
ATOM     16  C   UNL     1      44.458   3.720  10.429  0.00  0.00    +0.000 A 
ATOM     17  S   UNL     1      44.914   4.054   8.826  0.00  0.00    +0.000 S 
ATOM     18  C   UNL     1      45.702   5.485   9.297  0.00  0.00    +0.000 A 
ATOM     19  C   UNL     1      45.638   5.737  10.663  0.00  0.00    +0.000 A 
ATOM     20  C   UNL     1      44.887   4.678  11.337  0.00  0.00    +0.000 A 
BRANCH  12  22
ATOM     21  C   UNL     1      46.135   5.097  14.195  0.00  0.00    +0.000 C 
ATOM     22  O   UNL     1      44.816   5.278  13.683  0.00  0.00    +0.000 OA
ENDBRANCH  12  22
ENDBRANCH   8  19
ENDBRANCH   7  10
ENDBRANCH   1   7
BRANCH   4  23
ATOM     23  C   UNL     1      48.972   7.898  17.523  0.00  0.00    +0.000 C 
BRANCH  23  24
ATOM     24  N   UNL     1      47.859   7.174  18.143  0.00  0.00    +0.000 NA
ATOM     25  H   UNL     1      47.318   6.743  17.391  0.00  0.00    +0.000 HD
BRANCH  24  26
ATOM     26  C   UNL     1      48.271   6.078  19.051  0.00  0.00    +0.000 C 
ATOM     27  C   UNL     1      47.253   5.783  20.162  0.00  0.00    +0.000 C 
BRANCH  26  28
ATOM     28  C   UNL     1      48.533   4.787  18.262  0.00  0.00    +0.000 A 
ATOM     29  C   UNL     1      47.513   4.174  17.526  0.00  0.00    +0.000 A 
ATOM     30  C   UNL     1      47.785   2.998  16.828  0.00  0.00    +0.000 A 
ATOM     31  C   UNL     1      49.063   2.458  16.882  0.00  0.00    +0.000 A 
ATOM     32  C   UNL     1      50.018   3.120  17.634  0.00  0.00    +0.000 A 
ATOM     33  N   UNL     1      49.786   4.267  18.318  0.00  0.00    +0.000 NA
ENDBRANCH  26  28
ENDBRANCH  24  26
ENDBRANCH  23  24
ENDBRANCH   4  23
TORSDOF 8
ENDMDL
MODEL 5
REMARK VINA RESULT:    -6.427      3.370      4.454
REMARK INTER + INTRA:         -10.572
REMARK INTER:                  -9.794
REMARK INTRA:                  -0.777
REMARK UNBOUND:                -1.138
REMARK  Name = 
REMARK  10 active torsions:
REMARK  status: ('A' for Active; 'I' for Inactive)
REMARK    1  A    between atoms: C_1  and  O_2
REMARK    2  A    between atoms: O_2  and  C_3
REMARK    3  A    between atoms: C_10  and  C_11
REMARK    4  A    between atoms: N_13  and  C_14
REMARK    5  A    between atoms: C_14  and  C_15
REMARK    6  A    between atoms: C_18  and  C_19
REMARK    7  A    between atoms: C_19  and  N_20
REMARK    8  A    between atoms: N_20  and  C_21
REMARK    9  A    between atoms: C_21  and  C_22
REMARK   10  A    between atoms: C_21  and  C_23
REMARK                            x       y       z     vdW  Elec       q    Type
REMARK                         _______ _______ _______ _____ _____    ______ ____
ROOT
ATOM      1  C   UNL     1      47.192   7.650  13.567  0.00  0.00    +0.000 A 
ATOM      2  C   UNL     1      47.872   6.482  13.936  0.00  0.00    +0.000 A 
ATOM      3  C   UNL     1      47.366   5.219  13.594  0.00  0.00    +0.000 A 
ATOM      4  C   UNL     1      46.167   5.093  12.874  0.00  0.00    +0.000 A 
ATOM      5  C   UNL     1      45.510   6.265  12.477  0.00  0.00    +0.000 A 
ATOM      6  C   UNL     1      46.019   7.527  12.810  0.00  0.00    +0.000 A 
ENDROOT
BRANCH   1   7
ATOM      7  C   UNL     1      47.730   9.012  13.940  0.00  0.00    +0.000 C 
BRANCH   7  10
ATOM      8  C   UNL     1      48.593   9.435  16.211  0.00  0.00    +0.000 C 
ATOM      9  O   UNL     1      49.762   9.362  15.833  0.00  0.00    +0.000 OA
ATOM     10  N   UNL     1      47.551   9.279  15.345  0.00  0.00    +0.000 N 
ATOM     11  H   UNL     1      46.601   9.280  15.688  0.00  0.00    +0.000 HD
BRANCH   8  19
ATOM     12  C   UNL     1      48.052   7.391  18.925  0.00  0.00    +0.000 A 
ATOM     13  N   UNL     1      47.790   6.835  20.122  0.00  0.00    +0.000 NA
ATOM     14  C   UNL     1      47.503   7.646  21.139  0.00  0.00    +0.000 A 
ATOM     15  N   UNL     1      47.441   8.975  21.114  0.00  0.00    +0.000 NA
ATOM     16  C   UNL     1      47.714   9.488  19.900  0.00  0.00    +0.000 A 
ATOM     17  S   UNL     1      47.685  11.173  19.680  0.00  0.00    +0.000 S 
ATOM     18  C   UNL     1      48.092  11.015  18.037  0.00  0.00    +0.000 A 
ATOM     19  C   UNL     1      48.255   9.698  17.623  0.00  0.00    +0.000 A 
ATOM     20  C   UNL     1      48.032   8.786  18.745  0.00  0.00    +0.000 A 
BRANCH  12  22
ATOM     21  C   UNL     1      47.778   5.269  17.988  0.00  0.00    +0.000 C 
ATOM     22  O   UNL     1      48.400   6.548  17.891  0.00  0.00    +0.000 OA
ENDBRANCH  12  22
ENDBRANCH   8  19
ENDBRANCH   7  10
ENDBRANCH   1   7
BRANCH   4  23
ATOM     23  C   UNL     1      45.614   3.731  12.490  0.00  0.00    +0.000 C 
BRANCH  23  24
ATOM     24  N   UNL     1      44.188   3.616  12.805  0.00  0.00    +0.000 NA
ATOM     25  H   UNL     1      43.926   4.446  13.342  0.00  0.00    +0.000 HD
BRANCH  24  26
ATOM     26  C   UNL     1      43.299   3.580  11.620  0.00  0.00    +0.000 C 
ATOM     27  C   UNL     1      42.421   4.831  11.470  0.00  0.00    +0.000 C 
BRANCH  26  28
ATOM     28  C   UNL     1      44.115   3.388  10.333  0.00  0.00    +0.000 A 
ATOM     29  C   UNL     1      44.466   2.110   9.887  0.00  0.00    +0.000 A 
ATOM     30  C   UNL     1      45.212   1.975   8.717  0.00  0.00    +0.000 A 
ATOM     31  C   UNL     1      45.596   3.113   8.023  0.00  0.00    +0.000 A 
ATOM     32  C   UNL     1      45.214   4.344   8.528  0.00  0.00    +0.000 A 
ATOM     33  N   UNL     1      44.483   4.508   9.658  0.00  0.00    +0.000 NA
ENDBRANCH  26  28
ENDBRANCH  24  26
ENDBRANCH  23  24
ENDBRANCH   4  23
TORSDOF 8
ENDMDL
MODEL 6
REMARK VINA RESULT:    -6.414      1.906      3.089
REMARK INTER + INTRA:         -10.553
REMARK INTER:                  -9.523
REMARK INTRA:                  -1.030
REMARK UNBOUND:                -1.138
REMARK  Name = 
REMARK  10 active torsions:
REMARK  status: ('A' for Active; 'I' for Inactive)
REMARK    1  A    between atoms: C_1  and  O_2
REMARK    2  A    between atoms: O_2  and  C_3
REMARK    3  A    between atoms: C_10  and  C_11
REMARK    4  A    between atoms: N_13  and  C_14
REMARK    5  A    between atoms: C_14  and  C_15
REMARK    6  A    between atoms: C_18  and  C_19
REMARK    7  A    between atoms: C_19  and  N_20
REMARK    8  A    between atoms: N_20  and  C_21
REMARK    9  A    between atoms: C_21  and  C_22
REMARK   10  A    between atoms: C_21  and  C_23
REMARK                            x       y       z     vdW  Elec       q    Type
REMARK                         _______ _______ _______ _____ _____    ______ ____
ROOT
ATOM      1  C   UNL     1      47.558   6.393  13.856  0.00  0.00    +0.000 A 
ATOM      2  C   UNL     1      47.268   5.169  14.473  0.00  0.00    +0.000 A 
ATOM      3  C   UNL     1      46.331   4.288  13.914  0.00  0.00    +0.000 A 
ATOM      4  C   UNL     1      45.662   4.609  12.722  0.00  0.00    +0.000 A 
ATOM      5  C   UNL     1      45.981   5.817  12.090  0.00  0.00    +0.000 A 
ATOM      6  C   UNL     1      46.923   6.694  12.644  0.00  0.00    +0.000 A 
ENDROOT
BRANCH   1   7
ATOM      7  C   UNL     1      48.562   7.348  14.460  0.00  0.00    +0.000 C 
BRANCH   7  10
ATOM      8  C   UNL     1      49.563   6.772  16.639  0.00  0.00    +0.000 C 
ATOM      9  O   UNL     1      48.770   7.489  17.248  0.00  0.00    +0.000 OA
ATOM     10  N   UNL     1      49.520   6.650  15.281  0.00  0.00    +0.000 N 
ATOM     11  H   UNL     1      50.219   6.105  14.797  0.00  0.00    +0.000 HD
BRANCH   8  19
ATOM     12  C   UNL     1      52.439   7.666  18.300  0.00  0.00    +0.000 A 
ATOM     13  N   UNL     1      53.595   7.736  18.986  0.00  0.00    +0.000 NA
ATOM     14  C   UNL     1      54.142   6.598  19.409  0.00  0.00    +0.000 A 
ATOM     15  N   UNL     1      53.672   5.365  19.231  0.00  0.00    +0.000 NA
ATOM     16  C   UNL     1      52.514   5.343  18.544  0.00  0.00    +0.000 A 
ATOM     17  S   UNL     1      51.763   3.852  18.223  0.00  0.00    +0.000 S 
ATOM     18  C   UNL     1      50.489   4.616  17.397  0.00  0.00    +0.000 A 
ATOM     19  C   UNL     1      50.603   6.000  17.346  0.00  0.00    +0.000 A 
ATOM     20  C   UNL     1      51.817   6.432  18.039  0.00  0.00    +0.000 A 
BRANCH  12  22
ATOM     21  C   UNL     1      52.501   9.447  16.791  0.00  0.00    +0.000 C 
ATOM     22  O   UNL     1      51.853   8.851  17.912  0.00  0.00    +0.000 OA
ENDBRANCH  12  22
ENDBRANCH   8  19
ENDBRANCH   7  10
ENDBRANCH   1   7
BRANCH   4  23
ATOM     23  C   UNL     1      44.651   3.658  12.101  0.00  0.00    +0.000 C 
BRANCH  23  24
ATOM     24  N   UNL     1      45.244   2.866  11.021  0.00  0.00    +0.000 NA
ATOM     25  H   UNL     1      45.167   1.881  11.287  0.00  0.00    +0.000 HD
BRANCH  24  26
ATOM     26  C   UNL     1      44.562   3.005   9.713  0.00  0.00    +0.000 C 
ATOM     27  C   UNL     1      43.883   4.368   9.516  0.00  0.00    +0.000 C 
BRANCH  26  28
ATOM     28  C   UNL     1      45.546   2.769   8.558  0.00  0.00    +0.000 A 
ATOM     29  C   UNL     1      46.076   1.498   8.313  0.00  0.00    +0.000 A 
ATOM     30  C   UNL     1      46.972   1.322   7.259  0.00  0.00    +0.000 A 
ATOM     31  C   UNL     1      47.323   2.414   6.478  0.00  0.00    +0.000 A 
ATOM     32  C   UNL     1      46.759   3.641   6.784  0.00  0.00    +0.000 A 
ATOM     33  N   UNL     1      45.881   3.843   7.796  0.00  0.00    +0.000 NA
ENDBRANCH  26  28
ENDBRANCH  24  26
ENDBRANCH  23  24
ENDBRANCH   4  23
TORSDOF 8
ENDMDL
MODEL 7
REMARK VINA RESULT:    -5.507      3.345      5.075
REMARK INTER + INTRA:          -9.221
REMARK INTER:                  -8.018
REMARK INTRA:                  -1.203
REMARK UNBOUND:                -1.138
REMARK  Name = 
REMARK  10 active torsions:
REMARK  status: ('A' for Active; 'I' for Inactive)
REMARK    1  A    between atoms: C_1  and  O_2
REMARK    2  A    between atoms: O_2  and  C_3
REMARK    3  A    between atoms: C_10  and  C_11
REMARK    4  A    between atoms: N_13  and  C_14
REMARK    5  A    between atoms: C_14  and  C_15
REMARK    6  A    between atoms: C_18  and  C_19
REMARK    7  A    between atoms: C_19  and  N_20
REMARK    8  A    between atoms: N_20  and  C_21
REMARK    9  A    between atoms: C_21  and  C_22
REMARK   10  A    between atoms: C_21  and  C_23
REMARK                            x       y       z     vdW  Elec       q    Type
REMARK                         _______ _______ _______ _____ _____    ______ ____
ROOT
ATOM      1  C   UNL     1      48.227   5.891  15.121  0.00  0.00    +0.000 A 
ATOM      2  C   UNL     1      47.515   4.738  15.478  0.00  0.00    +0.000 A 
ATOM      3  C   UNL     1      46.457   4.274  14.683  0.00  0.00    +0.000 A 
ATOM      4  C   UNL     1      46.085   4.950  13.511  0.00  0.00    +0.000 A 
ATOM      5  C   UNL     1      46.822   6.082  13.140  0.00  0.00    +0.000 A 
ATOM      6  C   UNL     1      47.885   6.542  13.929  0.00  0.00    +0.000 A 
ENDROOT
BRANCH   1   7
ATOM      7  C   UNL     1      49.363   6.398  15.979  0.00  0.00    +0.000 C 
BRANCH   7  10
ATOM      8  C   UNL     1      51.589   7.407  15.651  0.00  0.00    +0.000 C 
ATOM      9  O   UNL     1      51.954   7.090  16.782  0.00  0.00    +0.000 OA
ATOM     10  N   UNL     1      50.343   7.101  15.189  0.00  0.00    +0.000 N 
ATOM     11  H   UNL     1      50.043   7.426  14.280  0.00  0.00    +0.000 HD
BRANCH   8  19
ATOM     12  C   UNL     1      51.188  10.218  13.708  0.00  0.00    +0.000 A 
ATOM     13  N   UNL     1      51.296  11.263  12.867  0.00  0.00    +0.000 NA
ATOM     14  C   UNL     1      52.453  11.436  12.230  0.00  0.00    +0.000 A 
ATOM     15  N   UNL     1      53.544  10.679  12.326  0.00  0.00    +0.000 NA
ATOM     16  C   UNL     1      53.392   9.650  13.180  0.00  0.00    +0.000 A 
ATOM     17  S   UNL     1      54.686   8.577  13.432  0.00  0.00    +0.000 S 
ATOM     18  C   UNL     1      53.773   7.656  14.531  0.00  0.00    +0.000 A 
ATOM     19  C   UNL     1      52.482   8.135  14.728  0.00  0.00    +0.000 A 
ATOM     20  C   UNL     1      52.260   9.333  13.919  0.00  0.00    +0.000 A 
BRANCH  12  22
ATOM     21  C   UNL     1      48.862  10.070  13.553  0.00  0.00    +0.000 C 
ATOM     22  O   UNL     1      50.006  10.077  14.403  0.00  0.00    +0.000 OA
ENDBRANCH  12  22
ENDBRANCH   8  19
ENDBRANCH   7  10
ENDBRANCH   1   7
BRANCH   4  23
ATOM     23  C   UNL     1      44.946   4.452  12.636  0.00  0.00    +0.000 C 
BRANCH  23  24
ATOM     24  N   UNL     1      45.421   3.530  11.601  0.00  0.00    +0.000 NA
ATOM     25  H   UNL     1      45.471   2.599  12.021  0.00  0.00    +0.000 HD
BRANCH  24  26
ATOM     26  C   UNL     1      44.527   3.417  10.425  0.00  0.00    +0.000 C 
ATOM     27  C   UNL     1      43.640   4.651  10.204  0.00  0.00    +0.000 C 
BRANCH  26  28
ATOM     28  C   UNL     1      45.338   3.153   9.148  0.00  0.00    +0.000 A 
ATOM     29  C   UNL     1      45.662   1.849   8.758  0.00  0.00    +0.000 A 
ATOM     30  C   UNL     1      46.406   1.648   7.596  0.00  0.00    +0.000 A 
ATOM     31  C   UNL     1      46.812   2.747   6.852  0.00  0.00    +0.000 A 
ATOM     32  C   UNL     1      46.455   4.007   7.303  0.00  0.00    +0.000 A 
ATOM     33  N   UNL     1      45.729   4.234   8.424  0.00  0.00    +0.000 NA
ENDBRANCH  26  28
ENDBRANCH  24  26
ENDBRANCH  23  24
ENDBRANCH   4  23
TORSDOF 8
ENDMDL
MODEL 8
REMARK VINA RESULT:    -5.354     10.428     11.579
REMARK INTER + INTRA:          -8.996
REMARK INTER:                  -7.297
REMARK INTRA:                  -1.700
REMARK UNBOUND:                -1.138
REMARK  Name = 
REMARK  10 active torsions:
REMARK  status: ('A' for Active; 'I' for Inactive)
REMARK    1  A    between atoms: C_1  and  O_2
REMARK    2  A    between atoms: O_2  and  C_3
REMARK    3  A    between atoms: C_10  and  C_11
REMARK    4  A    between atoms: N_13  and  C_14
REMARK    5  A    between atoms: C_14  and  C_15
REMARK    6  A    between atoms: C_18  and  C_19
REMARK    7  A    between atoms: C_19  and  N_20
REMARK    8  A    between atoms: N_20  and  C_21
REMARK    9  A    between atoms: C_21  and  C_22
REMARK   10  A    between atoms: C_21  and  C_23
REMARK                            x       y       z     vdW  Elec       q    Type
REMARK                         _______ _______ _______ _____ _____    ______ ____
ROOT
ATOM      1  C   UNL     1      40.626  -3.004  17.108  0.00  0.00    +0.000 A 
ATOM      2  C   UNL     1      41.363  -4.096  16.631  0.00  0.00    +0.000 A 
ATOM      3  C   UNL     1      41.571  -4.274  15.255  0.00  0.00    +0.000 A 
ATOM      4  C   UNL     1      41.050  -3.363  14.323  0.00  0.00    +0.000 A 
ATOM      5  C   UNL     1      40.345  -2.254  14.807  0.00  0.00    +0.000 A 
ATOM      6  C   UNL     1      40.143  -2.071  16.181  0.00  0.00    +0.000 A 
ENDROOT
BRANCH   1   7
ATOM      7  C   UNL     1      40.393  -2.814  18.589  0.00  0.00    +0.000 C 
BRANCH   7  10
ATOM      8  C   UNL     1      38.853  -1.001  19.239  0.00  0.00    +0.000 C 
ATOM      9  O   UNL     1      37.896  -1.771  19.307  0.00  0.00    +0.000 OA
ATOM     10  N   UNL     1      40.100  -1.436  18.900  0.00  0.00    +0.000 N 
ATOM     11  H   UNL     1      40.856  -0.776  18.789  0.00  0.00    +0.000 HD
BRANCH   8  19
ATOM     12  C   UNL     1      38.417   1.766  17.241  0.00  0.00    +0.000 A 
ATOM     13  N   UNL     1      38.253   2.989  16.705  0.00  0.00    +0.000 NA
ATOM     14  C   UNL     1      38.198   4.032  17.531  0.00  0.00    +0.000 A 
ATOM     15  N   UNL     1      38.289   4.011  18.859  0.00  0.00    +0.000 NA
ATOM     16  C   UNL     1      38.448   2.769  19.351  0.00  0.00    +0.000 A 
ATOM     17  S   UNL     1      38.579   2.548  21.032  0.00  0.00    +0.000 S 
ATOM     18  C   UNL     1      38.743   0.866  20.847  0.00  0.00    +0.000 A 
ATOM     19  C   UNL     1      38.704   0.440  19.525  0.00  0.00    +0.000 A 
ATOM     20  C   UNL     1      38.522   1.584  18.632  0.00  0.00    +0.000 A 
BRANCH  12  22
ATOM     21  C   UNL     1      37.244   0.615  15.581  0.00  0.00    +0.000 C 
ATOM     22  O   UNL     1      38.420   0.687  16.383  0.00  0.00    +0.000 OA
ENDBRANCH  12  22
ENDBRANCH   8  19
ENDBRANCH   7  10
ENDBRANCH   1   7
BRANCH   4  23
ATOM     23  C   UNL     1      41.278  -3.540  12.831  0.00  0.00    +0.000 C 
BRANCH  23  24
ATOM     24  N   UNL     1      40.998  -2.308  12.089  0.00  0.00    +0.000 NA
ATOM     25  H   UNL     1      41.858  -2.040  11.606  0.00  0.00    +0.000 HD
BRANCH  24  26
ATOM     26  C   UNL     1      39.953  -2.443  11.049  0.00  0.00    +0.000 C 
ATOM     27  C   UNL     1      39.589  -3.899  10.726  0.00  0.00    +0.000 C 
BRANCH  26  28
ATOM     28  C   UNL     1      38.677  -1.691  11.457  0.00  0.00    +0.000 A 
ATOM     29  C   UNL     1      37.664  -2.332  12.179  0.00  0.00    +0.000 A 
ATOM     30  C   UNL     1      36.517  -1.621  12.526  0.00  0.00    +0.000 A 
ATOM     31  C   UNL     1      36.402  -0.291  12.144  0.00  0.00    +0.000 A 
ATOM     32  C   UNL     1      37.444   0.273  11.429  0.00  0.00    +0.000 A 
ATOM     33  N   UNL     1      38.574  -0.390  11.081  0.00  0.00    +0.000 NA
ENDBRANCH  26  28
ENDBRANCH  24  26
ENDBRANCH  23  24
ENDBRANCH   4  23
TORSDOF 8
ENDMDL
MODEL 9
REMARK VINA RESULT:    -5.207     10.793     13.673
REMARK INTER + INTRA:          -8.781
REMARK INTER:                  -7.266
REMARK INTRA:                  -1.515
REMARK UNBOUND:                -1.138
REMARK  Name = 
REMARK  10 active torsions:
REMARK  status: ('A' for Active; 'I' for Inactive)
REMARK    1  A    between atoms: C_1  and  O_2
REMARK    2  A    between atoms: O_2  and  C_3
REMARK    3  A    between atoms: C_10  and  C_11
REMARK    4  A    between atoms: N_13  and  C_14
REMARK    5  A    between atoms: C_14  and  C_15
REMARK    6  A    between atoms: C_18  and  C_19
REMARK    7  A    between atoms: C_19  and  N_20
REMARK    8  A    between atoms: N_20  and  C_21
REMARK    9  A    between atoms: C_21  and  C_22
REMARK   10  A    between atoms: C_21  and  C_23
REMARK                            x       y       z     vdW  Elec       q    Type
REMARK                         _______ _______ _______ _____ _____    ______ ____
ROOT
ATOM      1  C   UNL     1      41.084  -3.349  15.479  0.00  0.00    +0.000 A 
ATOM      2  C   UNL     1      41.308  -4.032  16.682  0.00  0.00    +0.000 A 
ATOM      3  C   UNL     1      40.928  -3.466  17.908  0.00  0.00    +0.000 A 
ATOM      4  C   UNL     1      40.314  -2.205  17.961  0.00  0.00    +0.000 A 
ATOM      5  C   UNL     1      40.060  -1.543  16.753  0.00  0.00    +0.000 A 
ATOM      6  C   UNL     1      40.432  -2.110  15.527  0.00  0.00    +0.000 A 
ENDROOT
BRANCH   1   7
ATOM      7  C   UNL     1      41.499  -3.952  14.156  0.00  0.00    +0.000 C 
BRANCH   7  10
ATOM      8  C   UNL     1      40.604  -2.825  12.154  0.00  0.00    +0.000 C 
ATOM      9  O   UNL     1      41.598  -2.106  12.055  0.00  0.00    +0.000 OA
ATOM     10  N   UNL     1      40.487  -3.750  13.149  0.00  0.00    +0.000 N 
ATOM     11  H   UNL     1      39.636  -4.286  13.248  0.00  0.00    +0.000 HD
BRANCH   8  19
ATOM     12  C   UNL     1      37.579  -1.188  12.225  0.00  0.00    +0.000 A 
ATOM     13  N   UNL     1      36.358  -0.669  12.000  0.00  0.00    +0.000 NA
ATOM     14  C   UNL     1      35.755  -0.966  10.850  0.00  0.00    +0.000 A 
ATOM     15  N   UNL     1      36.225  -1.735   9.870  0.00  0.00    +0.000 NA
ATOM     16  C   UNL     1      37.448  -2.228  10.136  0.00  0.00    +0.000 A 
ATOM     17  S   UNL     1      38.209  -3.232   8.994  0.00  0.00    +0.000 S 
ATOM     18  C   UNL     1      39.574  -3.414   9.992  0.00  0.00    +0.000 A 
ATOM     19  C   UNL     1      39.484  -2.728  11.197  0.00  0.00    +0.000 A 
ATOM     20  C   UNL     1      38.209  -2.015  11.277  0.00  0.00    +0.000 A 
BRANCH  12  22
ATOM     21  C   UNL     1      37.317  -0.394  14.406  0.00  0.00    +0.000 C 
ATOM     22  O   UNL     1      38.219  -0.833  13.393  0.00  0.00    +0.000 OA
ENDBRANCH  12  22
ENDBRANCH   8  19
ENDBRANCH   7  10
ENDBRANCH   1   7
BRANCH   4  23
ATOM     23  C   UNL     1      39.889  -1.586  19.283  0.00  0.00    +0.000 C 
BRANCH  23  24
ATOM     24  N   UNL     1      38.620  -0.865  19.162  0.00  0.00    +0.000 NA
ATOM     25  H   UNL     1      37.886  -1.473  19.531  0.00  0.00    +0.000 HD
BRANCH  24  26
ATOM     26  C   UNL     1      38.556   0.396  19.937  0.00  0.00    +0.000 C 
ATOM     27  C   UNL     1      39.759   0.610  20.866  0.00  0.00    +0.000 C 
BRANCH  26  28
ATOM     28  C   UNL     1      38.431   1.607  19.000  0.00  0.00    +0.000 A 
ATOM     29  C   UNL     1      38.080   1.443  17.656  0.00  0.00    +0.000 A 
ATOM     30  C   UNL     1      37.983   2.564  16.833  0.00  0.00    +0.000 A 
ATOM     31  C   UNL     1      38.243   3.820  17.364  0.00  0.00    +0.000 A 
ATOM     32  C   UNL     1      38.588   3.902  18.703  0.00  0.00    +0.000 A 
ATOM     33  N   UNL     1      38.684   2.832  19.529  0.00  0.00    +0.000 NA
ENDBRANCH  26  28
ENDBRANCH  24  26
ENDBRANCH  23  24
ENDBRANCH   4  23
TORSDOF 8
ENDMDL
