MODEL 1
REMARK VINA RESULT:    -6.961      0.000      0.000
REMARK INTER + INTRA:         -12.276
REMARK INTER:                 -10.624
REMARK INTRA:                  -1.652
REMARK UNBOUND:                -1.652
REMARK  Name = 
REMARK  10 active torsions:
REMARK  status: ('A' for Active; 'I' for Inactive)
REMARK    1  A    between atoms: C_1  and  C_2
REMARK    2  A    between atoms: C_2  and  C_3
REMARK    3  A    between atoms: C_3  and  C_4
REMARK    4  A    between atoms: C_4  and  N_5
REMARK    5  A    between atoms: C_4  and  C_27
REMARK    6  A    between atoms: N_5  and  C_6
REMARK    7  A    between atoms: C_6  and  C_7
REMARK    8  A    between atoms: C_10  and  C_11
REMARK    9  A    between atoms: C_11  and  N_12
REMARK   10  A    between atoms: C_13  and  C_15
REMARK                            x       y       z     vdW  Elec       q    Type
REMARK                         _______ _______ _______ _____ _____    ______ ____
ROOT
ATOM      1  C   UNL     1      49.250   7.920  15.801  0.00  0.00    +0.000 A 
ATOM      2  C   UNL     1      49.669   6.987  14.856  0.00  0.00    +0.000 A 
ATOM      3  C   UNL     1      49.063   6.972  13.599  0.00  0.00    +0.000 A 
ATOM      4  C   UNL     1      48.054   7.890  13.301  0.00  0.00    +0.000 A 
ATOM      5  C   UNL     1      47.693   8.778  14.307  0.00  0.00    +0.000 A 
ATOM      6  N   UNL     1      48.265   8.817  15.534  0.00  0.00    +0.000 NA
ENDROOT
BRANCH   1   7
ATOM      7  C   UNL     1      49.742   7.863  17.237  0.00  0.00    +0.000 C 
BRANCH   7   8
ATOM      8  N   UNL     1      50.390   6.599  17.641  0.00  0.00    +0.000 NA
ATOM      9  H   UNL     1      51.154   6.839  18.276  0.00  0.00    +0.000 HD
BRANCH   8  10
ATOM     10  C   UNL     1      49.462   5.706  18.379  0.00  0.00    +0.000 C 
BRANCH  10  11
ATOM     11  C   UNL     1      49.394   4.343  17.697  0.00  0.00    +0.000 A 
ATOM     12  C   UNL     1      48.270   3.988  16.939  0.00  0.00    +0.000 A 
ATOM     13  C   UNL     1      48.277   2.785  16.248  0.00  0.00    +0.000 A 
ATOM     14  N   UNL     1      49.305   1.913  16.268  0.00  0.00    +0.000 NA
ATOM     15  C   UNL     1      50.373   2.260  17.017  0.00  0.00    +0.000 A 
ATOM     16  C   UNL     1      50.463   3.442  17.736  0.00  0.00    +0.000 A 
ENDBRANCH  10  11
BRANCH  10  17
ATOM     17  C   UNL     1      48.037   6.306  18.523  0.00  0.00    +0.000 C 
BRANCH  17  19
ATOM     18  C   UNL     1      48.153   7.129  20.951  0.00  0.00    +0.000 C 
ATOM     19  C   UNL     1      47.423   6.266  19.931  0.00  0.00    +0.000 C 
ENDBRANCH  17  19
ENDBRANCH  10  17
ENDBRANCH   8  10
ENDBRANCH   7   8
ENDBRANCH   1   7
BRANCH   4  20
ATOM     20  C   UNL     1      47.347   7.896  11.977  0.00  0.00    +0.000 C 
BRANCH  20  21
ATOM     21  N   UNL     1      46.710   6.631  11.709  0.00  0.00    +0.000 N 
ATOM     22  C   UNL     1      45.348   6.532  11.607  0.00  0.00    +0.000 C 
ATOM     23  O   UNL     1      44.617   7.516  11.680  0.00  0.00    +0.000 OA
ATOM     24  H   UNL     1      47.259   5.789  11.867  0.00  0.00    +0.000 HD
BRANCH  22  25
ATOM     25  C   UNL     1      44.801   5.191  11.346  0.00  0.00    +0.000 A 
ATOM     26  C   UNL     1      44.046   4.553  12.321  0.00  0.00    +0.000 A 
ATOM     27  S   UNL     1      43.450   3.030  11.839  0.00  0.00    +0.000 S 
ATOM     28  C   UNL     1      44.222   3.142  10.328  0.00  0.00    +0.000 A 
ATOM     29  N   UNL     1      44.132   2.136   9.420  0.00  0.00    +0.000 NA
ATOM     30  C   UNL     1      44.789   2.343   8.327  0.00  0.00    +0.000 A 
ATOM     31  N   UNL     1      45.524   3.471   8.060  0.00  0.00    +0.000 N 
ATOM     32  C   UNL     1      45.621   4.524   8.936  0.00  0.00    +0.000 A 
ATOM     33  O   UNL     1      46.250   5.538   8.649  0.00  0.00    +0.000 OA
ATOM     34  C   UNL     1      44.909   4.337  10.185  0.00  0.00    +0.000 A 
ATOM     35  H   UNL     1      46.009   3.574   7.181  0.00  0.00    +0.000 HD
ENDBRANCH  22  25
ENDBRANCH  20  21
ENDBRANCH   4  20
TORSDOF 9
ENDMDL
MODEL 2
REMARK VINA RESULT:    -6.914      2.968      8.322
REMARK INTER + INTRA:         -12.204
REMARK INTER:                 -10.640
REMARK INTRA:                  -1.564
REMARK UNBOUND:                -1.652
REMARK  Name = 
REMARK  10 active torsions:
REMARK  status: ('A' for Active; 'I' for Inactive)
REMARK    1  A    between atoms: C_1  and  C_2
REMARK    2  A    between atoms: C_2  and  C_3
REMARK    3  A    between atoms: C_3  and  C_4
REMARK    4  A    between atoms: C_4  and  N_5
REMARK    5  A    between atoms: C_4  and  C_27
REMARK    6  A    between atoms: N_5  and  C_6
REMARK    7  A    between atoms: C_6  and  C_7
REMARK    8  A    between atoms: C_10  and  C_11
REMARK    9  A    between atoms: C_11  and  N_12
REMARK   10  A    between atoms: C_13  and  C_15
REMARK                            x       y       z     vdW  Elec       q    Type
REMARK                         _______ _______ _______ _____ _____    ______ ____
ROOT
ATOM      1  C   UNL     1      45.456   6.655  11.218  0.00  0.00    +0.000 A 
ATOM      2  C   UNL     1      46.733   6.196  11.531  0.00  0.00    +0.000 A 
ATOM      3  C   UNL     1      47.484   6.876  12.491  0.00  0.00    +0.000 A 
ATOM      4  C   UNL     1      46.949   7.998  13.128  0.00  0.00    +0.000 A 
ATOM      5  C   UNL     1      45.672   8.390  12.746  0.00  0.00    +0.000 A 
ATOM      6  N   UNL     1      44.920   7.749  11.821  0.00  0.00    +0.000 NA
ENDROOT
BRANCH   1   7
ATOM      7  C   UNL     1      44.671   6.068  10.057  0.00  0.00    +0.000 C 
BRANCH   7   8
ATOM      8  N   UNL     1      45.448   5.242   9.112  0.00  0.00    +0.000 NA
ATOM      9  H   UNL     1      46.421   5.550   9.168  0.00  0.00    +0.000 HD
BRANCH   8  10
ATOM     10  C   UNL     1      45.416   3.802   9.472  0.00  0.00    +0.000 C 
BRANCH  10  11
ATOM     11  C   UNL     1      45.990   2.965   8.333  0.00  0.00    +0.000 A 
ATOM     12  C   UNL     1      46.463   3.586   7.169  0.00  0.00    +0.000 A 
ATOM     13  C   UNL     1      47.070   2.811   6.192  0.00  0.00    +0.000 A 
ATOM     14  N   UNL     1      47.227   1.475   6.282  0.00  0.00    +0.000 NA
ATOM     15  C   UNL     1      46.750   0.888   7.401  0.00  0.00    +0.000 A 
ATOM     16  C   UNL     1      46.136   1.578   8.435  0.00  0.00    +0.000 A 
ENDBRANCH  10  11
BRANCH  10  17
ATOM     17  C   UNL     1      43.991   3.305   9.838  0.00  0.00    +0.000 C 
BRANCH  17  19
ATOM     18  C   UNL     1      44.997   3.061  12.186  0.00  0.00    +0.000 C 
ATOM     19  C   UNL     1      43.784   2.849  11.291  0.00  0.00    +0.000 C 
ENDBRANCH  17  19
ENDBRANCH  10  17
ENDBRANCH   8  10
ENDBRANCH   7   8
ENDBRANCH   1   7
BRANCH   4  20
ATOM     20  C   UNL     1      47.727   8.784  14.143  0.00  0.00    +0.000 C 
BRANCH  20  21
ATOM     21  N   UNL     1      48.016   8.000  15.317  0.00  0.00    +0.000 N 
ATOM     22  C   UNL     1      49.255   7.453  15.514  0.00  0.00    +0.000 C 
ATOM     23  O   UNL     1      50.187   7.652  14.738  0.00  0.00    +0.000 OA
ATOM     24  H   UNL     1      47.224   7.640  15.844  0.00  0.00    +0.000 HD
BRANCH  22  25
ATOM     25  C   UNL     1      49.438   6.658  16.738  0.00  0.00    +0.000 A 
ATOM     26  C   UNL     1      50.266   7.128  17.749  0.00  0.00    +0.000 A 
ATOM     27  S   UNL     1      50.329   6.109  19.115  0.00  0.00    +0.000 S 
ATOM     28  C   UNL     1      49.293   4.974  18.385  0.00  0.00    +0.000 A 
ATOM     29  N   UNL     1      48.951   3.826  19.027  0.00  0.00    +0.000 NA
ATOM     30  C   UNL     1      48.181   3.044  18.347  0.00  0.00    +0.000 A 
ATOM     31  N   UNL     1      47.718   3.311  17.083  0.00  0.00    +0.000 N 
ATOM     32  C   UNL     1      48.015   4.469  16.407  0.00  0.00    +0.000 A 
ATOM     33  O   UNL     1      47.550   4.697  15.295  0.00  0.00    +0.000 OA
ATOM     34  C   UNL     1      48.888   5.378  17.124  0.00  0.00    +0.000 A 
ATOM     35  H   UNL     1      47.111   2.659  16.607  0.00  0.00    +0.000 HD
ENDBRANCH  22  25
ENDBRANCH  20  21
ENDBRANCH   4  20
TORSDOF 9
ENDMDL
MODEL 3
REMARK VINA RESULT:    -6.645      3.948      6.026
REMARK INTER + INTRA:         -11.793
REMARK INTER:                 -10.291
REMARK INTRA:                  -1.501
REMARK UNBOUND:                -1.652
REMARK  Name = 
REMARK  10 active torsions:
REMARK  status: ('A' for Active; 'I' for Inactive)
REMARK    1  A    between atoms: C_1  and  C_2
REMARK    2  A    between atoms: C_2  and  C_3
REMARK    3  A    between atoms: C_3  and  C_4
REMARK    4  A    between atoms: C_4  and  N_5
REMARK    5  A    between atoms: C_4  and  C_27
REMARK    6  A    between atoms: N_5  and  C_6
REMARK    7  A    between atoms: C_6  and  C_7
REMARK    8  A    between atoms: C_10  and  C_11
REMARK    9  A    between atoms: C_11  and  N_12
REMARK   10  A    between atoms: C_13  and  C_15
REMARK                            x       y       z     vdW  Elec       q    Type
REMARK                         _______ _______ _______ _____ _____    ______ ____
ROOT
ATOM      1  C   UNL     1      50.946   2.527  17.427  0.00  0.00    +0.000 A 
ATOM      2  C   UNL     1      51.663   3.718  17.517  0.00  0.00    +0.000 A 
ATOM      3  C   UNL     1      50.988   4.931  17.378  0.00  0.00    +0.000 A 
ATOM      4  C   UNL     1      49.609   4.940  17.159  0.00  0.00    +0.000 A 
ATOM      5  C   UNL     1      48.977   3.705  17.073  0.00  0.00    +0.000 A 
ATOM      6  N   UNL     1      49.606   2.514  17.207  0.00  0.00    +0.000 NA
ENDROOT
BRANCH   1   7
ATOM      7  C   UNL     1      51.653   1.183  17.387  0.00  0.00    +0.000 C 
BRANCH   7   8
ATOM      8  N   UNL     1      52.655   0.955  18.447  0.00  0.00    +0.000 NA
ATOM      9  H   UNL     1      52.481   0.026  18.834  0.00  0.00    +0.000 HD
BRANCH   8  10
ATOM     10  C   UNL     1      54.042   0.964  17.916  0.00  0.00    +0.000 C 
BRANCH  10  11
ATOM     11  C   UNL     1      54.471  -0.454  17.553  0.00  0.00    +0.000 A 
ATOM     12  C   UNL     1      54.444  -1.470  18.519  0.00  0.00    +0.000 A 
ATOM     13  C   UNL     1      54.744  -2.769  18.137  0.00  0.00    +0.000 A 
ATOM     14  N   UNL     1      55.080  -3.125  16.880  0.00  0.00    +0.000 NA
ATOM     15  C   UNL     1      55.120  -2.133  15.965  0.00  0.00    +0.000 A 
ATOM     16  C   UNL     1      54.829  -0.807  16.248  0.00  0.00    +0.000 A 
ENDBRANCH  10  11
BRANCH  10  17
ATOM     17  C   UNL     1      55.059   1.597  18.904  0.00  0.00    +0.000 C 
BRANCH  17  19
ATOM     18  C   UNL     1      55.388   3.297  17.010  0.00  0.00    +0.000 C 
ATOM     19  C   UNL     1      55.775   2.867  18.418  0.00  0.00    +0.000 C 
ENDBRANCH  17  19
ENDBRANCH  10  17
ENDBRANCH   8  10
ENDBRANCH   7   8
ENDBRANCH   1   7
BRANCH   4  20
ATOM     20  C   UNL     1      48.840   6.215  16.970  0.00  0.00    +0.000 C 
BRANCH  20  21
ATOM     21  N   UNL     1      47.897   6.112  15.884  0.00  0.00    +0.000 N 
ATOM     22  C   UNL     1      48.266   6.401  14.597  0.00  0.00    +0.000 C 
ATOM     23  O   UNL     1      49.420   6.700  14.302  0.00  0.00    +0.000 OA
ATOM     24  H   UNL     1      46.909   6.089  16.124  0.00  0.00    +0.000 HD
BRANCH  22  25
ATOM     25  C   UNL     1      47.222   6.278  13.568  0.00  0.00    +0.000 A 
ATOM     26  C   UNL     1      46.760   7.413  12.917  0.00  0.00    +0.000 A 
ATOM     27  S   UNL     1      45.587   7.089  11.722  0.00  0.00    +0.000 S 
ATOM     28  C   UNL     1      45.614   5.424  12.067  0.00  0.00    +0.000 A 
ATOM     29  N   UNL     1      44.807   4.558  11.399  0.00  0.00    +0.000 NA
ATOM     30  C   UNL     1      44.912   3.329  11.781  0.00  0.00    +0.000 A 
ATOM     31  N   UNL     1      45.756   2.888  12.769  0.00  0.00    +0.000 N 
ATOM     32  C   UNL     1      46.609   3.721  13.451  0.00  0.00    +0.000 A 
ATOM     33  O   UNL     1      47.383   3.289  14.298  0.00  0.00    +0.000 OA
ATOM     34  C   UNL     1      46.522   5.117  13.067  0.00  0.00    +0.000 A 
ATOM     35  H   UNL     1      45.796   1.909  13.015  0.00  0.00    +0.000 HD
ENDBRANCH  22  25
ENDBRANCH  20  21
ENDBRANCH   4  20
TORSDOF 9
ENDMDL
MODEL 4
REMARK VINA RESULT:    -6.622      3.956      9.049
REMARK INTER + INTRA:         -11.758
REMARK INTER:                 -10.713
REMARK INTRA:                  -1.045
REMARK UNBOUND:                -1.652
REMARK  Name = 
REMARK  10 active torsions:
REMARK  status: ('A' for Active; 'I' for Inactive)
REMARK    1  A    between atoms: C_1  and  C_2
REMARK    2  A    between atoms: C_2  and  C_3
REMARK    3  A    between atoms: C_3  and  C_4
REMARK    4  A    between atoms: C_4  and  N_5
REMARK    5  A    between atoms: C_4  and  C_27
REMARK    6  A    between atoms: N_5  and  C_6
REMARK    7  A    between atoms: C_6  and  C_7
REMARK    8  A    between atoms: C_10  and  C_11
REMARK    9  A    between atoms: C_11  and  N_12
REMARK   10  A    between atoms: C_13  and  C_15
REMARK                            x       y       z     vdW  Elec       q    Type
REMARK                         _______ _______ _______ _____ _____    ______ ____
ROOT
ATOM      1  C   UNL     1      46.755   4.453  13.744  0.00  0.00    +0.000 A 
ATOM      2  C   UNL     1      47.417   5.675  13.646  0.00  0.00    +0.000 A 
ATOM      3  C   UNL     1      48.137   6.147  14.744  0.00  0.00    +0.000 A 
ATOM      4  C   UNL     1      48.192   5.394  15.918  0.00  0.00    +0.000 A 
ATOM      5  C   UNL     1      47.494   4.193  15.930  0.00  0.00    +0.000 A 
ATOM      6  N   UNL     1      46.790   3.708  14.880  0.00  0.00    +0.000 NA
ENDROOT
BRANCH   1   7
ATOM      7  C   UNL     1      45.811   3.980  12.652  0.00  0.00    +0.000 C 
BRANCH   7   8
ATOM      8  N   UNL     1      44.556   4.745  12.515  0.00  0.00    +0.000 NA
ATOM      9  H   UNL     1      44.571   5.480  13.224  0.00  0.00    +0.000 HD
BRANCH   8  10
ATOM     10  C   UNL     1      44.446   5.405  11.190  0.00  0.00    +0.000 C 
BRANCH  10  11
ATOM     11  C   UNL     1      44.724   4.398  10.079  0.00  0.00    +0.000 A 
ATOM     12  C   UNL     1      45.557   4.742   9.005  0.00  0.00    +0.000 A 
ATOM     13  C   UNL     1      45.873   3.776   8.062  0.00  0.00    +0.000 A 
ATOM     14  N   UNL     1      45.413   2.509   8.101  0.00  0.00    +0.000 NA
ATOM     15  C   UNL     1      44.596   2.197   9.130  0.00  0.00    +0.000 A 
ATOM     16  C   UNL     1      44.230   3.090  10.125  0.00  0.00    +0.000 A 
ENDBRANCH  10  11
BRANCH  10  17
ATOM     17  C   UNL     1      45.387   6.633  11.050  0.00  0.00    +0.000 C 
BRANCH  17  19
ATOM     18  C   UNL     1      45.412   8.501  12.810  0.00  0.00    +0.000 C 
ATOM     19  C   UNL     1      44.813   7.982  11.510  0.00  0.00    +0.000 C 
ENDBRANCH  17  19
ENDBRANCH  10  17
ENDBRANCH   8  10
ENDBRANCH   7   8
ENDBRANCH   1   7
BRANCH   4  20
ATOM     20  C   UNL     1      48.925   5.872  17.138  0.00  0.00    +0.000 C 
BRANCH  20  21
ATOM     21  N   UNL     1      50.120   5.103  17.377  0.00  0.00    +0.000 N 
ATOM     22  C   UNL     1      50.505   4.769  18.648  0.00  0.00    +0.000 C 
ATOM     23  O   UNL     1      49.825   5.055  19.630  0.00  0.00    +0.000 OA
ATOM     24  H   UNL     1      50.801   5.052  16.623  0.00  0.00    +0.000 HD
BRANCH  22  25
ATOM     25  C   UNL     1      51.750   3.996  18.779  0.00  0.00    +0.000 A 
ATOM     26  C   UNL     1      52.786   4.487  19.561  0.00  0.00    +0.000 A 
ATOM     27  S   UNL     1      54.135   3.447  19.644  0.00  0.00    +0.000 S 
ATOM     28  C   UNL     1      53.404   2.324  18.595  0.00  0.00    +0.000 A 
ATOM     29  N   UNL     1      54.051   1.187  18.228  0.00  0.00    +0.000 NA
ATOM     30  C   UNL     1      53.390   0.439  17.408  0.00  0.00    +0.000 A 
ATOM     31  N   UNL     1      52.138   0.726  16.926  0.00  0.00    +0.000 N 
ATOM     32  C   UNL     1      51.436   1.848  17.291  0.00  0.00    +0.000 A 
ATOM     33  O   UNL     1      50.299   2.054  16.877  0.00  0.00    +0.000 OA
ATOM     34  C   UNL     1      52.139   2.729  18.204  0.00  0.00    +0.000 A 
ATOM     35  H   UNL     1      51.672   0.094  16.292  0.00  0.00    +0.000 HD
ENDBRANCH  22  25
ENDBRANCH  20  21
ENDBRANCH   4  20
TORSDOF 9
ENDMDL
MODEL 5
REMARK VINA RESULT:    -6.610      1.294      2.098
REMARK INTER + INTRA:         -11.741
REMARK INTER:                 -10.243
REMARK INTRA:                  -1.497
REMARK UNBOUND:                -1.652
REMARK  Name = 
REMARK  10 active torsions:
REMARK  status: ('A' for Active; 'I' for Inactive)
REMARK    1  A    between atoms: C_1  and  C_2
REMARK    2  A    between atoms: C_2  and  C_3
REMARK    3  A    between atoms: C_3  and  C_4
REMARK    4  A    between atoms: C_4  and  N_5
REMARK    5  A    between atoms: C_4  and  C_27
REMARK    6  A    between atoms: N_5  and  C_6
REMARK    7  A    between atoms: C_6  and  C_7
REMARK    8  A    between atoms: C_10  and  C_11
REMARK    9  A    between atoms: C_11  and  N_12
REMARK   10  A    between atoms: C_13  and  C_15
REMARK                            x       y       z     vdW  Elec       q    Type
REMARK                         _______ _______ _______ _____ _____    ______ ____
ROOT
ATOM      1  C   UNL     1      50.088   7.345  15.174  0.00  0.00    +0.000 A 
ATOM      2  C   UNL     1      50.199   8.478  14.371  0.00  0.00    +0.000 A 
ATOM      3  C   UNL     1      49.314   8.645  13.305  0.00  0.00    +0.000 A 
ATOM      4  C   UNL     1      48.330   7.686  13.058  0.00  0.00    +0.000 A 
ATOM      5  C   UNL     1      48.300   6.584  13.903  0.00  0.00    +0.000 A 
ATOM      6  N   UNL     1      49.142   6.396  14.946  0.00  0.00    +0.000 NA
ENDROOT
BRANCH   1   7
ATOM      7  C   UNL     1      51.132   7.022  16.228  0.00  0.00    +0.000 C 
BRANCH   7   8
ATOM      8  N   UNL     1      50.607   6.678  17.565  0.00  0.00    +0.000 NA
ATOM      9  H   UNL     1      49.604   6.872  17.556  0.00  0.00    +0.000 HD
BRANCH   8  10
ATOM     10  C   UNL     1      50.780   5.238  17.879  0.00  0.00    +0.000 C 
BRANCH  10  11
ATOM     11  C   UNL     1      49.447   4.508  17.737  0.00  0.00    +0.000 A 
ATOM     12  C   UNL     1      48.242   5.189  17.958  0.00  0.00    +0.000 A 
ATOM     13  C   UNL     1      47.044   4.529  17.725  0.00  0.00    +0.000 A 
ATOM     14  N   UNL     1      46.959   3.250  17.306  0.00  0.00    +0.000 NA
ATOM     15  C   UNL     1      48.128   2.601  17.116  0.00  0.00    +0.000 A 
ATOM     16  C   UNL     1      49.374   3.177  17.314  0.00  0.00    +0.000 A 
ENDBRANCH  10  11
BRANCH  10  17
ATOM     17  C   UNL     1      51.374   4.998  19.294  0.00  0.00    +0.000 C 
BRANCH  17  19
ATOM     18  C   UNL     1      53.084   3.577  18.011  0.00  0.00    +0.000 C 
ATOM     19  C   UNL     1      52.595   4.069  19.367  0.00  0.00    +0.000 C 
ENDBRANCH  17  19
ENDBRANCH  10  17
ENDBRANCH   8  10
ENDBRANCH   7   8
ENDBRANCH   1   7
BRANCH   4  20
ATOM     20  C   UNL     1      47.376   7.801  11.905  0.00  0.00    +0.000 C 
BRANCH  20  21
ATOM     21  N   UNL     1      46.722   6.547  11.628  0.00  0.00    +0.000 N 
ATOM     22  C   UNL     1      45.358   6.435  11.676  0.00  0.00    +0.000 C 
ATOM     23  O   UNL     1      44.633   7.401  11.898  0.00  0.00    +0.000 OA
ATOM     24  H   UNL     1      47.291   5.705  11.666  0.00  0.00    +0.000 HD
BRANCH  22  25
ATOM     25  C   UNL     1      44.795   5.106  11.392  0.00  0.00    +0.000 A 
ATOM     26  C   UNL     1      44.048   4.452  12.362  0.00  0.00    +0.000 A 
ATOM     27  S   UNL     1      43.430   2.946  11.853  0.00  0.00    +0.000 S 
ATOM     28  C   UNL     1      44.182   3.088  10.333  0.00  0.00    +0.000 A 
ATOM     29  N   UNL     1      44.069   2.104   9.403  0.00  0.00    +0.000 NA
ATOM     30  C   UNL     1      44.712   2.331   8.306  0.00  0.00    +0.000 A 
ATOM     31  N   UNL     1      45.454   3.458   8.056  0.00  0.00    +0.000 N 
ATOM     32  C   UNL     1      45.574   4.489   8.954  0.00  0.00    +0.000 A 
ATOM     33  O   UNL     1      46.208   5.504   8.683  0.00  0.00    +0.000 OA
ATOM     34  C   UNL     1      44.878   4.279  10.209  0.00  0.00    +0.000 A 
ATOM     35  H   UNL     1      45.928   3.578   7.172  0.00  0.00    +0.000 HD
ENDBRANCH  22  25
ENDBRANCH  20  21
ENDBRANCH   4  20
TORSDOF 9
ENDMDL
MODEL 6
REMARK VINA RESULT:    -6.316      3.171      4.981
REMARK INTER + INTRA:         -11.291
REMARK INTER:                  -9.845
REMARK INTRA:                  -1.446
REMARK UNBOUND:                -1.652
REMARK  Name = 
REMARK  10 active torsions:
REMARK  status: ('A' for Active; 'I' for Inactive)
REMARK    1  A    between atoms: C_1  and  C_2
REMARK    2  A    between atoms: C_2  and  C_3
REMARK    3  A    between atoms: C_3  and  C_4
REMARK    4  A    between atoms: C_4  and  N_5
REMARK    5  A    between atoms: C_4  and  C_27
REMARK    6  A    between atoms: N_5  and  C_6
REMARK    7  A    between atoms: C_6  and  C_7
REMARK    8  A    between atoms: C_10  and  C_11
REMARK    9  A    between atoms: C_11  and  N_12
REMARK   10  A    between atoms: C_13  and  C_15
REMARK                            x       y       z     vdW  Elec       q    Type
REMARK                         _______ _______ _______ _____ _____    ______ ____
ROOT
ATOM      1  C   UNL     1      50.379   5.406  19.046  0.00  0.00    +0.000 A 
ATOM      2  C   UNL     1      50.163   5.900  17.762  0.00  0.00    +0.000 A 
ATOM      3  C   UNL     1      49.150   5.344  16.980  0.00  0.00    +0.000 A 
ATOM      4  C   UNL     1      48.364   4.309  17.491  0.00  0.00    +0.000 A 
ATOM      5  C   UNL     1      48.657   3.871  18.777  0.00  0.00    +0.000 A 
ATOM      6  N   UNL     1      49.631   4.394  19.559  0.00  0.00    +0.000 NA
ENDROOT
BRANCH   1   7
ATOM      7  C   UNL     1      51.579   5.845  19.867  0.00  0.00    +0.000 C 
BRANCH   7   8
ATOM      8  N   UNL     1      52.771   4.980  19.771  0.00  0.00    +0.000 NA
ATOM      9  H   UNL     1      52.564   4.120  20.283  0.00  0.00    +0.000 HD
BRANCH   8  10
ATOM     10  C   UNL     1      53.075   4.601  18.368  0.00  0.00    +0.000 C 
BRANCH  10  11
ATOM     11  C   UNL     1      53.119   3.082  18.235  0.00  0.00    +0.000 A 
ATOM     12  C   UNL     1      54.247   2.367  18.663  0.00  0.00    +0.000 A 
ATOM     13  C   UNL     1      54.220   0.981  18.622  0.00  0.00    +0.000 A 
ATOM     14  N   UNL     1      53.168   0.262  18.179  0.00  0.00    +0.000 NA
ATOM     15  C   UNL     1      52.097   0.964  17.753  0.00  0.00    +0.000 A 
ATOM     16  C   UNL     1      52.026   2.349  17.762  0.00  0.00    +0.000 A 
ENDBRANCH  10  11
BRANCH  10  17
ATOM     17  C   UNL     1      54.401   5.224  17.851  0.00  0.00    +0.000 C 
BRANCH  17  19
ATOM     18  C   UNL     1      54.078   6.450  15.620  0.00  0.00    +0.000 C 
ATOM     19  C   UNL     1      54.278   6.572  17.124  0.00  0.00    +0.000 C 
ENDBRANCH  17  19
ENDBRANCH  10  17
ENDBRANCH   8  10
ENDBRANCH   7   8
ENDBRANCH   1   7
BRANCH   4  20
ATOM     20  C   UNL     1      47.285   3.653  16.680  0.00  0.00    +0.000 C 
BRANCH  20  21
ATOM     21  N   UNL     1      46.716   4.562  15.716  0.00  0.00    +0.000 N 
ATOM     22  C   UNL     1      46.746   4.281  14.377  0.00  0.00    +0.000 C 
ATOM     23  O   UNL     1      47.199   3.226  13.942  0.00  0.00    +0.000 OA
ATOM     24  H   UNL     1      46.545   5.517  16.020  0.00  0.00    +0.000 HD
BRANCH  22  25
ATOM     25  C   UNL     1      46.151   5.284  13.479  0.00  0.00    +0.000 A 
ATOM     26  C   UNL     1      46.868   6.426  13.150  0.00  0.00    +0.000 A 
ATOM     27  S   UNL     1      46.054   7.458  12.064  0.00  0.00    +0.000 S 
ATOM     28  C   UNL     1      44.690   6.443  12.033  0.00  0.00    +0.000 A 
ATOM     29  N   UNL     1      43.596   6.764  11.295  0.00  0.00    +0.000 NA
ATOM     30  C   UNL     1      42.624   5.918  11.385  0.00  0.00    +0.000 A 
ATOM     31  N   UNL     1      42.653   4.775  12.144  0.00  0.00    +0.000 N 
ATOM     32  C   UNL     1      43.746   4.396  12.883  0.00  0.00    +0.000 A 
ATOM     33  O   UNL     1      43.756   3.345  13.517  0.00  0.00    +0.000 OA
ATOM     34  C   UNL     1      44.863   5.320  12.825  0.00  0.00    +0.000 A 
ATOM     35  H   UNL     1      41.860   4.150  12.165  0.00  0.00    +0.000 HD
ENDBRANCH  22  25
ENDBRANCH  20  21
ENDBRANCH   4  20
TORSDOF 9
ENDMDL
MODEL 7
REMARK VINA RESULT:    -6.283      2.379      3.453
REMARK INTER + INTRA:         -11.241
REMARK INTER:                  -9.818
REMARK INTRA:                  -1.423
REMARK UNBOUND:                -1.652
REMARK  Name = 
REMARK  10 active torsions:
REMARK  status: ('A' for Active; 'I' for Inactive)
REMARK    1  A    between atoms: C_1  and  C_2
REMARK    2  A    between atoms: C_2  and  C_3
REMARK    3  A    between atoms: C_3  and  C_4
REMARK    4  A    between atoms: C_4  and  N_5
REMARK    5  A    between atoms: C_4  and  C_27
REMARK    6  A    between atoms: N_5  and  C_6
REMARK    7  A    between atoms: C_6  and  C_7
REMARK    8  A    between atoms: C_10  and  C_11
REMARK    9  A    between atoms: C_11  and  N_12
REMARK   10  A    between atoms: C_13  and  C_15
REMARK                            x       y       z     vdW  Elec       q    Type
REMARK                         _______ _______ _______ _____ _____    ______ ____
ROOT
ATOM      1  C   UNL     1      49.948   6.816  16.927  0.00  0.00    +0.000 A 
ATOM      2  C   UNL     1      49.313   7.999  17.297  0.00  0.00    +0.000 A 
ATOM      3  C   UNL     1      48.542   8.680  16.355  0.00  0.00    +0.000 A 
ATOM      4  C   UNL     1      48.408   8.169  15.062  0.00  0.00    +0.000 A 
ATOM      5  C   UNL     1      49.084   6.989  14.779  0.00  0.00    +0.000 A 
ATOM      6  N   UNL     1      49.837   6.305  15.673  0.00  0.00    +0.000 NA
ENDROOT
BRANCH   1   7
ATOM      7  C   UNL     1      50.943   6.134  17.851  0.00  0.00    +0.000 C 
BRANCH   7   8
ATOM      8  N   UNL     1      51.544   4.888  17.336  0.00  0.00    +0.000 NA
ATOM      9  H   UNL     1      52.548   4.939  17.516  0.00  0.00    +0.000 HD
BRANCH   8  10
ATOM     10  C   UNL     1      51.026   3.686  18.036  0.00  0.00    +0.000 C 
BRANCH  10  11
ATOM     11  C   UNL     1      52.125   2.635  18.154  0.00  0.00    +0.000 A 
ATOM     12  C   UNL     1      53.283   2.904  18.897  0.00  0.00    +0.000 A 
ATOM     13  C   UNL     1      54.221   1.896  19.070  0.00  0.00    +0.000 A 
ATOM     14  N   UNL     1      54.097   0.657  18.552  0.00  0.00    +0.000 NA
ATOM     15  C   UNL     1      52.985   0.418  17.824  0.00  0.00    +0.000 A 
ATOM     16  C   UNL     1      51.989   1.357  17.602  0.00  0.00    +0.000 A 
ENDBRANCH  10  11
BRANCH  10  17
ATOM     17  C   UNL     1      49.775   3.079  17.344  0.00  0.00    +0.000 C 
BRANCH  17  19
ATOM     18  C   UNL     1      47.334   3.809  17.036  0.00  0.00    +0.000 C 
ATOM     19  C   UNL     1      48.422   3.376  18.009  0.00  0.00    +0.000 C 
ENDBRANCH  17  19
ENDBRANCH  10  17
ENDBRANCH   8  10
ENDBRANCH   7   8
ENDBRANCH   1   7
BRANCH   4  20
ATOM     20  C   UNL     1      47.618   8.879  14.002  0.00  0.00    +0.000 C 
BRANCH  20  21
ATOM     21  N   UNL     1      46.492   8.093  13.561  0.00  0.00    +0.000 N 
ATOM     22  C   UNL     1      46.561   7.336  12.423  0.00  0.00    +0.000 C 
ATOM     23  O   UNL     1      47.593   7.245  11.762  0.00  0.00    +0.000 OA
ATOM     24  H   UNL     1      45.581   8.323  13.951  0.00  0.00    +0.000 HD
BRANCH  22  25
ATOM     25  C   UNL     1      45.351   6.585  12.055  0.00  0.00    +0.000 A 
ATOM     26  C   UNL     1      44.282   7.246  11.465  0.00  0.00    +0.000 A 
ATOM     27  S   UNL     1      42.980   6.221  11.060  0.00  0.00    +0.000 S 
ATOM     28  C   UNL     1      43.775   4.863  11.707  0.00  0.00    +0.000 A 
ATOM     29  N   UNL     1      43.185   3.639  11.701  0.00  0.00    +0.000 NA
ATOM     30  C   UNL     1      43.890   2.705  12.248  0.00  0.00    +0.000 A 
ATOM     31  N   UNL     1      45.135   2.886  12.796  0.00  0.00    +0.000 N 
ATOM     32  C   UNL     1      45.781   4.098  12.800  0.00  0.00    +0.000 A 
ATOM     33  O   UNL     1      46.912   4.217  13.259  0.00  0.00    +0.000 OA
ATOM     34  C   UNL     1      45.026   5.185  12.206  0.00  0.00    +0.000 A 
ATOM     35  H   UNL     1      45.637   2.110  13.202  0.00  0.00    +0.000 HD
ENDBRANCH  22  25
ENDBRANCH  20  21
ENDBRANCH   4  20
TORSDOF 9
ENDMDL
MODEL 8
REMARK VINA RESULT:    -6.209      1.822      2.494
REMARK INTER + INTRA:         -11.128
REMARK INTER:                  -9.468
REMARK INTRA:                  -1.659
REMARK UNBOUND:                -1.652
REMARK  Name = 
REMARK  10 active torsions:
REMARK  status: ('A' for Active; 'I' for Inactive)
REMARK    1  A    between atoms: C_1  and  C_2
REMARK    2  A    between atoms: C_2  and  C_3
REMARK    3  A    between atoms: C_3  and  C_4
REMARK    4  A    between atoms: C_4  and  N_5
REMARK    5  A    between atoms: C_4  and  C_27
REMARK    6  A    between atoms: N_5  and  C_6
REMARK    7  A    between atoms: C_6  and  C_7
REMARK    8  A    between atoms: C_10  and  C_11
REMARK    9  A    between atoms: C_11  and  N_12
REMARK   10  A    between atoms: C_13  and  C_15
REMARK                            x       y       z     vdW  Elec       q    Type
REMARK                         _______ _______ _______ _____ _____    ______ ____
ROOT
ATOM      1  C   UNL     1      50.256   7.260  15.596  0.00  0.00    +0.000 A 
ATOM      2  C   UNL     1      49.026   6.654  15.354  0.00  0.00    +0.000 A 
ATOM      3  C   UNL     1      48.363   6.917  14.154  0.00  0.00    +0.000 A 
ATOM      4  C   UNL     1      48.938   7.773  13.213  0.00  0.00    +0.000 A 
ATOM      5  C   UNL     1      50.162   8.341  13.543  0.00  0.00    +0.000 A 
ATOM      6  N   UNL     1      50.829   8.102  14.697  0.00  0.00    +0.000 NA
ENDROOT
BRANCH   1   7
ATOM      7  C   UNL     1      50.931   7.156  16.953  0.00  0.00    +0.000 C 
BRANCH   7   8
ATOM      8  N   UNL     1      51.371   5.803  17.347  0.00  0.00    +0.000 NA
ATOM      9  H   UNL     1      52.352   5.872  17.625  0.00  0.00    +0.000 HD
BRANCH   8  10
ATOM     10  C   UNL     1      50.613   5.287  18.515  0.00  0.00    +0.000 C 
BRANCH  10  11
ATOM     11  C   UNL     1      49.402   4.490  18.042  0.00  0.00    +0.000 A 
ATOM     12  C   UNL     1      48.106   4.982  18.251  0.00  0.00    +0.000 A 
ATOM     13  C   UNL     1      47.029   4.285  17.723  0.00  0.00    +0.000 A 
ATOM     14  N   UNL     1      47.145   3.140  17.021  0.00  0.00    +0.000 NA
ATOM     15  C   UNL     1      48.398   2.668  16.844  0.00  0.00    +0.000 A 
ATOM     16  C   UNL     1      49.536   3.296  17.326  0.00  0.00    +0.000 A 
ENDBRANCH  10  11
BRANCH  10  17
ATOM     17  C   UNL     1      50.168   6.413  19.488  0.00  0.00    +0.000 C 
BRANCH  17  19
ATOM     18  C   UNL     1      52.029   7.756  20.636  0.00  0.00    +0.000 C 
ATOM     19  C   UNL     1      51.035   6.608  20.741  0.00  0.00    +0.000 C 
ENDBRANCH  17  19
ENDBRANCH  10  17
ENDBRANCH   8  10
ENDBRANCH   7   8
ENDBRANCH   1   7
BRANCH   4  20
ATOM     20  C   UNL     1      48.252   8.115  11.922  0.00  0.00    +0.000 C 
BRANCH  20  21
ATOM     21  N   UNL     1      47.566   6.976  11.366  0.00  0.00    +0.000 N 
ATOM     22  C   UNL     1      46.199   6.926  11.321  0.00  0.00    +0.000 C 
ATOM     23  O   UNL     1      45.500   7.865  11.694  0.00  0.00    +0.000 OA
ATOM     24  H   UNL     1      48.098   6.114  11.263  0.00  0.00    +0.000 HD
BRANCH  22  25
ATOM     25  C   UNL     1      45.600   5.711  10.747  0.00  0.00    +0.000 A 
ATOM     26  C   UNL     1      45.746   5.445   9.392  0.00  0.00    +0.000 A 
ATOM     27  S   UNL     1      45.034   3.975   8.901  0.00  0.00    +0.000 S 
ATOM     28  C   UNL     1      44.459   3.664  10.471  0.00  0.00    +0.000 A 
ATOM     29  N   UNL     1      43.731   2.549  10.741  0.00  0.00    +0.000 NA
ATOM     30  C   UNL     1      43.337   2.453  11.968  0.00  0.00    +0.000 A 
ATOM     31  N   UNL     1      43.611   3.372  12.949  0.00  0.00    +0.000 N 
ATOM     32  C   UNL     1      44.365   4.498  12.729  0.00  0.00    +0.000 A 
ATOM     33  O   UNL     1      44.629   5.278  13.639  0.00  0.00    +0.000 OA
ATOM     34  C   UNL     1      44.824   4.659  11.363  0.00  0.00    +0.000 A 
ATOM     35  H   UNL     1      43.279   3.234  13.893  0.00  0.00    +0.000 HD
ENDBRANCH  22  25
ENDBRANCH  20  21
ENDBRANCH   4  20
TORSDOF 9
ENDMDL
MODEL 9
REMARK VINA RESULT:    -5.957      2.830      4.949
REMARK INTER + INTRA:         -10.744
REMARK INTER:                  -8.929
REMARK INTRA:                  -1.815
REMARK UNBOUND:                -1.652
REMARK  Name = 
REMARK  10 active torsions:
REMARK  status: ('A' for Active; 'I' for Inactive)
REMARK    1  A    between atoms: C_1  and  C_2
REMARK    2  A    between atoms: C_2  and  C_3
REMARK    3  A    between atoms: C_3  and  C_4
REMARK    4  A    between atoms: C_4  and  N_5
REMARK    5  A    between atoms: C_4  and  C_27
REMARK    6  A    between atoms: N_5  and  C_6
REMARK    7  A    between atoms: C_6  and  C_7
REMARK    8  A    between atoms: C_10  and  C_11
REMARK    9  A    between atoms: C_11  and  N_12
REMARK   10  A    between atoms: C_13  and  C_15
REMARK                            x       y       z     vdW  Elec       q    Type
REMARK                         _______ _______ _______ _____ _____    ______ ____
ROOT
ATOM      1  C   UNL     1      49.756   5.363  19.483  0.00  0.00    +0.000 A 
ATOM      2  C   UNL     1      48.406   5.695  19.398  0.00  0.00    +0.000 A 
ATOM      3  C   UNL     1      47.612   5.069  18.437  0.00  0.00    +0.000 A 
ATOM      4  C   UNL     1      48.172   4.119  17.581  0.00  0.00    +0.000 A 
ATOM      5  C   UNL     1      49.528   3.858  17.730  0.00  0.00    +0.000 A 
ATOM      6  N   UNL     1      50.322   4.447  18.655  0.00  0.00    +0.000 NA
ENDROOT
BRANCH   1   7
ATOM      7  C   UNL     1      50.703   6.141  20.381  0.00  0.00    +0.000 C 
BRANCH   7   8
ATOM      8  N   UNL     1      50.742   7.600  20.158  0.00  0.00    +0.000 NA
ATOM      9  H   UNL     1      51.120   8.027  21.006  0.00  0.00    +0.000 HD
BRANCH   8  10
ATOM     10  C   UNL     1      51.641   7.969  19.036  0.00  0.00    +0.000 C 
BRANCH  10  11
ATOM     11  C   UNL     1      50.867   7.961  17.721  0.00  0.00    +0.000 A 
ATOM     12  C   UNL     1      51.343   7.229  16.625  0.00  0.00    +0.000 A 
ATOM     13  C   UNL     1      50.570   7.158  15.475  0.00  0.00    +0.000 A 
ATOM     14  N   UNL     1      49.375   7.768  15.335  0.00  0.00    +0.000 NA
ATOM     15  C   UNL     1      48.938   8.485  16.392  0.00  0.00    +0.000 A 
ATOM     16  C   UNL     1      49.635   8.609  17.584  0.00  0.00    +0.000 A 
ENDBRANCH  10  11
BRANCH  10  17
ATOM     17  C   UNL     1      52.885   7.045  18.932  0.00  0.00    +0.000 C 
BRANCH  17  19
ATOM     18  C   UNL     1      54.274   7.896  20.915  0.00  0.00    +0.000 C 
ATOM     19  C   UNL     1      54.216   7.642  19.414  0.00  0.00    +0.000 C 
ENDBRANCH  17  19
ENDBRANCH  10  17
ENDBRANCH   8  10
ENDBRANCH   7   8
ENDBRANCH   1   7
BRANCH   4  20
ATOM     20  C   UNL     1      47.369   3.441  16.508  0.00  0.00    +0.000 C 
BRANCH  20  21
ATOM     21  N   UNL     1      46.751   4.395  15.623  0.00  0.00    +0.000 N 
ATOM     22  C   UNL     1      46.757   4.208  14.266  0.00  0.00    +0.000 C 
ATOM     23  O   UNL     1      47.232   3.200  13.750  0.00  0.00    +0.000 OA
ATOM     24  H   UNL     1      46.558   5.322  15.996  0.00  0.00    +0.000 HD
BRANCH  22  25
ATOM     25  C   UNL     1      46.111   5.251  13.454  0.00  0.00    +0.000 A 
ATOM     26  C   UNL     1      46.759   6.459  13.241  0.00  0.00    +0.000 A 
ATOM     27  S   UNL     1      45.894   7.536  12.240  0.00  0.00    +0.000 S 
ATOM     28  C   UNL     1      44.596   6.446  12.095  0.00  0.00    +0.000 A 
ATOM     29  N   UNL     1      43.491   6.767  11.372  0.00  0.00    +0.000 NA
ATOM     30  C   UNL     1      42.573   5.859  11.370  0.00  0.00    +0.000 A 
ATOM     31  N   UNL     1      42.664   4.655  12.023  0.00  0.00    +0.000 N 
ATOM     32  C   UNL     1      43.771   4.277  12.742  0.00  0.00    +0.000 A 
ATOM     33  O   UNL     1      43.840   3.175  13.278  0.00  0.00    +0.000 OA
ATOM     34  C   UNL     1      44.829   5.268  12.786  0.00  0.00    +0.000 A 
ATOM     35  H   UNL     1      41.912   3.983  11.975  0.00  0.00    +0.000 HD
ENDBRANCH  22  25
ENDBRANCH  20  21
ENDBRANCH   4  20
TORSDOF 9
ENDMDL
