MODEL 1
REMARK VINA RESULT:    -7.432      0.000      0.000
REMARK INTER + INTRA:          -9.048
REMARK INTER:                  -8.736
REMARK INTRA:                  -0.312
REMARK UNBOUND:                -0.312
REMARK  Name = 
REMARK  4 active torsions:
REMARK  status: ('A' for Active; 'I' for Inactive)
REMARK    1  A    between atoms: C_1  and  C_2
REMARK    2  A    between atoms: C_7  and  C_8
REMARK    3  A    between atoms: N_13  and  C_14
REMARK    4  A    between atoms: C_14  and  C_15
REMARK                            x       y       z     vdW  Elec       q    Type
REMARK                         _______ _______ _______ _____ _____    ______ ____
ROOT
ATOM      1  C   UNL     1      43.362   2.336  11.805  0.00  0.00    +0.000 C 
ATOM      2  C   UNL     1      44.349   3.417  12.050  0.00  0.00    +0.000 A 
ATOM      3  N   UNL     1      44.877   3.644  13.238  0.00  0.00    +0.000 NA
ATOM      4  C   UNL     1      45.734   4.689  13.071  0.00  0.00    +0.000 A 
ATOM      5  C   UNL     1      46.552   5.328  14.005  0.00  0.00    +0.000 A 
ATOM      6  C   UNL     1      47.341   6.378  13.543  0.00  0.00    +0.000 A 
ATOM      7  C   UNL     1      47.270   6.739  12.196  0.00  0.00    +0.000 A 
ATOM      8  N   UNL     1      46.470   6.155  11.239  0.00  0.00    +0.000 NA
ATOM      9  C   UNL     1      45.740   5.137  11.755  0.00  0.00    +0.000 A 
ATOM     10  N   UNL     1      44.838   4.314  11.111  0.00  0.00    +0.000 N 
ENDROOT
BRANCH   7  11
ATOM     11  C   UNL     1      48.157   7.865  11.745  0.00  0.00    +0.000 C 
ATOM     12  N   UNL     1      47.682   9.130  11.949  0.00  0.00    +0.000 N 
ATOM     13  O   UNL     1      49.247   7.673  11.222  0.00  0.00    +0.000 OA
ATOM     14  H   UNL     1      46.790   9.276  12.399  0.00  0.00    +0.000 HD
ATOM     15  H   UNL     1      48.255   9.912  11.664  0.00  0.00    +0.000 HD
ENDBRANCH   7  11
BRANCH  10  16
ATOM     16  C   UNL     1      44.435   4.440   9.717  0.00  0.00    +0.000 C 
BRANCH  16  17
ATOM     17  C   UNL     1      45.253   3.553   8.819  0.00  0.00    +0.000 A 
ATOM     18  C   UNL     1      46.052   4.079   7.799  0.00  0.00    +0.000 A 
ATOM     19  C   UNL     1      46.897   3.239   7.078  0.00  0.00    +0.000 A 
ATOM     20  C   UNL     1      46.909   1.892   7.395  0.00  0.00    +0.000 A 
ATOM     21  N   UNL     1      46.107   1.336   8.325  0.00  0.00    +0.000 NA
ATOM     22  C   UNL     1      45.296   2.175   9.006  0.00  0.00    +0.000 A 
ENDBRANCH  16  17
ENDBRANCH  10  16
TORSDOF 3
ENDMDL
MODEL 2
REMARK VINA RESULT:    -7.292      2.191      5.257
REMARK INTER + INTRA:          -8.883
REMARK INTER:                  -8.431
REMARK INTRA:                  -0.452
REMARK UNBOUND:                -0.312
REMARK  Name = 
REMARK  4 active torsions:
REMARK  status: ('A' for Active; 'I' for Inactive)
REMARK    1  A    between atoms: C_1  and  C_2
REMARK    2  A    between atoms: C_7  and  C_8
REMARK    3  A    between atoms: N_13  and  C_14
REMARK    4  A    between atoms: C_14  and  C_15
REMARK                            x       y       z     vdW  Elec       q    Type
REMARK                         _______ _______ _______ _____ _____    ______ ____
ROOT
ATOM      1  C   UNL     1      42.866   5.102  12.892  0.00  0.00    +0.000 C 
ATOM      2  C   UNL     1      43.565   4.506  11.727  0.00  0.00    +0.000 A 
ATOM      3  N   UNL     1      43.367   3.261  11.338  0.00  0.00    +0.000 NA
ATOM      4  C   UNL     1      44.161   3.081  10.247  0.00  0.00    +0.000 A 
ATOM      5  C   UNL     1      44.332   1.949   9.447  0.00  0.00    +0.000 A 
ATOM      6  C   UNL     1      45.216   2.057   8.377  0.00  0.00    +0.000 A 
ATOM      7  C   UNL     1      45.882   3.266   8.166  0.00  0.00    +0.000 A 
ATOM      8  N   UNL     1      45.765   4.404   8.933  0.00  0.00    +0.000 NA
ATOM      9  C   UNL     1      44.882   4.231   9.946  0.00  0.00    +0.000 A 
ATOM     10  N   UNL     1      44.494   5.137  10.913  0.00  0.00    +0.000 N 
ENDROOT
BRANCH   7  11
ATOM     11  C   UNL     1      46.810   3.336   6.985  0.00  0.00    +0.000 C 
ATOM     12  N   UNL     1      47.779   2.374   6.918  0.00  0.00    +0.000 N 
ATOM     13  O   UNL     1      46.714   4.201   6.125  0.00  0.00    +0.000 OA
ATOM     14  H   UNL     1      47.837   1.654   7.624  0.00  0.00    +0.000 HD
ATOM     15  H   UNL     1      48.417   2.386   6.135  0.00  0.00    +0.000 HD
ENDBRANCH   7  11
BRANCH  10  16
ATOM     16  C   UNL     1      45.038   6.480  11.069  0.00  0.00    +0.000 C 
BRANCH  16  17
ATOM     17  C   UNL     1      46.378   6.461  11.750  0.00  0.00    +0.000 A 
ATOM     18  C   UNL     1      47.395   7.351  11.391  0.00  0.00    +0.000 A 
ATOM     19  C   UNL     1      48.572   7.394  12.133  0.00  0.00    +0.000 A 
ATOM     20  C   UNL     1      48.701   6.533  13.210  0.00  0.00    +0.000 A 
ATOM     21  N   UNL     1      47.772   5.616  13.547  0.00  0.00    +0.000 NA
ATOM     22  C   UNL     1      46.642   5.596  12.807  0.00  0.00    +0.000 A 
ENDBRANCH  16  17
ENDBRANCH  10  16
TORSDOF 3
ENDMDL
MODEL 3
REMARK VINA RESULT:    -6.969      2.661      2.998
REMARK INTER + INTRA:          -8.503
REMARK INTER:                  -7.971
REMARK INTRA:                  -0.533
REMARK UNBOUND:                -0.312
REMARK  Name = 
REMARK  4 active torsions:
REMARK  status: ('A' for Active; 'I' for Inactive)
REMARK    1  A    between atoms: C_1  and  C_2
REMARK    2  A    between atoms: C_7  and  C_8
REMARK    3  A    between atoms: N_13  and  C_14
REMARK    4  A    between atoms: C_14  and  C_15
REMARK                            x       y       z     vdW  Elec       q    Type
REMARK                         _______ _______ _______ _____ _____    ______ ____
ROOT
ATOM      1  C   UNL     1      46.008   3.301  12.920  0.00  0.00    +0.000 C 
ATOM      2  C   UNL     1      45.752   4.740  12.664  0.00  0.00    +0.000 A 
ATOM      3  N   UNL     1      46.281   5.699  13.400  0.00  0.00    +0.000 NA
ATOM      4  C   UNL     1      45.835   6.868  12.864  0.00  0.00    +0.000 A 
ATOM      5  C   UNL     1      46.094   8.184  13.256  0.00  0.00    +0.000 A 
ATOM      6  C   UNL     1      45.501   9.196  12.507  0.00  0.00    +0.000 A 
ATOM      7  C   UNL     1      44.684   8.853  11.428  0.00  0.00    +0.000 A 
ATOM      8  N   UNL     1      44.381   7.576  11.011  0.00  0.00    +0.000 NA
ATOM      9  C   UNL     1      45.000   6.644  11.776  0.00  0.00    +0.000 A 
ATOM     10  N   UNL     1      44.949   5.269  11.664  0.00  0.00    +0.000 N 
ENDROOT
BRANCH   7  11
ATOM     11  C   UNL     1      44.084   9.984  10.641  0.00  0.00    +0.000 C 
ATOM     12  N   UNL     1      42.831   9.773  10.135  0.00  0.00    +0.000 N 
ATOM     13  O   UNL     1      44.673  11.040  10.455  0.00  0.00    +0.000 OA
ATOM     14  H   UNL     1      42.347   8.904  10.311  0.00  0.00    +0.000 HD
ATOM     15  H   UNL     1      42.394  10.514   9.606  0.00  0.00    +0.000 HD
ENDBRANCH   7  11
BRANCH  10  16
ATOM     16  C   UNL     1      44.131   4.536  10.708  0.00  0.00    +0.000 C 
BRANCH  16  17
ATOM     17  C   UNL     1      44.964   3.920   9.618  0.00  0.00    +0.000 A 
ATOM     18  C   UNL     1      45.056   2.534   9.461  0.00  0.00    +0.000 A 
ATOM     19  C   UNL     1      45.727   2.005   8.360  0.00  0.00    +0.000 A 
ATOM     20  C   UNL     1      46.296   2.883   7.454  0.00  0.00    +0.000 A 
ATOM     21  N   UNL     1      46.285   4.223   7.606  0.00  0.00    +0.000 NA
ATOM     22  C   UNL     1      45.630   4.707   8.684  0.00  0.00    +0.000 A 
ENDBRANCH  16  17
ENDBRANCH  10  16
TORSDOF 3
ENDMDL
MODEL 4
REMARK VINA RESULT:    -6.692      2.385      3.942
REMARK INTER + INTRA:          -8.177
REMARK INTER:                  -7.772
REMARK INTRA:                  -0.406
REMARK UNBOUND:                -0.312
REMARK  Name = 
REMARK  4 active torsions:
REMARK  status: ('A' for Active; 'I' for Inactive)
REMARK    1  A    between atoms: C_1  and  C_2
REMARK    2  A    between atoms: C_7  and  C_8
REMARK    3  A    between atoms: N_13  and  C_14
REMARK    4  A    between atoms: C_14  and  C_15
REMARK                            x       y       z     vdW  Elec       q    Type
REMARK                         _______ _______ _______ _____ _____    ______ ____
ROOT
ATOM      1  C   UNL     1      44.122   9.175  10.885  0.00  0.00    +0.000 C 
ATOM      2  C   UNL     1      44.946   8.274  11.729  0.00  0.00    +0.000 A 
ATOM      3  N   UNL     1      46.114   8.634  12.224  0.00  0.00    +0.000 NA
ATOM      4  C   UNL     1      46.558   7.566  12.943  0.00  0.00    +0.000 A 
ATOM      5  C   UNL     1      47.738   7.413  13.675  0.00  0.00    +0.000 A 
ATOM      6  C   UNL     1      47.927   6.197  14.325  0.00  0.00    +0.000 A 
ATOM      7  C   UNL     1      46.951   5.206  14.209  0.00  0.00    +0.000 A 
ATOM      8  N   UNL     1      45.781   5.297  13.488  0.00  0.00    +0.000 NA
ATOM      9  C   UNL     1      45.658   6.508  12.892  0.00  0.00    +0.000 A 
ATOM     10  N   UNL     1      44.628   6.976  12.100  0.00  0.00    +0.000 N 
ENDROOT
BRANCH   7  11
ATOM     11  C   UNL     1      47.194   3.919  14.947  0.00  0.00    +0.000 C 
ATOM     12  N   UNL     1      47.052   3.965  16.306  0.00  0.00    +0.000 N 
ATOM     13  O   UNL     1      47.502   2.882  14.375  0.00  0.00    +0.000 OA
ATOM     14  H   UNL     1      46.778   4.822  16.765  0.00  0.00    +0.000 HD
ATOM     15  H   UNL     1      47.201   3.117  16.835  0.00  0.00    +0.000 HD
ENDBRANCH   7  11
BRANCH  10  16
ATOM     16  C   UNL     1      43.471   6.196  11.684  0.00  0.00    +0.000 C 
BRANCH  16  17
ATOM     17  C   UNL     1      43.869   5.014  10.844  0.00  0.00    +0.000 A 
ATOM     18  C   UNL     1      44.780   5.137   9.790  0.00  0.00    +0.000 A 
ATOM     19  C   UNL     1      45.227   3.999   9.124  0.00  0.00    +0.000 A 
ATOM     20  C   UNL     1      44.737   2.769   9.526  0.00  0.00    +0.000 A 
ATOM     21  N   UNL     1      43.809   2.614  10.492  0.00  0.00    +0.000 NA
ATOM     22  C   UNL     1      43.393   3.736  11.119  0.00  0.00    +0.000 A 
ENDBRANCH  16  17
ENDBRANCH  10  16
TORSDOF 3
ENDMDL
MODEL 5
REMARK VINA RESULT:    -6.621      3.680      6.914
REMARK INTER + INTRA:          -8.094
REMARK INTER:                  -7.602
REMARK INTRA:                  -0.492
REMARK UNBOUND:                -0.312
REMARK  Name = 
REMARK  4 active torsions:
REMARK  status: ('A' for Active; 'I' for Inactive)
REMARK    1  A    between atoms: C_1  and  C_2
REMARK    2  A    between atoms: C_7  and  C_8
REMARK    3  A    between atoms: N_13  and  C_14
REMARK    4  A    between atoms: C_14  and  C_15
REMARK                            x       y       z     vdW  Elec       q    Type
REMARK                         _______ _______ _______ _____ _____    ______ ____
ROOT
ATOM      1  C   UNL     1      49.151   7.199  15.977  0.00  0.00    +0.000 C 
ATOM      2  C   UNL     1      48.232   6.550  15.010  0.00  0.00    +0.000 A 
ATOM      3  N   UNL     1      48.020   7.027  13.798  0.00  0.00    +0.000 NA
ATOM      4  C   UNL     1      47.141   6.170  13.209  0.00  0.00    +0.000 A 
ATOM      5  C   UNL     1      46.587   6.205  11.928  0.00  0.00    +0.000 A 
ATOM      6  C   UNL     1      45.710   5.178  11.589  0.00  0.00    +0.000 A 
ATOM      7  C   UNL     1      45.427   4.188  12.532  0.00  0.00    +0.000 A 
ATOM      8  N   UNL     1      45.930   4.116  13.812  0.00  0.00    +0.000 NA
ATOM      9  C   UNL     1      46.782   5.138  14.069  0.00  0.00    +0.000 A 
ATOM     10  N   UNL     1      47.486   5.400  15.227  0.00  0.00    +0.000 N 
ENDROOT
BRANCH   7  11
ATOM     11  C   UNL     1      44.490   3.091  12.109  0.00  0.00    +0.000 C 
ATOM     12  N   UNL     1      44.695   2.566  10.864  0.00  0.00    +0.000 N 
ATOM     13  O   UNL     1      43.590   2.682  12.830  0.00  0.00    +0.000 OA
ATOM     14  H   UNL     1      45.453   2.899  10.285  0.00  0.00    +0.000 HD
ATOM     15  H   UNL     1      44.088   1.822  10.548  0.00  0.00    +0.000 HD
ENDBRANCH   7  11
BRANCH  10  16
ATOM     16  C   UNL     1      47.383   4.634  16.462  0.00  0.00    +0.000 C 
BRANCH  16  17
ATOM     17  C   UNL     1      48.571   3.733  16.658  0.00  0.00    +0.000 A 
ATOM     18  C   UNL     1      49.635   4.094  17.490  0.00  0.00    +0.000 A 
ATOM     19  C   UNL     1      50.650   3.179  17.753  0.00  0.00    +0.000 A 
ATOM     20  C   UNL     1      50.575   1.928  17.165  0.00  0.00    +0.000 A 
ATOM     21  N   UNL     1      49.601   1.565  16.306  0.00  0.00    +0.000 NA
ATOM     22  C   UNL     1      48.631   2.475  16.068  0.00  0.00    +0.000 A 
ENDBRANCH  16  17
ENDBRANCH  10  16
TORSDOF 3
ENDMDL
MODEL 6
REMARK VINA RESULT:    -6.366      3.051      6.548
REMARK INTER + INTRA:          -7.795
REMARK INTER:                  -7.236
REMARK INTRA:                  -0.559
REMARK UNBOUND:                -0.312
REMARK  Name = 
REMARK  4 active torsions:
REMARK  status: ('A' for Active; 'I' for Inactive)
REMARK    1  A    between atoms: C_1  and  C_2
REMARK    2  A    between atoms: C_7  and  C_8
REMARK    3  A    between atoms: N_13  and  C_14
REMARK    4  A    between atoms: C_14  and  C_15
REMARK                            x       y       z     vdW  Elec       q    Type
REMARK                         _______ _______ _______ _____ _____    ______ ____
ROOT
ATOM      1  C   UNL     1      47.358   8.933  13.149  0.00  0.00    +0.000 C 
ATOM      2  C   UNL     1      46.441   7.862  12.686  0.00  0.00    +0.000 A 
ATOM      3  N   UNL     1      45.223   8.110  12.243  0.00  0.00    +0.000 NA
ATOM      4  C   UNL     1      44.698   6.901  11.903  0.00  0.00    +0.000 A 
ATOM      5  C   UNL     1      43.441   6.591  11.378  0.00  0.00    +0.000 A 
ATOM      6  C   UNL     1      43.177   5.250  11.116  0.00  0.00    +0.000 A 
ATOM      7  C   UNL     1      44.158   4.298  11.394  0.00  0.00    +0.000 A 
ATOM      8  N   UNL     1      45.404   4.545  11.926  0.00  0.00    +0.000 NA
ATOM      9  C   UNL     1      45.597   5.868  12.145  0.00  0.00    +0.000 A 
ATOM     10  N   UNL     1      46.712   6.502  12.657  0.00  0.00    +0.000 N 
ENDROOT
BRANCH   7  11
ATOM     11  C   UNL     1      43.830   2.866  11.073  0.00  0.00    +0.000 C 
ATOM     12  N   UNL     1      44.549   2.291  10.063  0.00  0.00    +0.000 N 
ATOM     13  O   UNL     1      42.968   2.240  11.675  0.00  0.00    +0.000 OA
ATOM     14  H   UNL     1      45.271   2.812   9.586  0.00  0.00    +0.000 HD
ATOM     15  H   UNL     1      44.360   1.327   9.824  0.00  0.00    +0.000 HD
ENDBRANCH   7  11
BRANCH  10  16
ATOM     16  C   UNL     1      47.909   5.828  13.142  0.00  0.00    +0.000 C 
BRANCH  16  17
ATOM     17  C   UNL     1      47.834   5.556  14.619  0.00  0.00    +0.000 A 
ATOM     18  C   UNL     1      47.131   4.459  15.127  0.00  0.00    +0.000 A 
ATOM     19  C   UNL     1      47.197   4.164  16.487  0.00  0.00    +0.000 A 
ATOM     20  C   UNL     1      47.959   4.984  17.300  0.00  0.00    +0.000 A 
ATOM     21  N   UNL     1      48.597   6.088  16.860  0.00  0.00    +0.000 NA
ATOM     22  C   UNL     1      48.512   6.350  15.538  0.00  0.00    +0.000 A 
ENDBRANCH  16  17
ENDBRANCH  10  16
TORSDOF 3
ENDMDL
MODEL 7
REMARK VINA RESULT:    -6.158      3.377      5.539
REMARK INTER + INTRA:          -7.550
REMARK INTER:                  -7.035
REMARK INTRA:                  -0.515
REMARK UNBOUND:                -0.312
REMARK  Name = 
REMARK  4 active torsions:
REMARK  status: ('A' for Active; 'I' for Inactive)
REMARK    1  A    between atoms: C_1  and  C_2
REMARK    2  A    between atoms: C_7  and  C_8
REMARK    3  A    between atoms: N_13  and  C_14
REMARK    4  A    between atoms: C_14  and  C_15
REMARK                            x       y       z     vdW  Elec       q    Type
REMARK                         _______ _______ _______ _____ _____    ______ ____
ROOT
ATOM      1  C   UNL     1      47.518   7.047  11.593  0.00  0.00    +0.000 C 
ATOM      2  C   UNL     1      47.666   6.463  12.949  0.00  0.00    +0.000 A 
ATOM      3  N   UNL     1      48.261   7.101  13.938  0.00  0.00    +0.000 NA
ATOM      4  C   UNL     1      48.194   6.267  15.012  0.00  0.00    +0.000 A 
ATOM      5  C   UNL     1      48.667   6.452  16.314  0.00  0.00    +0.000 A 
ATOM      6  C   UNL     1      48.447   5.418  17.220  0.00  0.00    +0.000 A 
ATOM      7  C   UNL     1      47.787   4.266  16.789  0.00  0.00    +0.000 A 
ATOM      8  N   UNL     1      47.317   4.026  15.517  0.00  0.00    +0.000 NA
ATOM      9  C   UNL     1      47.554   5.075  14.693  0.00  0.00    +0.000 A 
ATOM     10  N   UNL     1      47.227   5.213  13.359  0.00  0.00    +0.000 N 
ENDROOT
BRANCH   7  11
ATOM     11  C   UNL     1      47.557   3.188  17.811  0.00  0.00    +0.000 C 
ATOM     12  N   UNL     1      48.414   3.172  18.877  0.00  0.00    +0.000 N 
ATOM     13  O   UNL     1      46.657   2.365  17.708  0.00  0.00    +0.000 OA
ATOM     14  H   UNL     1      49.141   3.868  18.961  0.00  0.00    +0.000 HD
ATOM     15  H   UNL     1      48.286   2.465  19.588  0.00  0.00    +0.000 HD
ENDBRANCH   7  11
BRANCH  10  16
ATOM     16  C   UNL     1      46.603   4.182  12.539  0.00  0.00    +0.000 C 
BRANCH  16  17
ATOM     17  C   UNL     1      45.156   4.487  12.267  0.00  0.00    +0.000 A 
ATOM     18  C   UNL     1      44.296   4.920  13.281  0.00  0.00    +0.000 A 
ATOM     19  C   UNL     1      43.000   5.321  12.965  0.00  0.00    +0.000 A 
ATOM     20  C   UNL     1      42.600   5.266  11.641  0.00  0.00    +0.000 A 
ATOM     21  N   UNL     1      43.378   4.792  10.646  0.00  0.00    +0.000 NA
ATOM     22  C   UNL     1      44.628   4.408  10.983  0.00  0.00    +0.000 A 
ENDBRANCH  16  17
ENDBRANCH  10  16
TORSDOF 3
ENDMDL
MODEL 8
REMARK VINA RESULT:    -5.868      2.177      2.843
REMARK INTER + INTRA:          -7.209
REMARK INTER:                  -6.953
REMARK INTRA:                  -0.256
REMARK UNBOUND:                -0.312
REMARK  Name = 
REMARK  4 active torsions:
REMARK  status: ('A' for Active; 'I' for Inactive)
REMARK    1  A    between atoms: C_1  and  C_2
REMARK    2  A    between atoms: C_7  and  C_8
REMARK    3  A    between atoms: N_13  and  C_14
REMARK    4  A    between atoms: C_14  and  C_15
REMARK                            x       y       z     vdW  Elec       q    Type
REMARK                         _______ _______ _______ _____ _____    ______ ____
ROOT
ATOM      1  C   UNL     1      42.606   5.827  11.381  0.00  0.00    +0.000 C 
ATOM      2  C   UNL     1      43.898   6.340  11.900  0.00  0.00    +0.000 A 
ATOM      3  N   UNL     1      44.107   7.618  12.155  0.00  0.00    +0.000 NA
ATOM      4  C   UNL     1      45.383   7.701  12.621  0.00  0.00    +0.000 A 
ATOM      5  C   UNL     1      46.108   8.819  13.040  0.00  0.00    +0.000 A 
ATOM      6  C   UNL     1      47.410   8.602  13.480  0.00  0.00    +0.000 A 
ATOM      7  C   UNL     1      47.921   7.303  13.473  0.00  0.00    +0.000 A 
ATOM      8  N   UNL     1      47.259   6.170  13.055  0.00  0.00    +0.000 NA
ATOM      9  C   UNL     1      45.997   6.454  12.651  0.00  0.00    +0.000 A 
ATOM     10  N   UNL     1      45.031   5.589  12.177  0.00  0.00    +0.000 N 
ENDROOT
BRANCH   7  11
ATOM     11  C   UNL     1      49.325   7.120  13.978  0.00  0.00    +0.000 C 
ATOM     12  N   UNL     1      50.325   7.595  13.175  0.00  0.00    +0.000 N 
ATOM     13  O   UNL     1      49.573   6.578  15.046  0.00  0.00    +0.000 OA
ATOM     14  H   UNL     1      50.106   8.057  12.304  0.00  0.00    +0.000 HD
ATOM     15  H   UNL     1      51.281   7.495  13.485  0.00  0.00    +0.000 HD
ENDBRANCH   7  11
BRANCH  10  16
ATOM     16  C   UNL     1      45.223   4.163  11.947  0.00  0.00    +0.000 C 
BRANCH  16  17
ATOM     17  C   UNL     1      45.226   3.832  10.480  0.00  0.00    +0.000 A 
ATOM     18  C   UNL     1      44.741   2.610  10.004  0.00  0.00    +0.000 A 
ATOM     19  C   UNL     1      44.635   2.394   8.632  0.00  0.00    +0.000 A 
ATOM     20  C   UNL     1      45.029   3.407   7.776  0.00  0.00    +0.000 A 
ATOM     21  N   UNL     1      45.563   4.573   8.195  0.00  0.00    +0.000 NA
ATOM     22  C   UNL     1      45.656   4.753   9.531  0.00  0.00    +0.000 A 
ENDBRANCH  16  17
ENDBRANCH  10  16
TORSDOF 3
ENDMDL
MODEL 9
REMARK VINA RESULT:    -5.695      4.014      6.401
REMARK INTER + INTRA:          -7.006
REMARK INTER:                  -6.370
REMARK INTRA:                  -0.636
REMARK UNBOUND:                -0.312
REMARK  Name = 
REMARK  4 active torsions:
REMARK  status: ('A' for Active; 'I' for Inactive)
REMARK    1  A    between atoms: C_1  and  C_2
REMARK    2  A    between atoms: C_7  and  C_8
REMARK    3  A    between atoms: N_13  and  C_14
REMARK    4  A    between atoms: C_14  and  C_15
REMARK                            x       y       z     vdW  Elec       q    Type
REMARK                         _______ _______ _______ _____ _____    ______ ____
ROOT
ATOM      1  C   UNL     1      48.153   9.266  13.657  0.00  0.00    +0.000 C 
ATOM      2  C   UNL     1      48.411   8.242  14.701  0.00  0.00    +0.000 A 
ATOM      3  N   UNL     1      48.767   8.555  15.932  0.00  0.00    +0.000 NA
ATOM      4  C   UNL     1      48.899   7.373  16.593  0.00  0.00    +0.000 A 
ATOM      5  C   UNL     1      49.255   7.130  17.922  0.00  0.00    +0.000 A 
ATOM      6  C   UNL     1      49.303   5.800  18.332  0.00  0.00    +0.000 A 
ATOM      7  C   UNL     1      49.008   4.794  17.410  0.00  0.00    +0.000 A 
ATOM      8  N   UNL     1      48.670   4.977  16.088  0.00  0.00    +0.000 NA
ATOM      9  C   UNL     1      48.632   6.291  15.762  0.00  0.00    +0.000 A 
ATOM     10  N   UNL     1      48.326   6.867  14.544  0.00  0.00    +0.000 N 
ENDROOT
BRANCH   7  11
ATOM     11  C   UNL     1      49.055   3.377  17.909  0.00  0.00    +0.000 C 
ATOM     12  N   UNL     1      48.516   3.152  19.145  0.00  0.00    +0.000 N 
ATOM     13  O   UNL     1      49.545   2.467  17.255  0.00  0.00    +0.000 OA
ATOM     14  H   UNL     1      48.096   3.908  19.667  0.00  0.00    +0.000 HD
ATOM     15  H   UNL     1      48.524   2.210  19.510  0.00  0.00    +0.000 HD
ENDBRANCH   7  11
BRANCH  10  16
ATOM     16  C   UNL     1      48.047   6.133  13.317  0.00  0.00    +0.000 C 
BRANCH  16  17
ATOM     17  C   UNL     1      46.595   5.760  13.210  0.00  0.00    +0.000 A 
ATOM     18  C   UNL     1      45.644   6.652  12.705  0.00  0.00    +0.000 A 
ATOM     19  C   UNL     1      44.335   6.225  12.495  0.00  0.00    +0.000 A 
ATOM     20  C   UNL     1      44.014   4.916  12.808  0.00  0.00    +0.000 A 
ATOM     21  N   UNL     1      44.885   4.045  13.358  0.00  0.00    +0.000 NA
ATOM     22  C   UNL     1      46.146   4.489  13.552  0.00  0.00    +0.000 A 
ENDBRANCH  16  17
ENDBRANCH  10  16
TORSDOF 3
ENDMDL
