MODEL 1
REMARK VINA RESULT:    -7.802      0.000      0.000
REMARK INTER + INTRA:          -9.966
REMARK INTER:                  -9.627
REMARK INTRA:                  -0.339
REMARK UNBOUND:                -0.339
REMARK  Name = 
REMARK  4 active torsions:
REMARK  status: ('A' for Active; 'I' for Inactive)
REMARK    1  A    between atoms: C_2  and  C_4
REMARK    2  A    between atoms: C_7  and  C_8
REMARK    3  A    between atoms: C_8  and  C_9
REMARK    4  A    between atoms: C_9  and  C_10
REMARK                            x       y       z     vdW  Elec       q    Type
REMARK                         _______ _______ _______ _____ _____    ______ ____
ROOT
ATOM      1  C   UNL     1      46.521   2.523   7.774  0.00  0.00    +0.000 A 
ATOM      2  C   UNL     1      46.438   3.903   7.708  0.00  0.00    +0.000 A 
ATOM      3  N   UNL     1      45.623   4.620   8.532  0.00  0.00    +0.000 NA
ATOM      4  C   UNL     1      44.896   3.906   9.438  0.00  0.00    +0.000 A 
ATOM      5  C   UNL     1      45.000   2.516   9.494  0.00  0.00    +0.000 A 
ATOM      6  N   UNL     1      45.801   1.792   8.674  0.00  0.00    +0.000 NA
ENDROOT
BRANCH   1   8
ATOM      7  N   UNL     1      48.462   2.489   6.343  0.00  0.00    +0.000 N 
ATOM      8  C   UNL     1      47.389   1.781   6.824  0.00  0.00    +0.000 C 
ATOM      9  O   UNL     1      47.174   0.614   6.496  0.00  0.00    +0.000 OA
ATOM     10  H   UNL     1      49.104   2.049   5.697  0.00  0.00    +0.000 HD
ATOM     11  H   UNL     1      48.611   3.444   6.645  0.00  0.00    +0.000 HD
ENDBRANCH   1   8
BRANCH   4  12
ATOM     12  C   UNL     1      43.878   4.693  10.228  0.00  0.00    +0.000 C 
BRANCH  12  13
ATOM     13  C   UNL     1      44.088   4.728  11.730  0.00  0.00    +0.000 C 
ATOM     14  C   UNL     1      43.477   3.602  12.558  0.00  0.00    +0.000 C 
ATOM     15  C   UNL     1      42.854   4.960  12.614  0.00  0.00    +0.000 C 
BRANCH  13  16
ATOM     16  C   UNL     1      45.321   5.451  12.265  0.00  0.00    +0.000 A 
ATOM     17  C   UNL     1      46.161   4.838  13.202  0.00  0.00    +0.000 A 
ATOM     18  N   UNL     1      47.443   5.216  13.427  0.00  0.00    +0.000 NA
ATOM     19  C   UNL     1      47.867   6.261  12.687  0.00  0.00    +0.000 A 
ATOM     20  C   UNL     1      47.026   6.942  11.826  0.00  0.00    +0.000 A 
ATOM     21  N   UNL     1      45.744   6.566  11.611  0.00  0.00    +0.000 NA
ENDBRANCH  13  16
ENDBRANCH  12  13
ENDBRANCH   4  12
TORSDOF 4
ENDMDL
MODEL 2
REMARK VINA RESULT:    -5.856      3.485      6.739
REMARK INTER + INTRA:          -7.564
REMARK INTER:                  -7.653
REMARK INTRA:                   0.089
REMARK UNBOUND:                -0.339
REMARK  Name = 
REMARK  4 active torsions:
REMARK  status: ('A' for Active; 'I' for Inactive)
REMARK    1  A    between atoms: C_2  and  C_4
REMARK    2  A    between atoms: C_7  and  C_8
REMARK    3  A    between atoms: C_8  and  C_9
REMARK    4  A    between atoms: C_9  and  C_10
REMARK                            x       y       z     vdW  Elec       q    Type
REMARK                         _______ _______ _______ _____ _____    ______ ____
ROOT
ATOM      1  C   UNL     1      48.133   5.574  15.636  0.00  0.00    +0.000 A 
ATOM      2  C   UNL     1      47.479   4.410  16.003  0.00  0.00    +0.000 A 
ATOM      3  N   UNL     1      46.834   3.624  15.095  0.00  0.00    +0.000 NA
ATOM      4  C   UNL     1      46.875   4.038  13.797  0.00  0.00    +0.000 A 
ATOM      5  C   UNL     1      47.546   5.209  13.446  0.00  0.00    +0.000 A 
ATOM      6  N   UNL     1      48.184   6.003  14.342  0.00  0.00    +0.000 NA
ENDROOT
BRANCH   1   8
ATOM      7  N   UNL     1      47.983   6.757  17.732  0.00  0.00    +0.000 N 
ATOM      8  C   UNL     1      48.783   6.423  16.667  0.00  0.00    +0.000 C 
ATOM      9  O   UNL     1      49.953   6.794  16.585  0.00  0.00    +0.000 OA
ATOM     10  H   UNL     1      48.356   7.327  18.479  0.00  0.00    +0.000 HD
ATOM     11  H   UNL     1      47.028   6.423  17.768  0.00  0.00    +0.000 HD
ENDBRANCH   1   8
BRANCH   4  12
ATOM     12  C   UNL     1      46.021   3.252  12.832  0.00  0.00    +0.000 C 
BRANCH  12  13
ATOM     13  C   UNL     1      44.906   4.025  12.152  0.00  0.00    +0.000 C 
ATOM     14  C   UNL     1      44.334   5.236  12.882  0.00  0.00    +0.000 C 
ATOM     15  C   UNL     1      43.516   3.987  12.801  0.00  0.00    +0.000 C 
BRANCH  13  16
ATOM     16  C   UNL     1      44.828   3.979  10.628  0.00  0.00    +0.000 A 
ATOM     17  C   UNL     1      45.397   4.994   9.850  0.00  0.00    +0.000 A 
ATOM     18  N   UNL     1      45.722   4.851   8.542  0.00  0.00    +0.000 NA
ATOM     19  C   UNL     1      45.438   3.643   8.014  0.00  0.00    +0.000 A 
ATOM     20  C   UNL     1      44.789   2.658   8.736  0.00  0.00    +0.000 A 
ATOM     21  N   UNL     1      44.459   2.809  10.040  0.00  0.00    +0.000 NA
ENDBRANCH  13  16
ENDBRANCH  12  13
ENDBRANCH   4  12
TORSDOF 4
ENDMDL
MODEL 3
REMARK VINA RESULT:    -5.627      3.964      6.401
REMARK INTER + INTRA:          -7.282
REMARK INTER:                  -7.378
REMARK INTRA:                   0.096
REMARK UNBOUND:                -0.339
REMARK  Name = 
REMARK  4 active torsions:
REMARK  status: ('A' for Active; 'I' for Inactive)
REMARK    1  A    between atoms: C_2  and  C_4
REMARK    2  A    between atoms: C_7  and  C_8
REMARK    3  A    between atoms: C_8  and  C_9
REMARK    4  A    between atoms: C_9  and  C_10
REMARK                            x       y       z     vdW  Elec       q    Type
REMARK                         _______ _______ _______ _____ _____    ______ ____
ROOT
ATOM      1  C   UNL     1      47.738   3.762  15.638  0.00  0.00    +0.000 A 
ATOM      2  C   UNL     1      47.993   5.116  15.779  0.00  0.00    +0.000 A 
ATOM      3  N   UNL     1      47.793   6.001  14.762  0.00  0.00    +0.000 NA
ATOM      4  C   UNL     1      47.315   5.486  13.594  0.00  0.00    +0.000 A 
ATOM      5  C   UNL     1      47.057   4.120  13.474  0.00  0.00    +0.000 A 
ATOM      6  N   UNL     1      47.260   3.229  14.476  0.00  0.00    +0.000 NA
ENDROOT
BRANCH   1   8
ATOM      7  N   UNL     1      47.023   2.743  17.703  0.00  0.00    +0.000 N 
ATOM      8  C   UNL     1      48.016   2.828  16.759  0.00  0.00    +0.000 C 
ATOM      9  O   UNL     1      49.052   2.169  16.836  0.00  0.00    +0.000 OA
ATOM     10  H   UNL     1      47.135   2.122  18.493  0.00  0.00    +0.000 HD
ATOM     11  H   UNL     1      46.180   3.294  17.598  0.00  0.00    +0.000 HD
ENDBRANCH   1   8
BRANCH   4  12
ATOM     12  C   UNL     1      47.256   6.445  12.430  0.00  0.00    +0.000 C 
BRANCH  12  13
ATOM     13  C   UNL     1      45.931   7.155  12.222  0.00  0.00    +0.000 C 
ATOM     14  C   UNL     1      45.965   8.554  11.615  0.00  0.00    +0.000 C 
ATOM     15  C   UNL     1      45.654   8.404  13.071  0.00  0.00    +0.000 C 
BRANCH  13  16
ATOM     16  C   UNL     1      44.681   6.300  12.035  0.00  0.00    +0.000 A 
ATOM     17  C   UNL     1      44.436   5.643  10.823  0.00  0.00    +0.000 A 
ATOM     18  N   UNL     1      43.601   4.584  10.694  0.00  0.00    +0.000 NA
ATOM     19  C   UNL     1      42.988   4.200  11.832  0.00  0.00    +0.000 A 
ATOM     20  C   UNL     1      43.140   4.892  13.019  0.00  0.00    +0.000 A 
ATOM     21  N   UNL     1      43.969   5.956  13.142  0.00  0.00    +0.000 NA
ENDBRANCH  13  16
ENDBRANCH  12  13
ENDBRANCH   4  12
TORSDOF 4
ENDMDL
MODEL 4
REMARK VINA RESULT:    -5.576      2.973      6.061
REMARK INTER + INTRA:          -7.220
REMARK INTER:                  -7.202
REMARK INTRA:                  -0.018
REMARK UNBOUND:                -0.339
REMARK  Name = 
REMARK  4 active torsions:
REMARK  status: ('A' for Active; 'I' for Inactive)
REMARK    1  A    between atoms: C_2  and  C_4
REMARK    2  A    between atoms: C_7  and  C_8
REMARK    3  A    between atoms: C_8  and  C_9
REMARK    4  A    between atoms: C_9  and  C_10
REMARK                            x       y       z     vdW  Elec       q    Type
REMARK                         _______ _______ _______ _____ _____    ______ ____
ROOT
ATOM      1  C   UNL     1      46.633   8.137  12.412  0.00  0.00    +0.000 A 
ATOM      2  C   UNL     1      47.355   7.212  11.678  0.00  0.00    +0.000 A 
ATOM      3  N   UNL     1      46.954   5.915  11.552  0.00  0.00    +0.000 NA
ATOM      4  C   UNL     1      45.794   5.575  12.180  0.00  0.00    +0.000 A 
ATOM      5  C   UNL     1      45.076   6.524  12.909  0.00  0.00    +0.000 A 
ATOM      6  N   UNL     1      45.469   7.814  13.048  0.00  0.00    +0.000 NA
ENDROOT
BRANCH   1   8
ATOM      7  N   UNL     1      47.635   9.835  13.801  0.00  0.00    +0.000 N 
ATOM      8  C   UNL     1      47.133   9.528  12.560  0.00  0.00    +0.000 C 
ATOM      9  O   UNL     1      47.111  10.346  11.641  0.00  0.00    +0.000 OA
ATOM     10  H   UNL     1      48.002  10.761  13.977  0.00  0.00    +0.000 HD
ATOM     11  H   UNL     1      47.645   9.131  14.528  0.00  0.00    +0.000 HD
ENDBRANCH   1   8
BRANCH   4  12
ATOM     12  C   UNL     1      45.451   4.105  12.171  0.00  0.00    +0.000 C 
BRANCH  12  13
ATOM     13  C   UNL     1      44.386   3.678  11.177  0.00  0.00    +0.000 C 
ATOM     14  C   UNL     1      42.955   4.144  11.427  0.00  0.00    +0.000 C 
ATOM     15  C   UNL     1      43.302   2.710  11.670  0.00  0.00    +0.000 C 
BRANCH  13  16
ATOM     16  C   UNL     1      44.822   3.371   9.748  0.00  0.00    +0.000 A 
ATOM     17  C   UNL     1      45.068   4.405   8.835  0.00  0.00    +0.000 A 
ATOM     18  N   UNL     1      45.815   4.259   7.713  0.00  0.00    +0.000 NA
ATOM     19  C   UNL     1      46.306   3.019   7.513  0.00  0.00    +0.000 A 
ATOM     20  C   UNL     1      45.997   1.961   8.348  0.00  0.00    +0.000 A 
ATOM     21  N   UNL     1      45.243   2.109   9.463  0.00  0.00    +0.000 NA
ENDBRANCH  13  16
ENDBRANCH  12  13
ENDBRANCH   4  12
TORSDOF 4
ENDMDL
MODEL 5
REMARK VINA RESULT:    -5.257      3.049      5.017
REMARK INTER + INTRA:          -6.826
REMARK INTER:                  -7.127
REMARK INTRA:                   0.301
REMARK UNBOUND:                -0.339
REMARK  Name = 
REMARK  4 active torsions:
REMARK  status: ('A' for Active; 'I' for Inactive)
REMARK    1  A    between atoms: C_2  and  C_4
REMARK    2  A    between atoms: C_7  and  C_8
REMARK    3  A    between atoms: C_8  and  C_9
REMARK    4  A    between atoms: C_9  and  C_10
REMARK                            x       y       z     vdW  Elec       q    Type
REMARK                         _______ _______ _______ _____ _____    ______ ____
ROOT
ATOM      1  C   UNL     1      44.620   3.988  11.606  0.00  0.00    +0.000 A 
ATOM      2  C   UNL     1      44.895   5.064  10.779  0.00  0.00    +0.000 A 
ATOM      3  N   UNL     1      45.487   6.202  11.242  0.00  0.00    +0.000 NA
ATOM      4  C   UNL     1      45.808   6.223  12.566  0.00  0.00    +0.000 A 
ATOM      5  C   UNL     1      45.530   5.126  13.382  0.00  0.00    +0.000 A 
ATOM      6  N   UNL     1      44.934   3.993  12.934  0.00  0.00    +0.000 NA
ENDROOT
BRANCH   1   8
ATOM      7  N   UNL     1      44.524   2.224   9.966  0.00  0.00    +0.000 N 
ATOM      8  C   UNL     1      43.930   2.788  11.067  0.00  0.00    +0.000 C 
ATOM      9  O   UNL     1      42.909   2.323  11.572  0.00  0.00    +0.000 OA
ATOM     10  H   UNL     1      44.118   1.398   9.546  0.00  0.00    +0.000 HD
ATOM     11  H   UNL     1      45.370   2.630   9.586  0.00  0.00    +0.000 HD
ENDBRANCH   1   8
BRANCH   4  12
ATOM     12  C   UNL     1      46.309   7.544  13.098  0.00  0.00    +0.000 C 
BRANCH  12  13
ATOM     13  C   UNL     1      47.814   7.674  13.242  0.00  0.00    +0.000 C 
ATOM     14  C   UNL     1      48.527   8.686  12.351  0.00  0.00    +0.000 C 
ATOM     15  C   UNL     1      48.682   7.228  12.057  0.00  0.00    +0.000 C 
BRANCH  13  16
ATOM     16  C   UNL     1      48.440   7.302  14.583  0.00  0.00    +0.000 A 
ATOM     17  C   UNL     1      48.755   8.288  15.525  0.00  0.00    +0.000 A 
ATOM     18  N   UNL     1      48.932   8.041  16.846  0.00  0.00    +0.000 NA
ATOM     19  C   UNL     1      48.802   6.748  17.206  0.00  0.00    +0.000 A 
ATOM     20  C   UNL     1      48.588   5.744  16.279  0.00  0.00    +0.000 A 
ATOM     21  N   UNL     1      48.420   5.995  14.960  0.00  0.00    +0.000 NA
ENDBRANCH  13  16
ENDBRANCH  12  13
ENDBRANCH   4  12
TORSDOF 4
ENDMDL
MODEL 6
REMARK VINA RESULT:    -5.167      4.503      6.614
REMARK INTER + INTRA:          -6.714
REMARK INTER:                  -6.416
REMARK INTRA:                  -0.298
REMARK UNBOUND:                -0.339
REMARK  Name = 
REMARK  4 active torsions:
REMARK  status: ('A' for Active; 'I' for Inactive)
REMARK    1  A    between atoms: C_2  and  C_4
REMARK    2  A    between atoms: C_7  and  C_8
REMARK    3  A    between atoms: C_8  and  C_9
REMARK    4  A    between atoms: C_9  and  C_10
REMARK                            x       y       z     vdW  Elec       q    Type
REMARK                         _______ _______ _______ _____ _____    ______ ____
ROOT
ATOM      1  C   UNL     1      45.019   5.139  13.281  0.00  0.00    +0.000 A 
ATOM      2  C   UNL     1      45.316   6.377  12.738  0.00  0.00    +0.000 A 
ATOM      3  N   UNL     1      46.551   6.942  12.854  0.00  0.00    +0.000 NA
ATOM      4  C   UNL     1      47.489   6.218  13.528  0.00  0.00    +0.000 A 
ATOM      5  C   UNL     1      47.172   4.969  14.062  0.00  0.00    +0.000 A 
ATOM      6  N   UNL     1      45.945   4.401  13.959  0.00  0.00    +0.000 NA
ENDROOT
BRANCH   1   8
ATOM      7  N   UNL     1      42.659   5.514  12.960  0.00  0.00    +0.000 N 
ATOM      8  C   UNL     1      43.646   4.583  13.170  0.00  0.00    +0.000 C 
ATOM      9  O   UNL     1      43.406   3.379  13.247  0.00  0.00    +0.000 OA
ATOM     10  H   UNL     1      41.698   5.213  12.865  0.00  0.00    +0.000 HD
ATOM     11  H   UNL     1      42.899   6.495  12.892  0.00  0.00    +0.000 HD
ENDBRANCH   1   8
BRANCH   4  12
ATOM     12  C   UNL     1      48.796   6.924  13.793  0.00  0.00    +0.000 C 
BRANCH  12  13
ATOM     13  C   UNL     1      48.867   7.731  15.076  0.00  0.00    +0.000 C 
ATOM     14  C   UNL     1      48.012   8.990  15.170  0.00  0.00    +0.000 C 
ATOM     15  C   UNL     1      49.491   9.131  15.001  0.00  0.00    +0.000 C 
BRANCH  13  16
ATOM     16  C   UNL     1      49.248   7.002  16.361  0.00  0.00    +0.000 A 
ATOM     17  C   UNL     1      48.573   7.261  17.560  0.00  0.00    +0.000 A 
ATOM     18  N   UNL     1      48.564   6.415  18.619  0.00  0.00    +0.000 NA
ATOM     19  C   UNL     1      49.279   5.285  18.451  0.00  0.00    +0.000 A 
ATOM     20  C   UNL     1      50.031   5.051  17.314  0.00  0.00    +0.000 A 
ATOM     21  N   UNL     1      50.045   5.903  16.262  0.00  0.00    +0.000 NA
ENDBRANCH  13  16
ENDBRANCH  12  13
ENDBRANCH   4  12
TORSDOF 4
ENDMDL
