MODEL 1
REMARK VINA RESULT:    -7.994      0.000      0.000
REMARK INTER + INTRA:         -12.026
REMARK INTER:                 -10.798
REMARK INTRA:                  -1.227
REMARK UNBOUND:                -1.227
REMARK  Name = 
REMARK  8 active torsions:
REMARK  status: ('A' for Active; 'I' for Inactive)
REMARK    1  A    between atoms: C_1  and  C_2
REMARK    2  A    between atoms: C_2  and  N_3
REMARK    3  A    between atoms: C_2  and  C_17
REMARK    4  A    between atoms: C_4  and  C_6
REMARK    5  A    between atoms: N_12  and  C_13
REMARK    6  A    between atoms: C_20  and  C_21
REMARK    7  A    between atoms: C_21  and  N_22
REMARK    8  A    between atoms: C_23  and  C_25
REMARK                            x       y       z     vdW  Elec       q    Type
REMARK                         _______ _______ _______ _____ _____    ______ ____
ROOT
ATOM      1  C   UNL     1      47.669   8.373  13.899  0.00  0.00    +0.000 C 
ATOM      2  C   UNL     1      48.015   6.897  14.103  0.00  0.00    +0.000 C 
ENDROOT
BRANCH   2   3
ATOM      3  C   UNL     1      47.100   5.978  13.310  0.00  0.00    +0.000 A 
ATOM      4  C   UNL     1      46.879   4.666  13.757  0.00  0.00    +0.000 A 
ATOM      5  C   UNL     1      46.029   3.805  13.056  0.00  0.00    +0.000 A 
ATOM      6  C   UNL     1      45.382   4.232  11.892  0.00  0.00    +0.000 A 
ATOM      7  C   UNL     1      45.582   5.547  11.453  0.00  0.00    +0.000 A 
ATOM      8  C   UNL     1      46.434   6.408  12.152  0.00  0.00    +0.000 A 
BRANCH   6   9
ATOM      9  C   UNL     1      44.480   3.298  11.130  0.00  0.00    +0.000 C 
BRANCH   9  10
ATOM     10  N   UNL     1      45.118   2.758   9.959  0.00  0.00    +0.000 N 
ATOM     11  C   UNL     1      44.975   3.353   8.727  0.00  0.00    +0.000 C 
ATOM     12  O   UNL     1      44.230   4.310   8.523  0.00  0.00    +0.000 OA
ATOM     13  H   UNL     1      45.853   2.058  10.036  0.00  0.00    +0.000 HD
BRANCH  11  14
ATOM     14  C   UNL     1      45.764   2.680   7.598  0.00  0.00    +0.000 C 
ATOM     15  C   UNL     1      46.392   1.374   8.047  0.00  0.00    +0.000 C 
ATOM     16  C   UNL     1      47.490   1.160   7.023  0.00  0.00    +0.000 C 
ATOM     17  C   UNL     1      47.904   2.561   6.596  0.00  0.00    +0.000 C 
ATOM     18  N   UNL     1      46.943   3.490   7.200  0.00  0.00    +0.000 NA
ATOM     19  H   UNL     1      46.654   4.194   6.519  0.00  0.00    +0.000 HD
ENDBRANCH  11  14
ENDBRANCH   9  10
ENDBRANCH   6   9
ENDBRANCH   2   3
BRANCH   2  20
ATOM     20  N   UNL     1      47.955   6.545  15.508  0.00  0.00    +0.000 N 
ATOM     21  C   UNL     1      49.069   6.349  16.280  0.00  0.00    +0.000 C 
ATOM     22  O   UNL     1      50.204   6.328  15.814  0.00  0.00    +0.000 OA
ATOM     23  H   UNL     1      47.069   6.713  15.969  0.00  0.00    +0.000 HD
BRANCH  21  24
ATOM     24  C   UNL     1      48.822   6.107  17.707  0.00  0.00    +0.000 A 
ATOM     25  C   UNL     1      49.148   4.880  18.269  0.00  0.00    +0.000 A 
ATOM     26  S   UNL     1      48.778   4.775  19.931  0.00  0.00    +0.000 S 
ATOM     27  C   UNL     1      48.213   6.380  19.965  0.00  0.00    +0.000 A 
ATOM     28  N   UNL     1      47.767   6.938  21.118  0.00  0.00    +0.000 NA
ATOM     29  C   UNL     1      47.398   8.172  21.009  0.00  0.00    +0.000 A 
ATOM     30  N   UNL     1      47.418   8.912  19.846  0.00  0.00    +0.000 N 
ATOM     31  C   UNL     1      46.969  10.288  19.838  0.00  0.00    +0.000 C 
ATOM     32  C   UNL     1      47.836   8.361  18.638  0.00  0.00    +0.000 A 
ATOM     33  O   UNL     1      47.803   8.983  17.579  0.00  0.00    +0.000 OA
ATOM     34  C   UNL     1      48.281   6.981  18.723  0.00  0.00    +0.000 A 
ENDBRANCH  21  24
ENDBRANCH   2  20
TORSDOF 6
ENDMDL
MODEL 2
REMARK VINA RESULT:    -7.774      2.954      3.956
REMARK INTER + INTRA:         -11.729
REMARK INTER:                 -10.621
REMARK INTRA:                  -1.108
REMARK UNBOUND:                -1.227
REMARK  Name = 
REMARK  8 active torsions:
REMARK  status: ('A' for Active; 'I' for Inactive)
REMARK    1  A    between atoms: C_1  and  C_2
REMARK    2  A    between atoms: C_2  and  N_3
REMARK    3  A    between atoms: C_2  and  C_17
REMARK    4  A    between atoms: C_4  and  C_6
REMARK    5  A    between atoms: N_12  and  C_13
REMARK    6  A    between atoms: C_20  and  C_21
REMARK    7  A    between atoms: C_21  and  N_22
REMARK    8  A    between atoms: C_23  and  C_25
REMARK                            x       y       z     vdW  Elec       q    Type
REMARK                         _______ _______ _______ _____ _____    ______ ____
ROOT
ATOM      1  C   UNL     1      47.530   3.410  15.315  0.00  0.00    +0.000 C 
ATOM      2  C   UNL     1      46.920   4.767  14.958  0.00  0.00    +0.000 C 
ENDROOT
BRANCH   2   3
ATOM      3  C   UNL     1      46.095   4.708  13.682  0.00  0.00    +0.000 A 
ATOM      4  C   UNL     1      45.627   5.898  13.105  0.00  0.00    +0.000 A 
ATOM      5  C   UNL     1      44.880   5.873  11.923  0.00  0.00    +0.000 A 
ATOM      6  C   UNL     1      44.582   4.662  11.291  0.00  0.00    +0.000 A 
ATOM      7  C   UNL     1      45.065   3.472  11.852  0.00  0.00    +0.000 A 
ATOM      8  C   UNL     1      45.809   3.495  13.036  0.00  0.00    +0.000 A 
BRANCH   6   9
ATOM      9  C   UNL     1      43.765   4.637  10.027  0.00  0.00    +0.000 C 
BRANCH   9  10
ATOM     10  N   UNL     1      44.331   3.770   9.028  0.00  0.00    +0.000 N 
ATOM     11  C   UNL     1      45.491   4.101   8.366  0.00  0.00    +0.000 C 
ATOM     12  O   UNL     1      46.061   5.181   8.506  0.00  0.00    +0.000 OA
ATOM     13  H   UNL     1      44.019   2.806   8.930  0.00  0.00    +0.000 HD
BRANCH  11  14
ATOM     14  C   UNL     1      45.983   3.042   7.374  0.00  0.00    +0.000 C 
ATOM     15  C   UNL     1      46.332   1.737   8.064  0.00  0.00    +0.000 C 
ATOM     16  C   UNL     1      47.241   1.057   7.059  0.00  0.00    +0.000 C 
ATOM     17  C   UNL     1      47.926   2.197   6.319  0.00  0.00    +0.000 C 
ATOM     18  N   UNL     1      47.273   3.437   6.752  0.00  0.00    +0.000 NA
ATOM     19  H   UNL     1      47.090   4.041   5.949  0.00  0.00    +0.000 HD
ENDBRANCH  11  14
ENDBRANCH   9  10
ENDBRANCH   6   9
ENDBRANCH   2   3
BRANCH   2  20
ATOM     20  N   UNL     1      47.952   5.774  14.821  0.00  0.00    +0.000 N 
ATOM     21  C   UNL     1      48.642   6.291  15.886  0.00  0.00    +0.000 C 
ATOM     22  O   UNL     1      48.352   6.037  17.050  0.00  0.00    +0.000 OA
ATOM     23  H   UNL     1      48.337   5.890  13.892  0.00  0.00    +0.000 HD
BRANCH  21  24
ATOM     24  C   UNL     1      49.727   7.222  15.552  0.00  0.00    +0.000 A 
ATOM     25  C   UNL     1      51.017   6.972  15.998  0.00  0.00    +0.000 A 
ATOM     26  S   UNL     1      52.142   8.166  15.527  0.00  0.00    +0.000 S 
ATOM     27  C   UNL     1      50.951   9.032  14.673  0.00  0.00    +0.000 A 
ATOM     28  N   UNL     1      51.263  10.167  13.999  0.00  0.00    +0.000 NA
ATOM     29  C   UNL     1      50.271  10.705  13.367  0.00  0.00    +0.000 A 
ATOM     30  N   UNL     1      48.979  10.224  13.350  0.00  0.00    +0.000 N 
ATOM     31  C   UNL     1      47.943  10.917  12.616  0.00  0.00    +0.000 C 
ATOM     32  C   UNL     1      48.617   9.083  14.060  0.00  0.00    +0.000 A 
ATOM     33  O   UNL     1      47.459   8.673  14.110  0.00  0.00    +0.000 OA
ATOM     34  C   UNL     1      49.709   8.435  14.765  0.00  0.00    +0.000 A 
ENDBRANCH  21  24
ENDBRANCH   2  20
TORSDOF 6
ENDMDL
MODEL 3
REMARK VINA RESULT:    -7.658      2.405      2.956
REMARK INTER + INTRA:         -11.572
REMARK INTER:                 -10.296
REMARK INTRA:                  -1.276
REMARK UNBOUND:                -1.227
REMARK  Name = 
REMARK  8 active torsions:
REMARK  status: ('A' for Active; 'I' for Inactive)
REMARK    1  A    between atoms: C_1  and  C_2
REMARK    2  A    between atoms: C_2  and  N_3
REMARK    3  A    between atoms: C_2  and  C_17
REMARK    4  A    between atoms: C_4  and  C_6
REMARK    5  A    between atoms: N_12  and  C_13
REMARK    6  A    between atoms: C_20  and  C_21
REMARK    7  A    between atoms: C_21  and  N_22
REMARK    8  A    between atoms: C_23  and  C_25
REMARK                            x       y       z     vdW  Elec       q    Type
REMARK                         _______ _______ _______ _____ _____    ______ ____
ROOT
ATOM      1  C   UNL     1      48.738  10.025  14.118  0.00  0.00    +0.000 C 
ATOM      2  C   UNL     1      48.908   8.513  13.963  0.00  0.00    +0.000 C 
ENDROOT
BRANCH   2   3
ATOM      3  C   UNL     1      47.715   7.868  13.277  0.00  0.00    +0.000 A 
ATOM      4  C   UNL     1      47.794   6.530  12.862  0.00  0.00    +0.000 A 
ATOM      5  C   UNL     1      46.705   5.907  12.244  0.00  0.00    +0.000 A 
ATOM      6  C   UNL     1      45.514   6.606  12.024  0.00  0.00    +0.000 A 
ATOM      7  C   UNL     1      45.422   7.935  12.456  0.00  0.00    +0.000 A 
ATOM      8  C   UNL     1      46.511   8.560  13.071  0.00  0.00    +0.000 A 
BRANCH   6   9
ATOM      9  C   UNL     1      44.348   5.937  11.344  0.00  0.00    +0.000 C 
BRANCH   9  10
ATOM     10  N   UNL     1      44.752   5.183  10.186  0.00  0.00    +0.000 N 
ATOM     11  C   UNL     1      44.213   3.946   9.915  0.00  0.00    +0.000 C 
ATOM     12  O   UNL     1      43.440   3.366  10.674  0.00  0.00    +0.000 OA
ATOM     13  H   UNL     1      45.277   5.618   9.432  0.00  0.00    +0.000 HD
BRANCH  11  14
ATOM     14  C   UNL     1      44.714   3.305   8.615  0.00  0.00    +0.000 C 
ATOM     15  C   UNL     1      45.534   2.057   8.879  0.00  0.00    +0.000 C 
ATOM     16  C   UNL     1      46.326   1.897   7.596  0.00  0.00    +0.000 C 
ATOM     17  C   UNL     1      46.505   3.314   7.069  0.00  0.00    +0.000 C 
ATOM     18  N   UNL     1      45.678   4.187   7.909  0.00  0.00    +0.000 NA
ATOM     19  H   UNL     1      45.164   4.854   7.332  0.00  0.00    +0.000 HD
ENDBRANCH  11  14
ENDBRANCH   9  10
ENDBRANCH   6   9
ENDBRANCH   2   3
BRANCH   2  20
ATOM     20  N   UNL     1      49.124   7.886  15.251  0.00  0.00    +0.000 N 
ATOM     21  C   UNL     1      50.362   7.518  15.708  0.00  0.00    +0.000 C 
ATOM     22  O   UNL     1      51.369   7.571  15.011  0.00  0.00    +0.000 OA
ATOM     23  H   UNL     1      48.367   7.972  15.918  0.00  0.00    +0.000 HD
BRANCH  21  24
ATOM     24  C   UNL     1      50.406   6.996  17.080  0.00  0.00    +0.000 A 
ATOM     25  C   UNL     1      51.186   7.628  18.038  0.00  0.00    +0.000 A 
ATOM     26  S   UNL     1      51.126   6.875  19.568  0.00  0.00    +0.000 S 
ATOM     27  C   UNL     1      50.020   5.707  19.012  0.00  0.00    +0.000 A 
ATOM     28  N   UNL     1      49.530   4.757  19.848  0.00  0.00    +0.000 NA
ATOM     29  C   UNL     1      48.675   3.954  19.305  0.00  0.00    +0.000 A 
ATOM     30  N   UNL     1      48.262   3.997  17.990  0.00  0.00    +0.000 N 
ATOM     31  C   UNL     1      47.304   3.036  17.485  0.00  0.00    +0.000 C 
ATOM     32  C   UNL     1      48.771   4.934  17.096  0.00  0.00    +0.000 A 
ATOM     33  O   UNL     1      48.465   4.951  15.906  0.00  0.00    +0.000 OA
ATOM     34  C   UNL     1      49.719   5.871  17.674  0.00  0.00    +0.000 A 
ENDBRANCH  21  24
ENDBRANCH   2  20
TORSDOF 6
ENDMDL
MODEL 4
REMARK VINA RESULT:    -7.413      2.400      3.486
REMARK INTER + INTRA:         -11.241
REMARK INTER:                  -9.967
REMARK INTRA:                  -1.274
REMARK UNBOUND:                -1.227
REMARK  Name = 
REMARK  8 active torsions:
REMARK  status: ('A' for Active; 'I' for Inactive)
REMARK    1  A    between atoms: C_1  and  C_2
REMARK    2  A    between atoms: C_2  and  N_3
REMARK    3  A    between atoms: C_2  and  C_17
REMARK    4  A    between atoms: C_4  and  C_6
REMARK    5  A    between atoms: N_12  and  C_13
REMARK    6  A    between atoms: C_20  and  C_21
REMARK    7  A    between atoms: C_21  and  N_22
REMARK    8  A    between atoms: C_23  and  C_25
REMARK                            x       y       z     vdW  Elec       q    Type
REMARK                         _______ _______ _______ _____ _____    ______ ____
ROOT
ATOM      1  C   UNL     1      47.934   3.076  15.719  0.00  0.00    +0.000 C 
ATOM      2  C   UNL     1      47.188   4.411  15.767  0.00  0.00    +0.000 C 
ENDROOT
BRANCH   2   3
ATOM      3  C   UNL     1      46.773   4.887  14.384  0.00  0.00    +0.000 A 
ATOM      4  C   UNL     1      45.610   4.369  13.794  0.00  0.00    +0.000 A 
ATOM      5  C   UNL     1      45.196   4.801  12.530  0.00  0.00    +0.000 A 
ATOM      6  C   UNL     1      45.934   5.758  11.826  0.00  0.00    +0.000 A 
ATOM      7  C   UNL     1      47.084   6.294  12.419  0.00  0.00    +0.000 A 
ATOM      8  C   UNL     1      47.501   5.860  13.682  0.00  0.00    +0.000 A 
BRANCH   6   9
ATOM      9  C   UNL     1      45.494   6.209  10.459  0.00  0.00    +0.000 C 
BRANCH   9  10
ATOM     10  N   UNL     1      45.883   5.284   9.427  0.00  0.00    +0.000 N 
ATOM     11  C   UNL     1      44.988   4.381   8.902  0.00  0.00    +0.000 C 
ATOM     12  O   UNL     1      43.846   4.236   9.333  0.00  0.00    +0.000 OA
ATOM     13  H   UNL     1      46.752   5.405   8.912  0.00  0.00    +0.000 HD
BRANCH  11  14
ATOM     14  C   UNL     1      45.551   3.507   7.775  0.00  0.00    +0.000 C 
ATOM     15  C   UNL     1      45.989   2.145   8.280  0.00  0.00    +0.000 C 
ATOM     16  C   UNL     1      46.942   1.676   7.198  0.00  0.00    +0.000 C 
ATOM     17  C   UNL     1      47.546   2.952   6.630  0.00  0.00    +0.000 C 
ATOM     18  N   UNL     1      46.810   4.072   7.226  0.00  0.00    +0.000 NA
ATOM     19  H   UNL     1      46.585   4.768   6.514  0.00  0.00    +0.000 HD
ENDBRANCH  11  14
ENDBRANCH   9  10
ENDBRANCH   6   9
ENDBRANCH   2   3
BRANCH   2  20
ATOM     20  N   UNL     1      47.998   5.429  16.406  0.00  0.00    +0.000 N 
ATOM     21  C   UNL     1      47.926   5.715  17.744  0.00  0.00    +0.000 C 
ATOM     22  O   UNL     1      47.079   5.223  18.482  0.00  0.00    +0.000 OA
ATOM     23  H   UNL     1      48.812   5.738  15.888  0.00  0.00    +0.000 HD
BRANCH  21  24
ATOM     24  C   UNL     1      48.897   6.700  18.239  0.00  0.00    +0.000 A 
ATOM     25  C   UNL     1      48.455   7.834  18.905  0.00  0.00    +0.000 A 
ATOM     26  S   UNL     1      49.720   8.869  19.395  0.00  0.00    +0.000 S 
ATOM     27  C   UNL     1      50.901   7.813  18.774  0.00  0.00    +0.000 A 
ATOM     28  N   UNL     1      52.222   8.098  18.892  0.00  0.00    +0.000 NA
ATOM     29  C   UNL     1      53.010   7.195  18.406  0.00  0.00    +0.000 A 
ATOM     30  N   UNL     1      52.607   6.026  17.795  0.00  0.00    +0.000 N 
ATOM     31  C   UNL     1      53.581   5.090  17.276  0.00  0.00    +0.000 C 
ATOM     32  C   UNL     1      51.260   5.720  17.625  0.00  0.00    +0.000 A 
ATOM     33  O   UNL     1      50.878   4.716  17.029  0.00  0.00    +0.000 OA
ATOM     34  C   UNL     1      50.341   6.699  18.179  0.00  0.00    +0.000 A 
ENDBRANCH  21  24
ENDBRANCH   2  20
TORSDOF 6
ENDMDL
MODEL 5
REMARK VINA RESULT:    -7.255      3.189      3.831
REMARK INTER + INTRA:         -11.027
REMARK INTER:                 -10.650
REMARK INTRA:                  -0.378
REMARK UNBOUND:                -1.227
REMARK  Name = 
REMARK  8 active torsions:
REMARK  status: ('A' for Active; 'I' for Inactive)
REMARK    1  A    between atoms: C_1  and  C_2
REMARK    2  A    between atoms: C_2  and  N_3
REMARK    3  A    between atoms: C_2  and  C_17
REMARK    4  A    between atoms: C_4  and  C_6
REMARK    5  A    between atoms: N_12  and  C_13
REMARK    6  A    between atoms: C_20  and  C_21
REMARK    7  A    between atoms: C_21  and  N_22
REMARK    8  A    between atoms: C_23  and  C_25
REMARK                            x       y       z     vdW  Elec       q    Type
REMARK                         _______ _______ _______ _____ _____    ______ ____
ROOT
ATOM      1  C   UNL     1      47.546   3.487  15.212  0.00  0.00    +0.000 C 
ATOM      2  C   UNL     1      46.704   4.747  15.006  0.00  0.00    +0.000 C 
ENDROOT
BRANCH   2   3
ATOM      3  C   UNL     1      45.913   4.703  13.708  0.00  0.00    +0.000 A 
ATOM      4  C   UNL     1      45.905   3.529  12.941  0.00  0.00    +0.000 A 
ATOM      5  C   UNL     1      45.173   3.456  11.752  0.00  0.00    +0.000 A 
ATOM      6  C   UNL     1      44.435   4.554  11.300  0.00  0.00    +0.000 A 
ATOM      7  C   UNL     1      44.422   5.722  12.072  0.00  0.00    +0.000 A 
ATOM      8  C   UNL     1      45.156   5.797  13.260  0.00  0.00    +0.000 A 
BRANCH   6   9
ATOM      9  C   UNL     1      43.660   4.478  10.011  0.00  0.00    +0.000 C 
BRANCH   9  10
ATOM     10  N   UNL     1      44.315   3.655   9.028  0.00  0.00    +0.000 N 
ATOM     11  C   UNL     1      45.441   4.089   8.366  0.00  0.00    +0.000 C 
ATOM     12  O   UNL     1      45.901   5.222   8.491  0.00  0.00    +0.000 OA
ATOM     13  H   UNL     1      44.101   2.664   8.945  0.00  0.00    +0.000 HD
BRANCH  11  14
ATOM     14  C   UNL     1      46.042   3.068   7.393  0.00  0.00    +0.000 C 
ATOM     15  C   UNL     1      46.272   1.723   8.055  0.00  0.00    +0.000 C 
ATOM     16  C   UNL     1      47.294   1.071   7.144  0.00  0.00    +0.000 C 
ATOM     17  C   UNL     1      48.092   2.229   6.560  0.00  0.00    +0.000 C 
ATOM     18  N   UNL     1      47.410   3.462   6.968  0.00  0.00    +0.000 NA
ATOM     19  H   UNL     1      47.345   4.109   6.181  0.00  0.00    +0.000 HD
ENDBRANCH  11  14
ENDBRANCH   9  10
ENDBRANCH   6   9
ENDBRANCH   2   3
BRANCH   2  20
ATOM     20  N   UNL     1      47.539   5.931  15.023  0.00  0.00    +0.000 N 
ATOM     21  C   UNL     1      48.329   6.308  13.970  0.00  0.00    +0.000 C 
ATOM     22  O   UNL     1      48.493   5.604  12.979  0.00  0.00    +0.000 OA
ATOM     23  H   UNL     1      47.317   6.620  15.733  0.00  0.00    +0.000 HD
BRANCH  21  24
ATOM     24  C   UNL     1      49.024   7.593  14.120  0.00  0.00    +0.000 A 
ATOM     25  C   UNL     1      48.681   8.666  13.310  0.00  0.00    +0.000 A 
ATOM     26  S   UNL     1      49.602  10.069  13.616  0.00  0.00    +0.000 S 
ATOM     27  C   UNL     1      50.456   9.303  14.872  0.00  0.00    +0.000 A 
ATOM     28  N   UNL     1      51.396   9.973  15.585  0.00  0.00    +0.000 NA
ATOM     29  C   UNL     1      51.945   9.282  16.531  0.00  0.00    +0.000 A 
ATOM     30  N   UNL     1      51.654   7.969  16.833  0.00  0.00    +0.000 N 
ATOM     31  C   UNL     1      52.341   7.289  17.910  0.00  0.00    +0.000 C 
ATOM     32  C   UNL     1      50.722   7.241  16.099  0.00  0.00    +0.000 A 
ATOM     33  O   UNL     1      50.493   6.053  16.311  0.00  0.00    +0.000 OA
ATOM     34  C   UNL     1      50.066   7.989  15.041  0.00  0.00    +0.000 A 
ENDBRANCH  21  24
ENDBRANCH   2  20
TORSDOF 6
ENDMDL
MODEL 6
REMARK VINA RESULT:    -6.613      3.042      9.747
REMARK INTER + INTRA:         -10.159
REMARK INTER:                  -9.183
REMARK INTRA:                  -0.977
REMARK UNBOUND:                -1.227
REMARK  Name = 
REMARK  8 active torsions:
REMARK  status: ('A' for Active; 'I' for Inactive)
REMARK    1  A    between atoms: C_1  and  C_2
REMARK    2  A    between atoms: C_2  and  N_3
REMARK    3  A    between atoms: C_2  and  C_17
REMARK    4  A    between atoms: C_4  and  C_6
REMARK    5  A    between atoms: N_12  and  C_13
REMARK    6  A    between atoms: C_20  and  C_21
REMARK    7  A    between atoms: C_21  and  N_22
REMARK    8  A    between atoms: C_23  and  C_25
REMARK                            x       y       z     vdW  Elec       q    Type
REMARK                         _______ _______ _______ _____ _____    ______ ____
ROOT
ATOM      1  C   UNL     1      48.577   7.892  11.393  0.00  0.00    +0.000 C 
ATOM      2  C   UNL     1      47.436   7.795  12.408  0.00  0.00    +0.000 C 
ENDROOT
BRANCH   2   3
ATOM      3  C   UNL     1      47.938   7.844  13.842  0.00  0.00    +0.000 A 
ATOM      4  C   UNL     1      47.873   9.048  14.558  0.00  0.00    +0.000 A 
ATOM      5  C   UNL     1      48.312   9.117  15.884  0.00  0.00    +0.000 A 
ATOM      6  C   UNL     1      48.829   7.986  16.524  0.00  0.00    +0.000 A 
ATOM      7  C   UNL     1      48.876   6.775  15.821  0.00  0.00    +0.000 A 
ATOM      8  C   UNL     1      48.440   6.706  14.494  0.00  0.00    +0.000 A 
BRANCH   6   9
ATOM      9  C   UNL     1      49.316   8.066  17.947  0.00  0.00    +0.000 C 
BRANCH   9  10
ATOM     10  N   UNL     1      50.521   7.307  18.155  0.00  0.00    +0.000 N 
ATOM     11  C   UNL     1      50.493   6.072  18.761  0.00  0.00    +0.000 C 
ATOM     12  O   UNL     1      49.475   5.582  19.246  0.00  0.00    +0.000 OA
ATOM     13  H   UNL     1      51.386   7.554  17.681  0.00  0.00    +0.000 HD
BRANCH  11  14
ATOM     14  C   UNL     1      51.856   5.377  18.855  0.00  0.00    +0.000 C 
ATOM     15  C   UNL     1      52.509   5.225  17.495  0.00  0.00    +0.000 C 
ATOM     16  C   UNL     1      53.517   4.117  17.728  0.00  0.00    +0.000 C 
ATOM     17  C   UNL     1      52.904   3.256  18.824  0.00  0.00    +0.000 C 
ATOM     18  N   UNL     1      51.720   3.970  19.312  0.00  0.00    +0.000 NA
ATOM     19  H   UNL     1      51.687   3.948  20.332  0.00  0.00    +0.000 HD
ENDBRANCH  11  14
ENDBRANCH   9  10
ENDBRANCH   6   9
ENDBRANCH   2   3
BRANCH   2  20
ATOM     20  N   UNL     1      46.669   6.583  12.205  0.00  0.00    +0.000 N 
ATOM     21  C   UNL     1      45.406   6.574  11.673  0.00  0.00    +0.000 C 
ATOM     22  O   UNL     1      44.775   7.601  11.448  0.00  0.00    +0.000 OA
ATOM     23  H   UNL     1      47.196   5.718  12.215  0.00  0.00    +0.000 HD
BRANCH  21  24
ATOM     24  C   UNL     1      44.822   5.247  11.437  0.00  0.00    +0.000 A 
ATOM     25  C   UNL     1      43.994   4.675  12.392  0.00  0.00    +0.000 A 
ATOM     26  S   UNL     1      43.420   3.129  11.954  0.00  0.00    +0.000 S 
ATOM     27  C   UNL     1      44.223   3.194  10.454  0.00  0.00    +0.000 A 
ATOM     28  N   UNL     1      44.119   2.176   9.564  0.00  0.00    +0.000 NA
ATOM     29  C   UNL     1      44.752   2.369   8.453  0.00  0.00    +0.000 A 
ATOM     30  N   UNL     1      45.497   3.487   8.141  0.00  0.00    +0.000 N 
ATOM     31  C   UNL     1      46.174   3.592   6.867  0.00  0.00    +0.000 C 
ATOM     32  C   UNL     1      45.653   4.534   9.045  0.00  0.00    +0.000 A 
ATOM     33  O   UNL     1      46.363   5.510   8.813  0.00  0.00    +0.000 OA
ATOM     34  C   UNL     1      44.938   4.365  10.298  0.00  0.00    +0.000 A 
ENDBRANCH  21  24
ENDBRANCH   2  20
TORSDOF 6
ENDMDL
MODEL 7
REMARK VINA RESULT:    -6.561      4.192      5.679
REMARK INTER + INTRA:         -10.090
REMARK INTER:                  -8.917
REMARK INTRA:                  -1.173
REMARK UNBOUND:                -1.227
REMARK  Name = 
REMARK  8 active torsions:
REMARK  status: ('A' for Active; 'I' for Inactive)
REMARK    1  A    between atoms: C_1  and  C_2
REMARK    2  A    between atoms: C_2  and  N_3
REMARK    3  A    between atoms: C_2  and  C_17
REMARK    4  A    between atoms: C_4  and  C_6
REMARK    5  A    between atoms: N_12  and  C_13
REMARK    6  A    between atoms: C_20  and  C_21
REMARK    7  A    between atoms: C_21  and  N_22
REMARK    8  A    between atoms: C_23  and  C_25
REMARK                            x       y       z     vdW  Elec       q    Type
REMARK                         _______ _______ _______ _____ _____    ______ ____
ROOT
ATOM      1  C   UNL     1      49.080   6.462  15.839  0.00  0.00    +0.000 C 
ATOM      2  C   UNL     1      48.834   7.319  14.595  0.00  0.00    +0.000 C 
ENDROOT
BRANCH   2   3
ATOM      3  C   UNL     1      47.712   6.767  13.731  0.00  0.00    +0.000 A 
ATOM      4  C   UNL     1      47.174   5.503  14.017  0.00  0.00    +0.000 A 
ATOM      5  C   UNL     1      46.131   4.979  13.248  0.00  0.00    +0.000 A 
ATOM      6  C   UNL     1      45.601   5.702  12.175  0.00  0.00    +0.000 A 
ATOM      7  C   UNL     1      46.120   6.974  11.897  0.00  0.00    +0.000 A 
ATOM      8  C   UNL     1      47.166   7.497  12.664  0.00  0.00    +0.000 A 
BRANCH   6   9
ATOM      9  C   UNL     1      44.488   5.129  11.339  0.00  0.00    +0.000 C 
BRANCH   9  10
ATOM     10  N   UNL     1      44.964   4.588  10.093  0.00  0.00    +0.000 N 
ATOM     11  C   UNL     1      44.538   3.363   9.634  0.00  0.00    +0.000 C 
ATOM     12  O   UNL     1      43.813   2.615  10.286  0.00  0.00    +0.000 OA
ATOM     13  H   UNL     1      45.456   5.173   9.420  0.00  0.00    +0.000 HD
BRANCH  11  14
ATOM     14  C   UNL     1      45.102   2.963   8.266  0.00  0.00    +0.000 C 
ATOM     15  C   UNL     1      46.071   1.801   8.370  0.00  0.00    +0.000 C 
ATOM     16  C   UNL     1      46.866   1.909   7.084  0.00  0.00    +0.000 C 
ATOM     17  C   UNL     1      46.866   3.394   6.749  0.00  0.00    +0.000 C 
ATOM     18  N   UNL     1      45.946   4.042   7.689  0.00  0.00    +0.000 NA
ATOM     19  H   UNL     1      45.350   4.711   7.200  0.00  0.00    +0.000 HD
ENDBRANCH  11  14
ENDBRANCH   9  10
ENDBRANCH   6   9
ENDBRANCH   2   3
BRANCH   2  20
ATOM     20  N   UNL     1      50.043   7.433  13.804  0.00  0.00    +0.000 N 
ATOM     21  C   UNL     1      50.514   8.626  13.324  0.00  0.00    +0.000 C 
ATOM     22  O   UNL     1      49.883   9.674  13.415  0.00  0.00    +0.000 OA
ATOM     23  H   UNL     1      50.675   6.643  13.843  0.00  0.00    +0.000 HD
BRANCH  21  24
ATOM     24  C   UNL     1      51.810   8.570  12.634  0.00  0.00    +0.000 A 
ATOM     25  C   UNL     1      51.895   8.902  11.290  0.00  0.00    +0.000 A 
ATOM     26  S   UNL     1      53.474   8.765  10.655  0.00  0.00    +0.000 S 
ATOM     27  C   UNL     1      54.102   8.302  12.168  0.00  0.00    +0.000 A 
ATOM     28  N   UNL     1      55.427   8.056  12.326  0.00  0.00    +0.000 NA
ATOM     29  C   UNL     1      55.774   7.746  13.533  0.00  0.00    +0.000 A 
ATOM     30  N   UNL     1      54.918   7.644  14.609  0.00  0.00    +0.000 N 
ATOM     31  C   UNL     1      55.417   7.277  15.917  0.00  0.00    +0.000 C 
ATOM     32  C   UNL     1      53.549   7.854  14.475  0.00  0.00    +0.000 A 
ATOM     33  O   UNL     1      52.761   7.707  15.406  0.00  0.00    +0.000 OA
ATOM     34  C   UNL     1      53.121   8.228  13.138  0.00  0.00    +0.000 A 
ENDBRANCH  21  24
ENDBRANCH   2  20
TORSDOF 6
ENDMDL
MODEL 8
REMARK VINA RESULT:    -6.466      2.568      3.555
REMARK INTER + INTRA:          -9.962
REMARK INTER:                  -8.667
REMARK INTRA:                  -1.295
REMARK UNBOUND:                -1.227
REMARK  Name = 
REMARK  8 active torsions:
REMARK  status: ('A' for Active; 'I' for Inactive)
REMARK    1  A    between atoms: C_1  and  C_2
REMARK    2  A    between atoms: C_2  and  N_3
REMARK    3  A    between atoms: C_2  and  C_17
REMARK    4  A    between atoms: C_4  and  C_6
REMARK    5  A    between atoms: N_12  and  C_13
REMARK    6  A    between atoms: C_20  and  C_21
REMARK    7  A    between atoms: C_21  and  N_22
REMARK    8  A    between atoms: C_23  and  C_25
REMARK                            x       y       z     vdW  Elec       q    Type
REMARK                         _______ _______ _______ _____ _____    ______ ____
ROOT
ATOM      1  C   UNL     1      47.450   3.526  15.850  0.00  0.00    +0.000 C 
ATOM      2  C   UNL     1      47.372   5.025  15.555  0.00  0.00    +0.000 C 
ENDROOT
BRANCH   2   3
ATOM      3  C   UNL     1      46.892   5.308  14.141  0.00  0.00    +0.000 A 
ATOM      4  C   UNL     1      45.965   4.444  13.538  0.00  0.00    +0.000 A 
ATOM      5  C   UNL     1      45.494   4.690  12.245  0.00  0.00    +0.000 A 
ATOM      6  C   UNL     1      45.939   5.803  11.523  0.00  0.00    +0.000 A 
ATOM      7  C   UNL     1      46.847   6.680  12.128  0.00  0.00    +0.000 A 
ATOM      8  C   UNL     1      47.321   6.433  13.420  0.00  0.00    +0.000 A 
BRANCH   6   9
ATOM      9  C   UNL     1      45.442   6.057  10.124  0.00  0.00    +0.000 C 
BRANCH   9  10
ATOM     10  N   UNL     1      45.939   5.087   9.184  0.00  0.00    +0.000 N 
ATOM     11  C   UNL     1      45.095   4.198   8.559  0.00  0.00    +0.000 C 
ATOM     12  O   UNL     1      43.898   4.104   8.825  0.00  0.00    +0.000 OA
ATOM     13  H   UNL     1      46.877   5.162   8.797  0.00  0.00    +0.000 HD
BRANCH  11  14
ATOM     14  C   UNL     1      45.780   3.270   7.549  0.00  0.00    +0.000 C 
ATOM     15  C   UNL     1      46.162   1.940   8.170  0.00  0.00    +0.000 C 
ATOM     16  C   UNL     1      47.229   1.422   7.226  0.00  0.00    +0.000 C 
ATOM     17  C   UNL     1      47.890   2.671   6.661  0.00  0.00    +0.000 C 
ATOM     18  N   UNL     1      47.092   3.815   7.113  0.00  0.00    +0.000 NA
ATOM     19  H   UNL     1      46.946   4.472   6.346  0.00  0.00    +0.000 HD
ENDBRANCH  11  14
ENDBRANCH   9  10
ENDBRANCH   6   9
ENDBRANCH   2   3
BRANCH   2  20
ATOM     20  N   UNL     1      48.659   5.657  15.765  0.00  0.00    +0.000 N 
ATOM     21  C   UNL     1      49.093   6.087  16.990  0.00  0.00    +0.000 C 
ATOM     22  O   UNL     1      48.375   6.089  17.985  0.00  0.00    +0.000 OA
ATOM     23  H   UNL     1      49.341   5.529  15.027  0.00  0.00    +0.000 HD
BRANCH  21  24
ATOM     24  C   UNL     1      50.467   6.605  17.036  0.00  0.00    +0.000 A 
ATOM     25  C   UNL     1      51.424   5.964  17.810  0.00  0.00    +0.000 A 
ATOM     26  S   UNL     1      52.956   6.713  17.752  0.00  0.00    +0.000 S 
ATOM     27  C   UNL     1      52.402   7.891  16.656  0.00  0.00    +0.000 A 
ATOM     28  N   UNL     1      53.240   8.841  16.171  0.00  0.00    +0.000 NA
ATOM     29  C   UNL     1      52.697   9.652  15.323  0.00  0.00    +0.000 A 
ATOM     30  N   UNL     1      51.381   9.616  14.912  0.00  0.00    +0.000 N 
ATOM     31  C   UNL     1      50.877  10.585  13.962  0.00  0.00    +0.000 C 
ATOM     32  C   UNL     1      50.486   8.678  15.416  0.00  0.00    +0.000 A 
ATOM     33  O   UNL     1      49.295   8.667  15.112  0.00  0.00    +0.000 OA
ATOM     34  C   UNL     1      51.063   7.733  16.356  0.00  0.00    +0.000 A 
ENDBRANCH  21  24
ENDBRANCH   2  20
TORSDOF 6
ENDMDL
MODEL 9
REMARK VINA RESULT:    -5.413      9.980     11.197
REMARK INTER + INTRA:          -8.539
REMARK INTER:                  -7.189
REMARK INTRA:                  -1.350
REMARK UNBOUND:                -1.227
REMARK  Name = 
REMARK  8 active torsions:
REMARK  status: ('A' for Active; 'I' for Inactive)
REMARK    1  A    between atoms: C_1  and  C_2
REMARK    2  A    between atoms: C_2  and  N_3
REMARK    3  A    between atoms: C_2  and  C_17
REMARK    4  A    between atoms: C_4  and  C_6
REMARK    5  A    between atoms: N_12  and  C_13
REMARK    6  A    between atoms: C_20  and  C_21
REMARK    7  A    between atoms: C_21  and  N_22
REMARK    8  A    between atoms: C_23  and  C_25
REMARK                            x       y       z     vdW  Elec       q    Type
REMARK                         _______ _______ _______ _____ _____    ______ ____
ROOT
ATOM      1  C   UNL     1      41.174  -3.126  20.075  0.00  0.00    +0.000 C 
ATOM      2  C   UNL     1      40.094  -2.755  19.057  0.00  0.00    +0.000 C 
ENDROOT
BRANCH   2   3
ATOM      3  C   UNL     1      40.450  -3.211  17.651  0.00  0.00    +0.000 A 
ATOM      4  C   UNL     1      39.545  -2.991  16.602  0.00  0.00    +0.000 A 
ATOM      5  C   UNL     1      39.854  -3.385  15.296  0.00  0.00    +0.000 A 
ATOM      6  C   UNL     1      41.071  -4.010  15.008  0.00  0.00    +0.000 A 
ATOM      7  C   UNL     1      41.988  -4.213  16.048  0.00  0.00    +0.000 A 
ATOM      8  C   UNL     1      41.678  -3.822  17.355  0.00  0.00    +0.000 A 
BRANCH   6   9
ATOM      9  C   UNL     1      41.395  -4.448  13.605  0.00  0.00    +0.000 C 
BRANCH   9  10
ATOM     10  N   UNL     1      40.547  -3.817  12.627  0.00  0.00    +0.000 N 
ATOM     11  C   UNL     1      40.913  -2.640  12.015  0.00  0.00    +0.000 C 
ATOM     12  O   UNL     1      41.920  -2.006  12.321  0.00  0.00    +0.000 OA
ATOM     13  H   UNL     1      39.766  -4.316  12.208  0.00  0.00    +0.000 HD
BRANCH  11  14
ATOM     14  C   UNL     1      39.920  -2.134  10.962  0.00  0.00    +0.000 C 
ATOM     15  C   UNL     1      38.556  -1.850  11.561  0.00  0.00    +0.000 C 
ATOM     16  C   UNL     1      37.644  -1.878  10.349  0.00  0.00    +0.000 C 
ATOM     17  C   UNL     1      38.308  -2.850   9.384  0.00  0.00    +0.000 C 
ATOM     18  N   UNL     1      39.621  -3.179   9.949  0.00  0.00    +0.000 NA
ATOM     19  H   UNL     1      40.337  -3.158   9.222  0.00  0.00    +0.000 HD
ENDBRANCH  11  14
ENDBRANCH   9  10
ENDBRANCH   6   9
ENDBRANCH   2   3
BRANCH   2  20
ATOM     20  N   UNL     1      39.857  -1.326  19.057  0.00  0.00    +0.000 N 
ATOM     21  C   UNL     1      39.079  -0.694  19.991  0.00  0.00    +0.000 C 
ATOM     22  O   UNL     1      38.416  -1.304  20.824  0.00  0.00    +0.000 OA
ATOM     23  H   UNL     1      40.501  -0.770  18.507  0.00  0.00    +0.000 HD
BRANCH  21  24
ATOM     24  C   UNL     1      39.039   0.771  19.902  0.00  0.00    +0.000 A 
ATOM     25  C   UNL     1      39.567   1.543  20.928  0.00  0.00    +0.000 A 
ATOM     26  S   UNL     1      39.418   3.222  20.660  0.00  0.00    +0.000 S 
ATOM     27  C   UNL     1      38.685   2.972  19.144  0.00  0.00    +0.000 A 
ATOM     28  N   UNL     1      38.324   4.021  18.363  0.00  0.00    +0.000 NA
ATOM     29  C   UNL     1      37.808   3.689  17.225  0.00  0.00    +0.000 A 
ATOM     30  N   UNL     1      37.602   2.398  16.787  0.00  0.00    +0.000 N 
ATOM     31  C   UNL     1      37.004   2.143  15.493  0.00  0.00    +0.000 C 
ATOM     32  C   UNL     1      37.927   1.299  17.577  0.00  0.00    +0.000 A 
ATOM     33  O   UNL     1      37.694   0.143  17.233  0.00  0.00    +0.000 OA
ATOM     34  C   UNL     1      38.531   1.630  18.856  0.00  0.00    +0.000 A 
ENDBRANCH  21  24
ENDBRANCH   2  20
TORSDOF 6
ENDMDL
