MODEL 1
REMARK VINA RESULT:    -8.297      0.000      0.000
REMARK INTER + INTRA:         -13.605
REMARK INTER:                 -12.178
REMARK INTRA:                  -1.427
REMARK UNBOUND:                -1.427
REMARK  Name = 
REMARK  9 active torsions:
REMARK  status: ('A' for Active; 'I' for Inactive)
REMARK    1  A    between atoms: C_1  and  O_2
REMARK    2  A    between atoms: O_2  and  C_3
REMARK    3  A    between atoms: C_5  and  C_6
REMARK    4  A    between atoms: C_6  and  O_7
REMARK    5  A    between atoms: O_7  and  C_8
REMARK    6  A    between atoms: C_8  and  C_9
REMARK    7  A    between atoms: C_17  and  C_18
REMARK    8  A    between atoms: C_18  and  N_19
REMARK    9  A    between atoms: C_20  and  C_22
REMARK                            x       y       z     vdW  Elec       q    Type
REMARK                         _______ _______ _______ _____ _____    ______ ____
ROOT
ATOM      1  C   UNL     1      46.596   5.053  12.969  0.00  0.00    +0.000 A 
ATOM      2  C   UNL     1      45.519   4.431  12.328  0.00  0.00    +0.000 A 
ATOM      3  C   UNL     1      44.584   5.177  11.595  0.00  0.00    +0.000 A 
ATOM      4  C   UNL     1      44.712   6.567  11.542  0.00  0.00    +0.000 A 
ATOM      5  C   UNL     1      45.777   7.198  12.185  0.00  0.00    +0.000 A 
ATOM      6  C   UNL     1      46.729   6.452  12.903  0.00  0.00    +0.000 A 
ENDROOT
BRANCH   1   8
ATOM      7  C   UNL     1      47.090   3.717  14.871  0.00  0.00    +0.000 C 
ATOM      8  O   UNL     1      47.542   4.372  13.689  0.00  0.00    +0.000 OA
ENDBRANCH   1   8
BRANCH   3   9
ATOM      9  C   UNL     1      43.505   4.477  10.808  0.00  0.00    +0.000 C 
BRANCH   9  10
ATOM     10  O   UNL     1      44.057   3.482   9.947  0.00  0.00    +0.000 OA
BRANCH  10  11
ATOM     11  C   UNL     1      44.534   4.013   8.709  0.00  0.00    +0.000 C 
BRANCH  11  12
ATOM     12  C   UNL     1      45.551   3.068   8.147  0.00  0.00    +0.000 A 
ATOM     13  C   UNL     1      46.512   3.501   7.229  0.00  0.00    +0.000 A 
ATOM     14  C   UNL     1      47.448   2.600   6.731  0.00  0.00    +0.000 A 
ATOM     15  C   UNL     1      47.397   1.290   7.180  0.00  0.00    +0.000 A 
ATOM     16  N   UNL     1      46.495   0.836   8.078  0.00  0.00    +0.000 NA
ATOM     17  C   UNL     1      45.594   1.734   8.538  0.00  0.00    +0.000 A 
ENDBRANCH  11  12
ENDBRANCH  10  11
ENDBRANCH   9  10
ENDBRANCH   3   9
BRANCH   6  18
ATOM     18  C   UNL     1      47.901   7.184  13.515  0.00  0.00    +0.000 C 
BRANCH  18  19
ATOM     19  N   UNL     1      47.873   7.091  14.958  0.00  0.00    +0.000 N 
ATOM     20  C   UNL     1      49.016   6.921  15.698  0.00  0.00    +0.000 C 
ATOM     21  O   UNL     1      50.101   6.664  15.185  0.00  0.00    +0.000 OA
ATOM     22  H   UNL     1      47.054   7.491  15.403  0.00  0.00    +0.000 HD
BRANCH  20  23
ATOM     23  C   UNL     1      48.869   7.021  17.158  0.00  0.00    +0.000 A 
ATOM     24  C   UNL     1      48.529   8.237  17.737  0.00  0.00    +0.000 A 
ATOM     25  S   UNL     1      48.376   8.166  19.435  0.00  0.00    +0.000 S 
ATOM     26  C   UNL     1      48.714   6.498  19.451  0.00  0.00    +0.000 A 
ATOM     27  N   UNL     1      48.696   5.790  20.611  0.00  0.00    +0.000 NA
ATOM     28  C   UNL     1      48.924   4.527  20.470  0.00  0.00    +0.000 A 
ATOM     29  N   UNL     1      49.185   3.911  19.273  0.00  0.00    +0.000 N 
ATOM     30  C   UNL     1      49.287   4.599  18.089  0.00  0.00    +0.000 A 
ATOM     31  O   UNL     1      49.645   4.033  17.056  0.00  0.00    +0.000 OA
ATOM     32  C   UNL     1      48.982   6.011  18.182  0.00  0.00    +0.000 A 
ATOM     33  H   UNL     1      49.388   2.923  19.235  0.00  0.00    +0.000 HD
ENDBRANCH  20  23
ENDBRANCH  18  19
ENDBRANCH   6  18
TORSDOF 8
ENDMDL
MODEL 2
REMARK VINA RESULT:    -7.937      1.410      2.121
REMARK INTER + INTRA:         -13.077
REMARK INTER:                 -11.834
REMARK INTRA:                  -1.243
REMARK UNBOUND:                -1.427
REMARK  Name = 
REMARK  9 active torsions:
REMARK  status: ('A' for Active; 'I' for Inactive)
REMARK    1  A    between atoms: C_1  and  O_2
REMARK    2  A    between atoms: O_2  and  C_3
REMARK    3  A    between atoms: C_5  and  C_6
REMARK    4  A    between atoms: C_6  and  O_7
REMARK    5  A    between atoms: O_7  and  C_8
REMARK    6  A    between atoms: C_8  and  C_9
REMARK    7  A    between atoms: C_17  and  C_18
REMARK    8  A    between atoms: C_18  and  N_19
REMARK    9  A    between atoms: C_20  and  C_22
REMARK                            x       y       z     vdW  Elec       q    Type
REMARK                         _______ _______ _______ _____ _____    ______ ____
ROOT
ATOM      1  C   UNL     1      45.516   7.373  12.034  0.00  0.00    +0.000 A 
ATOM      2  C   UNL     1      44.553   6.580  11.398  0.00  0.00    +0.000 A 
ATOM      3  C   UNL     1      44.569   5.183  11.521  0.00  0.00    +0.000 A 
ATOM      4  C   UNL     1      45.590   4.576  12.257  0.00  0.00    +0.000 A 
ATOM      5  C   UNL     1      46.559   5.356  12.887  0.00  0.00    +0.000 A 
ATOM      6  C   UNL     1      46.534   6.759  12.785  0.00  0.00    +0.000 A 
ENDROOT
BRANCH   1   8
ATOM      7  C   UNL     1      44.454   9.356  11.266  0.00  0.00    +0.000 C 
ATOM      8  O   UNL     1      45.540   8.741  11.954  0.00  0.00    +0.000 OA
ENDBRANCH   1   8
BRANCH   3   9
ATOM      9  C   UNL     1      43.452   4.358  10.935  0.00  0.00    +0.000 C 
BRANCH   9  10
ATOM     10  O   UNL     1      43.947   3.429   9.971  0.00  0.00    +0.000 OA
BRANCH  10  11
ATOM     11  C   UNL     1      44.500   4.060   8.815  0.00  0.00    +0.000 C 
BRANCH  11  12
ATOM     12  C   UNL     1      45.483   3.121   8.186  0.00  0.00    +0.000 A 
ATOM     13  C   UNL     1      46.346   3.549   7.172  0.00  0.00    +0.000 A 
ATOM     14  C   UNL     1      47.253   2.656   6.614  0.00  0.00    +0.000 A 
ATOM     15  C   UNL     1      47.275   1.358   7.099  0.00  0.00    +0.000 A 
ATOM     16  N   UNL     1      46.470   0.909   8.087  0.00  0.00    +0.000 NA
ATOM     17  C   UNL     1      45.593   1.800   8.604  0.00  0.00    +0.000 A 
ENDBRANCH  11  12
ENDBRANCH  10  11
ENDBRANCH   9  10
ENDBRANCH   3   9
BRANCH   6  18
ATOM     18  C   UNL     1      47.567   7.553  13.551  0.00  0.00    +0.000 C 
BRANCH  18  19
ATOM     19  N   UNL     1      47.852   6.935  14.827  0.00  0.00    +0.000 N 
ATOM     20  C   UNL     1      49.125   6.864  15.332  0.00  0.00    +0.000 C 
ATOM     21  O   UNL     1      50.115   7.156  14.667  0.00  0.00    +0.000 OA
ATOM     22  H   UNL     1      47.066   6.874  15.465  0.00  0.00    +0.000 HD
BRANCH  20  23
ATOM     23  C   UNL     1      49.254   6.374  16.712  0.00  0.00    +0.000 A 
ATOM     24  C   UNL     1      49.857   7.172  17.677  0.00  0.00    +0.000 A 
ATOM     25  S   UNL     1      49.898   6.459  19.226  0.00  0.00    +0.000 S 
ATOM     26  C   UNL     1      49.071   5.078  18.673  0.00  0.00    +0.000 A 
ATOM     27  N   UNL     1      48.736   4.073  19.525  0.00  0.00    +0.000 NA
ATOM     28  C   UNL     1      48.071   3.110  18.980  0.00  0.00    +0.000 A 
ATOM     29  N   UNL     1      47.724   3.054  17.655  0.00  0.00    +0.000 N 
ATOM     30  C   UNL     1      48.106   4.009  16.744  0.00  0.00    +0.000 A 
ATOM     31  O   UNL     1      47.885   3.864  15.543  0.00  0.00    +0.000 OA
ATOM     32  C   UNL     1      48.805   5.142  17.315  0.00  0.00    +0.000 A 
ATOM     33  H   UNL     1      47.230   2.256  17.284  0.00  0.00    +0.000 HD
ENDBRANCH  20  23
ENDBRANCH  18  19
ENDBRANCH   6  18
TORSDOF 8
ENDMDL
MODEL 3
REMARK VINA RESULT:    -7.788      2.326      3.167
REMARK INTER + INTRA:         -12.858
REMARK INTER:                 -11.640
REMARK INTRA:                  -1.218
REMARK UNBOUND:                -1.427
REMARK  Name = 
REMARK  9 active torsions:
REMARK  status: ('A' for Active; 'I' for Inactive)
REMARK    1  A    between atoms: C_1  and  O_2
REMARK    2  A    between atoms: O_2  and  C_3
REMARK    3  A    between atoms: C_5  and  C_6
REMARK    4  A    between atoms: C_6  and  O_7
REMARK    5  A    between atoms: O_7  and  C_8
REMARK    6  A    between atoms: C_8  and  C_9
REMARK    7  A    between atoms: C_17  and  C_18
REMARK    8  A    between atoms: C_18  and  N_19
REMARK    9  A    between atoms: C_20  and  C_22
REMARK                            x       y       z     vdW  Elec       q    Type
REMARK                         _______ _______ _______ _____ _____    ______ ____
ROOT
ATOM      1  C   UNL     1      47.192   5.913  13.690  0.00  0.00    +0.000 A 
ATOM      2  C   UNL     1      46.902   6.296  12.375  0.00  0.00    +0.000 A 
ATOM      3  C   UNL     1      46.006   5.558  11.587  0.00  0.00    +0.000 A 
ATOM      4  C   UNL     1      45.429   4.401  12.114  0.00  0.00    +0.000 A 
ATOM      5  C   UNL     1      45.717   4.006  13.420  0.00  0.00    +0.000 A 
ATOM      6  C   UNL     1      46.598   4.753  14.222  0.00  0.00    +0.000 A 
ENDROOT
BRANCH   1   8
ATOM      7  C   UNL     1      49.156   7.238  13.870  0.00  0.00    +0.000 C 
ATOM      8  O   UNL     1      48.051   6.602  14.506  0.00  0.00    +0.000 OA
ENDBRANCH   1   8
BRANCH   3   9
ATOM      9  C   UNL     1      45.612   6.057  10.220  0.00  0.00    +0.000 C 
BRANCH   9  10
ATOM     10  O   UNL     1      46.122   5.208   9.193  0.00  0.00    +0.000 OA
BRANCH  10  11
ATOM     11  C   UNL     1      45.143   4.308   8.672  0.00  0.00    +0.000 C 
BRANCH  11  12
ATOM     12  C   UNL     1      45.851   3.127   8.080  0.00  0.00    +0.000 A 
ATOM     13  C   UNL     1      46.723   3.274   6.997  0.00  0.00    +0.000 A 
ATOM     14  C   UNL     1      47.371   2.159   6.476  0.00  0.00    +0.000 A 
ATOM     15  C   UNL     1      47.131   0.929   7.066  0.00  0.00    +0.000 A 
ATOM     16  N   UNL     1      46.309   0.747   8.123  0.00  0.00    +0.000 NA
ATOM     17  C   UNL     1      45.688   1.849   8.602  0.00  0.00    +0.000 A 
ENDBRANCH  11  12
ENDBRANCH  10  11
ENDBRANCH   9  10
ENDBRANCH   3   9
BRANCH   6  18
ATOM     18  C   UNL     1      46.812   4.317  15.652  0.00  0.00    +0.000 C 
BRANCH  18  19
ATOM     19  N   UNL     1      48.220   4.305  15.984  0.00  0.00    +0.000 N 
ATOM     20  C   UNL     1      48.677   4.652  17.230  0.00  0.00    +0.000 C 
ATOM     21  O   UNL     1      47.951   5.158  18.081  0.00  0.00    +0.000 OA
ATOM     22  H   UNL     1      48.800   3.719  15.393  0.00  0.00    +0.000 HD
BRANCH  20  23
ATOM     23  C   UNL     1      50.106   4.426  17.488  0.00  0.00    +0.000 A 
ATOM     24  C   UNL     1      50.910   5.481  17.905  0.00  0.00    +0.000 A 
ATOM     25  S   UNL     1      52.533   5.035  18.182  0.00  0.00    +0.000 S 
ATOM     26  C   UNL     1      52.210   3.409  17.799  0.00  0.00    +0.000 A 
ATOM     27  N   UNL     1      53.182   2.463  17.883  0.00  0.00    +0.000 NA
ATOM     28  C   UNL     1      52.786   1.264  17.610  0.00  0.00    +0.000 A 
ATOM     29  N   UNL     1      51.508   0.930  17.244  0.00  0.00    +0.000 N 
ATOM     30  C   UNL     1      50.515   1.863  17.073  0.00  0.00    +0.000 A 
ATOM     31  O   UNL     1      49.415   1.543  16.623  0.00  0.00    +0.000 OA
ATOM     32  C   UNL     1      50.891   3.217  17.423  0.00  0.00    +0.000 A 
ATOM     33  H   UNL     1      51.271  -0.023  17.011  0.00  0.00    +0.000 HD
ENDBRANCH  20  23
ENDBRANCH  18  19
ENDBRANCH   6  18
TORSDOF 8
ENDMDL
MODEL 4
REMARK VINA RESULT:    -7.765      1.545      2.333
REMARK INTER + INTRA:         -12.824
REMARK INTER:                 -11.432
REMARK INTRA:                  -1.393
REMARK UNBOUND:                -1.427
REMARK  Name = 
REMARK  9 active torsions:
REMARK  status: ('A' for Active; 'I' for Inactive)
REMARK    1  A    between atoms: C_1  and  O_2
REMARK    2  A    between atoms: O_2  and  C_3
REMARK    3  A    between atoms: C_5  and  C_6
REMARK    4  A    between atoms: C_6  and  O_7
REMARK    5  A    between atoms: O_7  and  C_8
REMARK    6  A    between atoms: C_8  and  C_9
REMARK    7  A    between atoms: C_17  and  C_18
REMARK    8  A    between atoms: C_18  and  N_19
REMARK    9  A    between atoms: C_20  and  C_22
REMARK                            x       y       z     vdW  Elec       q    Type
REMARK                         _______ _______ _______ _____ _____    ______ ____
ROOT
ATOM      1  C   UNL     1      46.703   4.671  13.391  0.00  0.00    +0.000 A 
ATOM      2  C   UNL     1      45.598   4.123  12.730  0.00  0.00    +0.000 A 
ATOM      3  C   UNL     1      44.737   4.928  11.969  0.00  0.00    +0.000 A 
ATOM      4  C   UNL     1      44.968   6.305  11.910  0.00  0.00    +0.000 A 
ATOM      5  C   UNL     1      46.060   6.862  12.572  0.00  0.00    +0.000 A 
ATOM      6  C   UNL     1      46.939   6.056  13.318  0.00  0.00    +0.000 A 
ENDROOT
BRANCH   1   8
ATOM      7  C   UNL     1      47.163   3.593  15.459  0.00  0.00    +0.000 C 
ATOM      8  O   UNL     1      47.581   3.929  14.139  0.00  0.00    +0.000 OA
ENDBRANCH   1   8
BRANCH   3   9
ATOM      9  C   UNL     1      43.629   4.300  11.163  0.00  0.00    +0.000 C 
BRANCH   9  10
ATOM     10  O   UNL     1      44.144   3.368  10.214  0.00  0.00    +0.000 OA
BRANCH  10  11
ATOM     11  C   UNL     1      44.545   3.980   8.987  0.00  0.00    +0.000 C 
BRANCH  11  12
ATOM     12  C   UNL     1      45.521   3.074   8.301  0.00  0.00    +0.000 A 
ATOM     13  C   UNL     1      46.386   3.556   7.314  0.00  0.00    +0.000 A 
ATOM     14  C   UNL     1      47.286   2.691   6.702  0.00  0.00    +0.000 A 
ATOM     15  C   UNL     1      47.299   1.366   7.108  0.00  0.00    +0.000 A 
ATOM     16  N   UNL     1      46.492   0.865   8.068  0.00  0.00    +0.000 NA
ATOM     17  C   UNL     1      45.622   1.729   8.639  0.00  0.00    +0.000 A 
ENDBRANCH  11  12
ENDBRANCH  10  11
ENDBRANCH   9  10
ENDBRANCH   3   9
BRANCH   6  18
ATOM     18  C   UNL     1      48.147   6.706  13.951  0.00  0.00    +0.000 C 
BRANCH  18  19
ATOM     19  N   UNL     1      48.002   6.778  15.389  0.00  0.00    +0.000 N 
ATOM     20  C   UNL     1      49.072   6.633  16.236  0.00  0.00    +0.000 C 
ATOM     21  O   UNL     1      50.175   6.263  15.846  0.00  0.00    +0.000 OA
ATOM     22  H   UNL     1      47.177   7.268  15.718  0.00  0.00    +0.000 HD
BRANCH  20  23
ATOM     23  C   UNL     1      48.819   6.904  17.658  0.00  0.00    +0.000 A 
ATOM     24  C   UNL     1      49.113   5.935  18.610  0.00  0.00    +0.000 A 
ATOM     25  S   UNL     1      48.783   6.428  20.211  0.00  0.00    +0.000 S 
ATOM     26  C   UNL     1      48.278   7.968  19.691  0.00  0.00    +0.000 A 
ATOM     27  N   UNL     1      47.900   8.920  20.585  0.00  0.00    +0.000 NA
ATOM     28  C   UNL     1      47.588  10.055  20.056  0.00  0.00    +0.000 A 
ATOM     29  N   UNL     1      47.604  10.320  18.711  0.00  0.00    +0.000 N 
ATOM     30  C   UNL     1      47.906   9.367  17.769  0.00  0.00    +0.000 A 
ATOM     31  O   UNL     1      47.790   9.604  16.567  0.00  0.00    +0.000 OA
ATOM     32  C   UNL     1      48.321   8.090  18.312  0.00  0.00    +0.000 A 
ATOM     33  H   UNL     1      47.317  11.220  18.358  0.00  0.00    +0.000 HD
ENDBRANCH  20  23
ENDBRANCH  18  19
ENDBRANCH   6  18
TORSDOF 8
ENDMDL
MODEL 5
REMARK VINA RESULT:    -7.371      2.087      2.849
REMARK INTER + INTRA:         -12.245
REMARK INTER:                 -11.224
REMARK INTRA:                  -1.021
REMARK UNBOUND:                -1.427
REMARK  Name = 
REMARK  9 active torsions:
REMARK  status: ('A' for Active; 'I' for Inactive)
REMARK    1  A    between atoms: C_1  and  O_2
REMARK    2  A    between atoms: O_2  and  C_3
REMARK    3  A    between atoms: C_5  and  C_6
REMARK    4  A    between atoms: C_6  and  O_7
REMARK    5  A    between atoms: O_7  and  C_8
REMARK    6  A    between atoms: C_8  and  C_9
REMARK    7  A    between atoms: C_17  and  C_18
REMARK    8  A    between atoms: C_18  and  N_19
REMARK    9  A    between atoms: C_20  and  C_22
REMARK                            x       y       z     vdW  Elec       q    Type
REMARK                         _______ _______ _______ _____ _____    ______ ____
ROOT
ATOM      1  C   UNL     1      45.938   7.519  12.066  0.00  0.00    +0.000 A 
ATOM      2  C   UNL     1      44.953   6.863  11.318  0.00  0.00    +0.000 A 
ATOM      3  C   UNL     1      44.729   5.486  11.467  0.00  0.00    +0.000 A 
ATOM      4  C   UNL     1      45.532   4.756  12.346  0.00  0.00    +0.000 A 
ATOM      5  C   UNL     1      46.521   5.398  13.089  0.00  0.00    +0.000 A 
ATOM      6  C   UNL     1      46.736   6.782  12.960  0.00  0.00    +0.000 A 
ENDROOT
BRANCH   1   8
ATOM      7  C   UNL     1      45.063   9.728  12.044  0.00  0.00    +0.000 C 
ATOM      8  O   UNL     1      46.192   8.862  11.968  0.00  0.00    +0.000 OA
ENDBRANCH   1   8
BRANCH   3   9
ATOM      9  C   UNL     1      43.581   4.824  10.746  0.00  0.00    +0.000 C 
BRANCH   9  10
ATOM     10  O   UNL     1      44.046   3.812   9.854  0.00  0.00    +0.000 OA
BRANCH  10  11
ATOM     11  C   UNL     1      44.812   4.333   8.766  0.00  0.00    +0.000 C 
BRANCH  11  12
ATOM     12  C   UNL     1      45.628   3.219   8.184  0.00  0.00    +0.000 A 
ATOM     13  C   UNL     1      46.487   3.439   7.104  0.00  0.00    +0.000 A 
ATOM     14  C   UNL     1      47.238   2.386   6.592  0.00  0.00    +0.000 A 
ATOM     15  C   UNL     1      47.111   1.143   7.189  0.00  0.00    +0.000 A 
ATOM     16  N   UNL     1      46.305   0.892   8.244  0.00  0.00    +0.000 NA
ATOM     17  C   UNL     1      45.582   1.935   8.714  0.00  0.00    +0.000 A 
ENDBRANCH  11  12
ENDBRANCH  10  11
ENDBRANCH   9  10
ENDBRANCH   3   9
BRANCH   6  18
ATOM     18  C   UNL     1      47.772   7.433  13.847  0.00  0.00    +0.000 C 
BRANCH  18  19
ATOM     19  N   UNL     1      48.439   6.450  14.671  0.00  0.00    +0.000 N 
ATOM     20  C   UNL     1      48.769   6.700  15.979  0.00  0.00    +0.000 C 
ATOM     21  O   UNL     1      48.681   7.818  16.479  0.00  0.00    +0.000 OA
ATOM     22  H   UNL     1      48.342   5.488  14.364  0.00  0.00    +0.000 HD
BRANCH  20  23
ATOM     23  C   UNL     1      49.280   5.560  16.753  0.00  0.00    +0.000 A 
ATOM     24  C   UNL     1      48.405   4.575  17.195  0.00  0.00    +0.000 A 
ATOM     25  S   UNL     1      49.170   3.315  18.053  0.00  0.00    +0.000 S 
ATOM     26  C   UNL     1      50.704   4.018  17.827  0.00  0.00    +0.000 A 
ATOM     27  N   UNL     1      51.829   3.408  18.285  0.00  0.00    +0.000 NA
ATOM     28  C   UNL     1      52.926   4.028  18.001  0.00  0.00    +0.000 A 
ATOM     29  N   UNL     1      52.997   5.212  17.315  0.00  0.00    +0.000 N 
ATOM     30  C   UNL     1      51.883   5.901  16.900  0.00  0.00    +0.000 A 
ATOM     31  O   UNL     1      51.979   7.020  16.399  0.00  0.00    +0.000 OA
ATOM     32  C   UNL     1      50.628   5.220  17.142  0.00  0.00    +0.000 A 
ATOM     33  H   UNL     1      53.885   5.663  17.154  0.00  0.00    +0.000 HD
ENDBRANCH  20  23
ENDBRANCH  18  19
ENDBRANCH   6  18
TORSDOF 8
ENDMDL
MODEL 6
REMARK VINA RESULT:    -7.126      1.608      2.155
REMARK INTER + INTRA:         -11.885
REMARK INTER:                 -10.438
REMARK INTRA:                  -1.447
REMARK UNBOUND:                -1.427
REMARK  Name = 
REMARK  9 active torsions:
REMARK  status: ('A' for Active; 'I' for Inactive)
REMARK    1  A    between atoms: C_1  and  O_2
REMARK    2  A    between atoms: O_2  and  C_3
REMARK    3  A    between atoms: C_5  and  C_6
REMARK    4  A    between atoms: C_6  and  O_7
REMARK    5  A    between atoms: O_7  and  C_8
REMARK    6  A    between atoms: C_8  and  C_9
REMARK    7  A    between atoms: C_17  and  C_18
REMARK    8  A    between atoms: C_18  and  N_19
REMARK    9  A    between atoms: C_20  and  C_22
REMARK                            x       y       z     vdW  Elec       q    Type
REMARK                         _______ _______ _______ _____ _____    ______ ____
ROOT
ATOM      1  C   UNL     1      47.902   7.125  12.493  0.00  0.00    +0.000 A 
ATOM      2  C   UNL     1      47.025   6.354  11.721  0.00  0.00    +0.000 A 
ATOM      3  C   UNL     1      45.655   6.653  11.666  0.00  0.00    +0.000 A 
ATOM      4  C   UNL     1      45.159   7.714  12.429  0.00  0.00    +0.000 A 
ATOM      5  C   UNL     1      46.023   8.482  13.207  0.00  0.00    +0.000 A 
ATOM      6  C   UNL     1      47.400   8.199  13.249  0.00  0.00    +0.000 A 
ENDROOT
BRANCH   1   8
ATOM      7  C   UNL     1      50.063   7.483  11.571  0.00  0.00    +0.000 C 
ATOM      8  O   UNL     1      49.249   6.882  12.574  0.00  0.00    +0.000 OA
ENDBRANCH   1   8
BRANCH   3   9
ATOM      9  C   UNL     1      44.751   5.891  10.732  0.00  0.00    +0.000 C 
BRANCH   9  10
ATOM     10  O   UNL     1      45.488   4.951   9.951  0.00  0.00    +0.000 OA
BRANCH  10  11
ATOM     11  C   UNL     1      44.657   4.136   9.123  0.00  0.00    +0.000 C 
BRANCH  11  12
ATOM     12  C   UNL     1      45.525   3.151   8.402  0.00  0.00    +0.000 A 
ATOM     13  C   UNL     1      46.383   3.557   7.376  0.00  0.00    +0.000 A 
ATOM     14  C   UNL     1      47.182   2.619   6.732  0.00  0.00    +0.000 A 
ATOM     15  C   UNL     1      47.104   1.299   7.146  0.00  0.00    +0.000 A 
ATOM     16  N   UNL     1      46.301   0.869   8.144  0.00  0.00    +0.000 NA
ATOM     17  C   UNL     1      45.531   1.803   8.745  0.00  0.00    +0.000 A 
ENDBRANCH  11  12
ENDBRANCH  10  11
ENDBRANCH   9  10
ENDBRANCH   3   9
BRANCH   6  18
ATOM     18  C   UNL     1      48.297   9.113  14.052  0.00  0.00    +0.000 C 
BRANCH  18  19
ATOM     19  N   UNL     1      48.942   8.392  15.126  0.00  0.00    +0.000 N 
ATOM     20  C   UNL     1      48.571   8.552  16.437  0.00  0.00    +0.000 C 
ATOM     21  O   UNL     1      47.798   9.435  16.799  0.00  0.00    +0.000 OA
ATOM     22  H   UNL     1      49.420   7.540  14.851  0.00  0.00    +0.000 HD
BRANCH  20  23
ATOM     23  C   UNL     1      49.182   7.632  17.406  0.00  0.00    +0.000 A 
ATOM     24  C   UNL     1      49.866   8.138  18.505  0.00  0.00    +0.000 A 
ATOM     25  S   UNL     1      50.487   6.931  19.538  0.00  0.00    +0.000 S 
ATOM     26  C   UNL     1      49.826   5.691  18.579  0.00  0.00    +0.000 A 
ATOM     27  N   UNL     1      49.953   4.385  18.936  0.00  0.00    +0.000 NA
ATOM     28  C   UNL     1      49.362   3.555  18.142  0.00  0.00    +0.000 A 
ATOM     29  N   UNL     1      48.668   3.912  17.015  0.00  0.00    +0.000 N 
ATOM     30  C   UNL     1      48.579   5.211  16.577  0.00  0.00    +0.000 A 
ATOM     31  O   UNL     1      48.057   5.481  15.496  0.00  0.00    +0.000 OA
ATOM     32  C   UNL     1      49.176   6.190  17.462  0.00  0.00    +0.000 A 
ATOM     33  H   UNL     1      48.256   3.211  16.419  0.00  0.00    +0.000 HD
ENDBRANCH  20  23
ENDBRANCH  18  19
ENDBRANCH   6  18
TORSDOF 8
ENDMDL
MODEL 7
REMARK VINA RESULT:    -7.033      3.166      4.385
REMARK INTER + INTRA:         -11.750
REMARK INTER:                 -10.257
REMARK INTRA:                  -1.493
REMARK UNBOUND:                -1.427
REMARK  Name = 
REMARK  9 active torsions:
REMARK  status: ('A' for Active; 'I' for Inactive)
REMARK    1  A    between atoms: C_1  and  O_2
REMARK    2  A    between atoms: O_2  and  C_3
REMARK    3  A    between atoms: C_5  and  C_6
REMARK    4  A    between atoms: C_6  and  O_7
REMARK    5  A    between atoms: O_7  and  C_8
REMARK    6  A    between atoms: C_8  and  C_9
REMARK    7  A    between atoms: C_17  and  C_18
REMARK    8  A    between atoms: C_18  and  N_19
REMARK    9  A    between atoms: C_20  and  C_22
REMARK                            x       y       z     vdW  Elec       q    Type
REMARK                         _______ _______ _______ _____ _____    ______ ____
ROOT
ATOM      1  C   UNL     1      47.831   4.769  16.422  0.00  0.00    +0.000 A 
ATOM      2  C   UNL     1      47.011   4.402  15.348  0.00  0.00    +0.000 A 
ATOM      3  C   UNL     1      47.031   5.121  14.144  0.00  0.00    +0.000 A 
ATOM      4  C   UNL     1      47.853   6.246  14.036  0.00  0.00    +0.000 A 
ATOM      5  C   UNL     1      48.666   6.625  15.102  0.00  0.00    +0.000 A 
ATOM      6  C   UNL     1      48.667   5.894  16.305  0.00  0.00    +0.000 A 
ENDROOT
BRANCH   1   8
ATOM      7  C   UNL     1      47.260   2.803  17.629  0.00  0.00    +0.000 C 
ATOM      8  O   UNL     1      47.858   4.096  17.616  0.00  0.00    +0.000 OA
ENDBRANCH   1   8
BRANCH   3   9
ATOM      9  C   UNL     1      46.236   4.635  12.959  0.00  0.00    +0.000 C 
BRANCH   9  10
ATOM     10  O   UNL     1      45.815   5.723  12.138  0.00  0.00    +0.000 OA
BRANCH  10  11
ATOM     11  C   UNL     1      44.597   5.460  11.439  0.00  0.00    +0.000 C 
BRANCH  11  12
ATOM     12  C   UNL     1      44.924   4.722  10.177  0.00  0.00    +0.000 A 
ATOM     13  C   UNL     1      44.348   3.480   9.894  0.00  0.00    +0.000 A 
ATOM     14  C   UNL     1      44.666   2.824   8.710  0.00  0.00    +0.000 A 
ATOM     15  C   UNL     1      45.547   3.441   7.837  0.00  0.00    +0.000 A 
ATOM     16  N   UNL     1      46.112   4.647   8.065  0.00  0.00    +0.000 NA
ATOM     17  C   UNL     1      45.789   5.257   9.229  0.00  0.00    +0.000 A 
ENDBRANCH  11  12
ENDBRANCH  10  11
ENDBRANCH   9  10
ENDBRANCH   3   9
BRANCH   6  18
ATOM     18  C   UNL     1      49.624   6.310  17.397  0.00  0.00    +0.000 C 
BRANCH  18  19
ATOM     19  N   UNL     1      50.560   5.248  17.696  0.00  0.00    +0.000 N 
ATOM     20  C   UNL     1      51.866   5.290  17.278  0.00  0.00    +0.000 C 
ATOM     21  O   UNL     1      52.277   6.132  16.484  0.00  0.00    +0.000 OA
ATOM     22  H   UNL     1      50.317   4.666  18.490  0.00  0.00    +0.000 HD
BRANCH  20  23
ATOM     23  C   UNL     1      52.753   4.239  17.798  0.00  0.00    +0.000 A 
ATOM     24  C   UNL     1      53.957   4.584  18.398  0.00  0.00    +0.000 A 
ATOM     25  S   UNL     1      54.846   3.244  18.967  0.00  0.00    +0.000 S 
ATOM     26  C   UNL     1      53.632   2.159  18.473  0.00  0.00    +0.000 A 
ATOM     27  N   UNL     1      53.745   0.825  18.710  0.00  0.00    +0.000 NA
ATOM     28  C   UNL     1      52.730   0.126  18.324  0.00  0.00    +0.000 A 
ATOM     29  N   UNL     1      51.619   0.640  17.708  0.00  0.00    +0.000 N 
ATOM     30  C   UNL     1      51.496   1.968  17.381  0.00  0.00    +0.000 A 
ATOM     31  O   UNL     1      50.543   2.372  16.717  0.00  0.00    +0.000 OA
ATOM     32  C   UNL     1      52.582   2.807  17.843  0.00  0.00    +0.000 A 
ATOM     33  H   UNL     1      50.873   0.034  17.400  0.00  0.00    +0.000 HD
ENDBRANCH  20  23
ENDBRANCH  18  19
ENDBRANCH   6  18
TORSDOF 8
ENDMDL
MODEL 8
REMARK VINA RESULT:    -6.907      3.858      5.553
REMARK INTER + INTRA:         -11.565
REMARK INTER:                 -10.031
REMARK INTRA:                  -1.534
REMARK UNBOUND:                -1.427
REMARK  Name = 
REMARK  9 active torsions:
REMARK  status: ('A' for Active; 'I' for Inactive)
REMARK    1  A    between atoms: C_1  and  O_2
REMARK    2  A    between atoms: O_2  and  C_3
REMARK    3  A    between atoms: C_5  and  C_6
REMARK    4  A    between atoms: C_6  and  O_7
REMARK    5  A    between atoms: O_7  and  C_8
REMARK    6  A    between atoms: C_8  and  C_9
REMARK    7  A    between atoms: C_17  and  C_18
REMARK    8  A    between atoms: C_18  and  N_19
REMARK    9  A    between atoms: C_20  and  C_22
REMARK                            x       y       z     vdW  Elec       q    Type
REMARK                         _______ _______ _______ _____ _____    ______ ____
ROOT
ATOM      1  C   UNL     1      47.222   7.359  12.323  0.00  0.00    +0.000 A 
ATOM      2  C   UNL     1      46.182   6.837  11.546  0.00  0.00    +0.000 A 
ATOM      3  C   UNL     1      45.610   5.592  11.846  0.00  0.00    +0.000 A 
ATOM      4  C   UNL     1      46.119   4.847  12.913  0.00  0.00    +0.000 A 
ATOM      5  C   UNL     1      47.161   5.355  13.687  0.00  0.00    +0.000 A 
ATOM      6  C   UNL     1      47.724   6.613  13.404  0.00  0.00    +0.000 A 
ENDROOT
BRANCH   1   8
ATOM      7  C   UNL     1      46.990   9.724  12.267  0.00  0.00    +0.000 C 
ATOM      8  O   UNL     1      47.810   8.574  12.080  0.00  0.00    +0.000 OA
ENDBRANCH   1   8
BRANCH   3   9
ATOM      9  C   UNL     1      44.409   5.105  11.076  0.00  0.00    +0.000 C 
BRANCH   9  10
ATOM     10  O   UNL     1      44.700   3.898  10.372  0.00  0.00    +0.000 OA
BRANCH  10  11
ATOM     11  C   UNL     1      44.554   4.024   8.957  0.00  0.00    +0.000 C 
BRANCH  11  12
ATOM     12  C   UNL     1      45.536   3.107   8.295  0.00  0.00    +0.000 A 
ATOM     13  C   UNL     1      46.448   3.583   7.348  0.00  0.00    +0.000 A 
ATOM     14  C   UNL     1      47.351   2.706   6.757  0.00  0.00    +0.000 A 
ATOM     15  C   UNL     1      47.320   1.376   7.144  0.00  0.00    +0.000 A 
ATOM     16  N   UNL     1      46.466   0.880   8.066  0.00  0.00    +0.000 NA
ATOM     17  C   UNL     1      45.595   1.756   8.617  0.00  0.00    +0.000 A 
ENDBRANCH  11  12
ENDBRANCH  10  11
ENDBRANCH   9  10
ENDBRANCH   3   9
BRANCH   6  18
ATOM     18  C   UNL     1      48.799   7.142  14.325  0.00  0.00    +0.000 C 
BRANCH  18  19
ATOM     19  N   UNL     1      50.029   7.375  13.602  0.00  0.00    +0.000 N 
ATOM     20  C   UNL     1      50.732   8.548  13.720  0.00  0.00    +0.000 C 
ATOM     21  O   UNL     1      50.279   9.531  14.299  0.00  0.00    +0.000 OA
ATOM     22  H   UNL     1      50.516   6.540  13.292  0.00  0.00    +0.000 HD
BRANCH  20  23
ATOM     23  C   UNL     1      52.052   8.586  13.075  0.00  0.00    +0.000 A 
ATOM     24  C   UNL     1      53.156   9.044  13.784  0.00  0.00    +0.000 A 
ATOM     25  S   UNL     1      54.609   8.995  12.891  0.00  0.00    +0.000 S 
ATOM     26  C   UNL     1      53.822   8.321  11.541  0.00  0.00    +0.000 A 
ATOM     27  N   UNL     1      54.516   7.982  10.422  0.00  0.00    +0.000 NA
ATOM     28  C   UNL     1      53.801   7.437   9.495  0.00  0.00    +0.000 A 
ATOM     29  N   UNL     1      52.451   7.214   9.581  0.00  0.00    +0.000 N 
ATOM     30  C   UNL     1      51.699   7.609  10.660  0.00  0.00    +0.000 A 
ATOM     31  O   UNL     1      50.473   7.507  10.649  0.00  0.00    +0.000 OA
ATOM     32  C   UNL     1      52.461   8.173  11.754  0.00  0.00    +0.000 A 
ATOM     33  H   UNL     1      51.945   6.813   8.806  0.00  0.00    +0.000 HD
ENDBRANCH  20  23
ENDBRANCH  18  19
ENDBRANCH   6  18
TORSDOF 8
ENDMDL
MODEL 9
REMARK VINA RESULT:    -6.769      2.994      8.637
REMARK INTER + INTRA:         -11.362
REMARK INTER:                  -9.548
REMARK INTRA:                  -1.814
REMARK UNBOUND:                -1.427
REMARK  Name = 
REMARK  9 active torsions:
REMARK  status: ('A' for Active; 'I' for Inactive)
REMARK    1  A    between atoms: C_1  and  O_2
REMARK    2  A    between atoms: O_2  and  C_3
REMARK    3  A    between atoms: C_5  and  C_6
REMARK    4  A    between atoms: C_6  and  O_7
REMARK    5  A    between atoms: O_7  and  C_8
REMARK    6  A    between atoms: C_8  and  C_9
REMARK    7  A    between atoms: C_17  and  C_18
REMARK    8  A    between atoms: C_18  and  N_19
REMARK    9  A    between atoms: C_20  and  C_22
REMARK                            x       y       z     vdW  Elec       q    Type
REMARK                         _______ _______ _______ _____ _____    ______ ____
ROOT
ATOM      1  C   UNL     1      49.299   7.682  13.118  0.00  0.00    +0.000 A 
ATOM      2  C   UNL     1      50.095   7.751  14.267  0.00  0.00    +0.000 A 
ATOM      3  C   UNL     1      49.600   8.302  15.458  0.00  0.00    +0.000 A 
ATOM      4  C   UNL     1      48.306   8.827  15.480  0.00  0.00    +0.000 A 
ATOM      5  C   UNL     1      47.508   8.771  14.338  0.00  0.00    +0.000 A 
ATOM      6  C   UNL     1      47.991   8.200  13.147  0.00  0.00    +0.000 A 
ENDROOT
BRANCH   1   8
ATOM      7  C   UNL     1      50.816   7.808  11.293  0.00  0.00    +0.000 C 
ATOM      8  O   UNL     1      49.728   7.145  11.932  0.00  0.00    +0.000 OA
ENDBRANCH   1   8
BRANCH   3   9
ATOM      9  C   UNL     1      50.428   8.252  16.717  0.00  0.00    +0.000 C 
BRANCH   9  10
ATOM     10  O   UNL     1      49.750   7.545  17.754  0.00  0.00    +0.000 OA
BRANCH  10  11
ATOM     11  C   UNL     1      50.396   6.324  18.116  0.00  0.00    +0.000 C 
BRANCH  11  12
ATOM     12  C   UNL     1      49.559   5.181  17.629  0.00  0.00    +0.000 A 
ATOM     13  C   UNL     1      48.205   5.353  17.325  0.00  0.00    +0.000 A 
ATOM     14  C   UNL     1      47.456   4.274  16.868  0.00  0.00    +0.000 A 
ATOM     15  C   UNL     1      48.094   3.054  16.717  0.00  0.00    +0.000 A 
ATOM     16  N   UNL     1      49.403   2.849  16.984  0.00  0.00    +0.000 NA
ATOM     17  C   UNL     1      50.102   3.916  17.434  0.00  0.00    +0.000 A 
ENDBRANCH  11  12
ENDBRANCH  10  11
ENDBRANCH   9  10
ENDBRANCH   3   9
BRANCH   6  18
ATOM     18  C   UNL     1      47.054   8.100  11.966  0.00  0.00    +0.000 C 
BRANCH  18  19
ATOM     19  N   UNL     1      46.449   6.788  11.895  0.00  0.00    +0.000 N 
ATOM     20  C   UNL     1      45.112   6.616  11.639  0.00  0.00    +0.000 C 
ATOM     21  O   UNL     1      44.317   7.552  11.630  0.00  0.00    +0.000 OA
ATOM     22  H   UNL     1      47.089   6.025  11.700  0.00  0.00    +0.000 HD
BRANCH  20  23
ATOM     23  C   UNL     1      44.663   5.234  11.416  0.00  0.00    +0.000 A 
ATOM     24  C   UNL     1      43.897   4.592  12.381  0.00  0.00    +0.000 A 
ATOM     25  S   UNL     1      43.441   3.006  11.947  0.00  0.00    +0.000 S 
ATOM     26  C   UNL     1      44.213   3.138  10.436  0.00  0.00    +0.000 A 
ATOM     27  N   UNL     1      44.164   2.123   9.533  0.00  0.00    +0.000 NA
ATOM     28  C   UNL     1      44.752   2.378   8.412  0.00  0.00    +0.000 A 
ATOM     29  N   UNL     1      45.398   3.551   8.119  0.00  0.00    +0.000 N 
ATOM     30  C   UNL     1      45.538   4.571   9.027  0.00  0.00    +0.000 A 
ATOM     31  O   UNL     1      46.231   5.555   8.774  0.00  0.00    +0.000 OA
ATOM     32  C   UNL     1      44.846   4.360  10.282  0.00  0.00    +0.000 A 
ATOM     33  H   UNL     1      45.867   3.674   7.234  0.00  0.00    +0.000 HD
ENDBRANCH  20  23
ENDBRANCH  18  19
ENDBRANCH   6  18
TORSDOF 8
ENDMDL
