MODEL 1
REMARK VINA RESULT:    -7.189      0.000      0.000
REMARK INTER + INTRA:         -10.058
REMARK INTER:                  -9.501
REMARK INTRA:                  -0.557
REMARK UNBOUND:                -0.557
REMARK  Name = 
REMARK  6 active torsions:
REMARK  status: ('A' for Active; 'I' for Inactive)
REMARK    1  A    between atoms: N_1  and  C_2
REMARK    2  A    between atoms: C_2  and  C_3
REMARK    3  A    between atoms: C_3  and  C_4
REMARK    4  A    between atoms: C_7  and  C_8
REMARK    5  A    between atoms: C_8  and  C_9
REMARK    6  A    between atoms: C_9  and  C_10
REMARK                            x       y       z     vdW  Elec       q    Type
REMARK                         _______ _______ _______ _____ _____    ______ ____
ROOT
ATOM      1  C   UNL     1      46.468   4.849  13.289  0.00  0.00    +0.000 A 
ATOM      2  C   UNL     1      46.274   5.733  12.233  0.00  0.00    +0.000 A 
ATOM      3  N   UNL     1      45.527   5.429  11.144  0.00  0.00    +0.000 NA
ATOM      4  C   UNL     1      44.976   4.191  11.125  0.00  0.00    +0.000 A 
ATOM      5  C   UNL     1      45.163   3.313  12.188  0.00  0.00    +0.000 A 
ATOM      6  N   UNL     1      45.914   3.613  13.275  0.00  0.00    +0.000 NA
ENDROOT
BRANCH   1   7
ATOM      7  C   UNL     1      47.322   5.222  14.469  0.00  0.00    +0.000 C 
BRANCH   7   8
ATOM      8  C   UNL     1      47.161   4.212  15.607  0.00  0.00    +0.000 C 
BRANCH   8   9
ATOM      9  N   UNL     1      47.878   2.970  15.315  0.00  0.00    +0.000 NA
ATOM     10  H   UNL     1      48.865   3.092  15.546  0.00  0.00    +0.000 HD
ATOM     11  H   UNL     1      47.850   2.792  14.310  0.00  0.00    +0.000 HD
ENDBRANCH   8   9
ENDBRANCH   7   8
ENDBRANCH   1   7
BRANCH   4  12
ATOM     12  C   UNL     1      44.092   3.807   9.964  0.00  0.00    +0.000 C 
BRANCH  12  13
ATOM     13  C   UNL     1      44.686   4.191   8.605  0.00  0.00    +0.000 C 
BRANCH  13  14
ATOM     14  C   UNL     1      45.636   3.147   8.082  0.00  0.00    +0.000 A 
ATOM     15  C   UNL     1      46.590   3.450   7.107  0.00  0.00    +0.000 A 
ATOM     16  C   UNL     1      47.456   2.458   6.657  0.00  0.00    +0.000 A 
ATOM     17  C   UNL     1      47.333   1.186   7.191  0.00  0.00    +0.000 A 
ATOM     18  N   UNL     1      46.414   0.849   8.121  0.00  0.00    +0.000 NA
ATOM     19  C   UNL     1      45.591   1.835   8.545  0.00  0.00    +0.000 A 
ENDBRANCH  13  14
ENDBRANCH  12  13
ENDBRANCH   4  12
TORSDOF 6
ENDMDL
MODEL 2
REMARK VINA RESULT:    -6.814      1.650      6.153
REMARK INTER + INTRA:          -9.562
REMARK INTER:                  -9.150
REMARK INTRA:                  -0.412
REMARK UNBOUND:                -0.557
REMARK  Name = 
REMARK  6 active torsions:
REMARK  status: ('A' for Active; 'I' for Inactive)
REMARK    1  A    between atoms: N_1  and  C_2
REMARK    2  A    between atoms: C_2  and  C_3
REMARK    3  A    between atoms: C_3  and  C_4
REMARK    4  A    between atoms: C_7  and  C_8
REMARK    5  A    between atoms: C_8  and  C_9
REMARK    6  A    between atoms: C_9  and  C_10
REMARK                            x       y       z     vdW  Elec       q    Type
REMARK                         _______ _______ _______ _____ _____    ______ ____
ROOT
ATOM      1  C   UNL     1      45.728   3.127   7.797  0.00  0.00    +0.000 A 
ATOM      2  C   UNL     1      45.337   2.060   8.598  0.00  0.00    +0.000 A 
ATOM      3  N   UNL     1      44.603   2.214   9.727  0.00  0.00    +0.000 NA
ATOM      4  C   UNL     1      44.272   3.487  10.055  0.00  0.00    +0.000 A 
ATOM      5  C   UNL     1      44.656   4.552   9.246  0.00  0.00    +0.000 A 
ATOM      6  N   UNL     1      45.394   4.401   8.119  0.00  0.00    +0.000 NA
ENDROOT
BRANCH   1   7
ATOM      7  C   UNL     1      46.559   2.911   6.563  0.00  0.00    +0.000 C 
BRANCH   7   8
ATOM      8  C   UNL     1      47.669   1.890   6.818  0.00  0.00    +0.000 C 
BRANCH   8   9
ATOM      9  N   UNL     1      48.600   1.831   5.689  0.00  0.00    +0.000 NA
ATOM     10  H   UNL     1      49.036   0.909   5.665  0.00  0.00    +0.000 HD
ATOM     11  H   UNL     1      49.361   2.492   5.845  0.00  0.00    +0.000 HD
ENDBRANCH   8   9
ENDBRANCH   7   8
ENDBRANCH   1   7
BRANCH   4  12
ATOM     12  C   UNL     1      43.414   3.724  11.272  0.00  0.00    +0.000 C 
BRANCH  12  13
ATOM     13  C   UNL     1      44.130   3.390  12.585  0.00  0.00    +0.000 C 
BRANCH  13  14
ATOM     14  C   UNL     1      45.225   4.373  12.904  0.00  0.00    +0.000 A 
ATOM     15  C   UNL     1      45.042   5.749  12.743  0.00  0.00    +0.000 A 
ATOM     16  C   UNL     1      46.077   6.624  13.058  0.00  0.00    +0.000 A 
ATOM     17  C   UNL     1      47.271   6.093  13.515  0.00  0.00    +0.000 A 
ATOM     18  N   UNL     1      47.493   4.770  13.669  0.00  0.00    +0.000 NA
ATOM     19  C   UNL     1      46.467   3.943  13.363  0.00  0.00    +0.000 A 
ENDBRANCH  13  14
ENDBRANCH  12  13
ENDBRANCH   4  12
TORSDOF 6
ENDMDL
MODEL 3
REMARK VINA RESULT:    -6.671      1.429      2.135
REMARK INTER + INTRA:          -9.373
REMARK INTER:                  -8.768
REMARK INTRA:                  -0.605
REMARK UNBOUND:                -0.557
REMARK  Name = 
REMARK  6 active torsions:
REMARK  status: ('A' for Active; 'I' for Inactive)
REMARK    1  A    between atoms: N_1  and  C_2
REMARK    2  A    between atoms: C_2  and  C_3
REMARK    3  A    between atoms: C_3  and  C_4
REMARK    4  A    between atoms: C_7  and  C_8
REMARK    5  A    between atoms: C_8  and  C_9
REMARK    6  A    between atoms: C_9  and  C_10
REMARK                            x       y       z     vdW  Elec       q    Type
REMARK                         _______ _______ _______ _____ _____    ______ ____
ROOT
ATOM      1  C   UNL     1      46.736   5.562  13.105  0.00  0.00    +0.000 A 
ATOM      2  C   UNL     1      46.181   4.325  13.414  0.00  0.00    +0.000 A 
ATOM      3  N   UNL     1      45.343   3.662  12.579  0.00  0.00    +0.000 NA
ATOM      4  C   UNL     1      45.054   4.282  11.409  0.00  0.00    +0.000 A 
ATOM      5  C   UNL     1      45.619   5.515  11.098  0.00  0.00    +0.000 A 
ATOM      6  N   UNL     1      46.453   6.182  11.934  0.00  0.00    +0.000 NA
ENDROOT
BRANCH   1   7
ATOM      7  C   UNL     1      47.646   6.269  14.070  0.00  0.00    +0.000 C 
BRANCH   7   8
ATOM      8  C   UNL     1      47.886   7.718  13.641  0.00  0.00    +0.000 C 
BRANCH   8   9
ATOM      9  N   UNL     1      46.754   8.571  14.006  0.00  0.00    +0.000 NA
ATOM     10  H   UNL     1      45.947   7.983  14.215  0.00  0.00    +0.000 HD
ATOM     11  H   UNL     1      46.483   9.135  13.200  0.00  0.00    +0.000 HD
ENDBRANCH   8   9
ENDBRANCH   7   8
ENDBRANCH   1   7
BRANCH   4  12
ATOM     12  C   UNL     1      44.167   3.577  10.413  0.00  0.00    +0.000 C 
BRANCH  12  13
ATOM     13  C   UNL     1      44.452   3.981   8.963  0.00  0.00    +0.000 C 
BRANCH  13  14
ATOM     14  C   UNL     1      45.466   3.082   8.309  0.00  0.00    +0.000 A 
ATOM     15  C   UNL     1      46.347   3.560   7.335  0.00  0.00    +0.000 A 
ATOM     16  C   UNL     1      47.276   2.698   6.762  0.00  0.00    +0.000 A 
ATOM     17  C   UNL     1      47.287   1.375   7.173  0.00  0.00    +0.000 A 
ATOM     18  N   UNL     1      46.442   0.871   8.097  0.00  0.00    +0.000 NA
ATOM     19  C   UNL     1      45.556   1.734   8.644  0.00  0.00    +0.000 A 
ENDBRANCH  13  14
ENDBRANCH  12  13
ENDBRANCH   4  12
TORSDOF 6
ENDMDL
MODEL 4
REMARK VINA RESULT:    -5.709      2.043      3.269
REMARK INTER + INTRA:          -8.102
REMARK INTER:                  -7.489
REMARK INTRA:                  -0.613
REMARK UNBOUND:                -0.557
REMARK  Name = 
REMARK  6 active torsions:
REMARK  status: ('A' for Active; 'I' for Inactive)
REMARK    1  A    between atoms: N_1  and  C_2
REMARK    2  A    between atoms: C_2  and  C_3
REMARK    3  A    between atoms: C_3  and  C_4
REMARK    4  A    between atoms: C_7  and  C_8
REMARK    5  A    between atoms: C_8  and  C_9
REMARK    6  A    between atoms: C_9  and  C_10
REMARK                            x       y       z     vdW  Elec       q    Type
REMARK                         _______ _______ _______ _____ _____    ______ ____
ROOT
ATOM      1  C   UNL     1      47.743   4.666  15.877  0.00  0.00    +0.000 A 
ATOM      2  C   UNL     1      48.369   5.798  15.367  0.00  0.00    +0.000 A 
ATOM      3  N   UNL     1      48.078   6.317  14.149  0.00  0.00    +0.000 NA
ATOM      4  C   UNL     1      47.136   5.659  13.430  0.00  0.00    +0.000 A 
ATOM      5  C   UNL     1      46.503   4.534  13.948  0.00  0.00    +0.000 A 
ATOM      6  N   UNL     1      46.797   4.009  15.163  0.00  0.00    +0.000 NA
ENDROOT
BRANCH   1   7
ATOM      7  C   UNL     1      48.112   4.113  17.226  0.00  0.00    +0.000 C 
BRANCH   7   8
ATOM      8  C   UNL     1      48.311   2.598  17.165  0.00  0.00    +0.000 C 
BRANCH   8   9
ATOM      9  N   UNL     1      49.116   2.218  16.003  0.00  0.00    +0.000 NA
ATOM     10  H   UNL     1      48.620   2.483  15.152  0.00  0.00    +0.000 HD
ATOM     11  H   UNL     1      49.199   1.201  15.968  0.00  0.00    +0.000 HD
ENDBRANCH   8   9
ENDBRANCH   7   8
ENDBRANCH   1   7
BRANCH   4  12
ATOM     12  C   UNL     1      46.730   6.213  12.087  0.00  0.00    +0.000 C 
BRANCH  12  13
ATOM     13  C   UNL     1      45.240   6.020  11.784  0.00  0.00    +0.000 C 
BRANCH  13  14
ATOM     14  C   UNL     1      45.005   4.988  10.714  0.00  0.00    +0.000 A 
ATOM     15  C   UNL     1      45.523   5.139   9.425  0.00  0.00    +0.000 A 
ATOM     16  C   UNL     1      45.290   4.157   8.468  0.00  0.00    +0.000 A 
ATOM     17  C   UNL     1      44.533   3.055   8.828  0.00  0.00    +0.000 A 
ATOM     18  N   UNL     1      44.001   2.879  10.056  0.00  0.00    +0.000 NA
ATOM     19  C   UNL     1      44.250   3.846  10.968  0.00  0.00    +0.000 A 
ENDBRANCH  13  14
ENDBRANCH  12  13
ENDBRANCH   4  12
TORSDOF 6
ENDMDL
MODEL 5
REMARK VINA RESULT:    -5.188      2.064      7.687
REMARK INTER + INTRA:          -7.413
REMARK INTER:                  -6.921
REMARK INTRA:                  -0.492
REMARK UNBOUND:                -0.557
REMARK  Name = 
REMARK  6 active torsions:
REMARK  status: ('A' for Active; 'I' for Inactive)
REMARK    1  A    between atoms: N_1  and  C_2
REMARK    2  A    between atoms: C_2  and  C_3
REMARK    3  A    between atoms: C_3  and  C_4
REMARK    4  A    between atoms: C_7  and  C_8
REMARK    5  A    between atoms: C_8  and  C_9
REMARK    6  A    between atoms: C_9  and  C_10
REMARK                            x       y       z     vdW  Elec       q    Type
REMARK                         _______ _______ _______ _____ _____    ______ ____
ROOT
ATOM      1  C   UNL     1      44.789   4.574  11.112  0.00  0.00    +0.000 A 
ATOM      2  C   UNL     1      44.895   3.575  12.074  0.00  0.00    +0.000 A 
ATOM      3  N   UNL     1      45.658   3.700  13.188  0.00  0.00    +0.000 NA
ATOM      4  C   UNL     1      46.339   4.866  13.316  0.00  0.00    +0.000 A 
ATOM      5  C   UNL     1      46.223   5.867  12.357  0.00  0.00    +0.000 A 
ATOM      6  N   UNL     1      45.465   5.741  11.240  0.00  0.00    +0.000 NA
ENDROOT
BRANCH   1   7
ATOM      7  C   UNL     1      43.946   4.383   9.882  0.00  0.00    +0.000 C 
BRANCH   7   8
ATOM      8  C   UNL     1      44.808   4.007   8.675  0.00  0.00    +0.000 C 
BRANCH   8   9
ATOM      9  N   UNL     1      45.796   5.048   8.388  0.00  0.00    +0.000 NA
ATOM     10  H   UNL     1      46.276   4.821   7.517  0.00  0.00    +0.000 HD
ATOM     11  H   UNL     1      46.516   5.039   9.111  0.00  0.00    +0.000 HD
ENDBRANCH   8   9
ENDBRANCH   7   8
ENDBRANCH   1   7
BRANCH   4  12
ATOM     12  C   UNL     1      47.168   5.089  14.556  0.00  0.00    +0.000 C 
BRANCH  12  13
ATOM     13  C   UNL     1      47.332   3.824  15.405  0.00  0.00    +0.000 C 
BRANCH  13  14
ATOM     14  C   UNL     1      48.016   4.102  16.717  0.00  0.00    +0.000 A 
ATOM     15  C   UNL     1      47.961   3.193  17.776  0.00  0.00    +0.000 A 
ATOM     16  C   UNL     1      48.615   3.484  18.970  0.00  0.00    +0.000 A 
ATOM     17  C   UNL     1      49.296   4.686  19.071  0.00  0.00    +0.000 A 
ATOM     18  N   UNL     1      49.358   5.597  18.077  0.00  0.00    +0.000 NA
ATOM     19  C   UNL     1      48.721   5.284  16.926  0.00  0.00    +0.000 A 
ENDBRANCH  13  14
ENDBRANCH  12  13
ENDBRANCH   4  12
TORSDOF 6
ENDMDL
MODEL 6
REMARK VINA RESULT:    -5.120      2.249      3.900
REMARK INTER + INTRA:          -7.323
REMARK INTER:                  -6.809
REMARK INTRA:                  -0.514
REMARK UNBOUND:                -0.557
REMARK  Name = 
REMARK  6 active torsions:
REMARK  status: ('A' for Active; 'I' for Inactive)
REMARK    1  A    between atoms: N_1  and  C_2
REMARK    2  A    between atoms: C_2  and  C_3
REMARK    3  A    between atoms: C_3  and  C_4
REMARK    4  A    between atoms: C_7  and  C_8
REMARK    5  A    between atoms: C_8  and  C_9
REMARK    6  A    between atoms: C_9  and  C_10
REMARK                            x       y       z     vdW  Elec       q    Type
REMARK                         _______ _______ _______ _____ _____    ______ ____
ROOT
ATOM      1  C   UNL     1      48.379   5.402  16.217  0.00  0.00    +0.000 A 
ATOM      2  C   UNL     1      47.530   4.318  16.410  0.00  0.00    +0.000 A 
ATOM      3  N   UNL     1      46.687   3.861  15.451  0.00  0.00    +0.000 NA
ATOM      4  C   UNL     1      46.702   4.533  14.274  0.00  0.00    +0.000 A 
ATOM      5  C   UNL     1      47.561   5.611  14.081  0.00  0.00    +0.000 A 
ATOM      6  N   UNL     1      48.400   6.073  15.040  0.00  0.00    +0.000 NA
ENDROOT
BRANCH   1   7
ATOM      7  C   UNL     1      49.283   5.887  17.317  0.00  0.00    +0.000 C 
BRANCH   7   8
ATOM      8  C   UNL     1      50.739   5.506  17.043  0.00  0.00    +0.000 C 
BRANCH   8   9
ATOM      9  N   UNL     1      51.340   6.397  16.049  0.00  0.00    +0.000 NA
ATOM     10  H   UNL     1      50.639   6.634  15.347  0.00  0.00    +0.000 HD
ATOM     11  H   UNL     1      52.075   5.897  15.548  0.00  0.00    +0.000 HD
ENDBRANCH   8   9
ENDBRANCH   7   8
ENDBRANCH   1   7
BRANCH   4  12
ATOM     12  C   UNL     1      45.825   4.046  13.148  0.00  0.00    +0.000 C 
BRANCH  12  13
ATOM     13  C   UNL     1      45.550   5.121  12.092  0.00  0.00    +0.000 C 
BRANCH  13  14
ATOM     14  C   UNL     1      45.353   4.536  10.720  0.00  0.00    +0.000 A 
ATOM     15  C   UNL     1      44.769   3.279  10.538  0.00  0.00    +0.000 A 
ATOM     16  C   UNL     1      44.596   2.778   9.252  0.00  0.00    +0.000 A 
ATOM     17  C   UNL     1      45.025   3.547   8.183  0.00  0.00    +0.000 A 
ATOM     18  N   UNL     1      45.609   4.757   8.317  0.00  0.00    +0.000 NA
ATOM     19  C   UNL     1      45.756   5.223   9.578  0.00  0.00    +0.000 A 
ENDBRANCH  13  14
ENDBRANCH  12  13
ENDBRANCH   4  12
TORSDOF 6
ENDMDL
MODEL 7
REMARK VINA RESULT:    -4.658      3.246      4.161
REMARK INTER + INTRA:          -6.713
REMARK INTER:                  -6.192
REMARK INTRA:                  -0.521
REMARK UNBOUND:                -0.557
REMARK  Name = 
REMARK  6 active torsions:
REMARK  status: ('A' for Active; 'I' for Inactive)
REMARK    1  A    between atoms: N_1  and  C_2
REMARK    2  A    between atoms: C_2  and  C_3
REMARK    3  A    between atoms: C_3  and  C_4
REMARK    4  A    between atoms: C_7  and  C_8
REMARK    5  A    between atoms: C_8  and  C_9
REMARK    6  A    between atoms: C_9  and  C_10
REMARK                            x       y       z     vdW  Elec       q    Type
REMARK                         _______ _______ _______ _____ _____    ______ ____
ROOT
ATOM      1  C   UNL     1      49.389   7.960  12.819  0.00  0.00    +0.000 A 
ATOM      2  C   UNL     1      48.367   8.334  11.953  0.00  0.00    +0.000 A 
ATOM      3  N   UNL     1      47.239   7.602  11.783  0.00  0.00    +0.000 NA
ATOM      4  C   UNL     1      47.157   6.456  12.503  0.00  0.00    +0.000 A 
ATOM      5  C   UNL     1      48.176   6.091  13.377  0.00  0.00    +0.000 A 
ATOM      6  N   UNL     1      49.308   6.818  13.544  0.00  0.00    +0.000 NA
ENDROOT
BRANCH   1   7
ATOM      7  C   UNL     1      50.633   8.793  12.961  0.00  0.00    +0.000 C 
BRANCH   7   8
ATOM      8  C   UNL     1      51.540   8.642  11.739  0.00  0.00    +0.000 C 
BRANCH   8   9
ATOM      9  N   UNL     1      51.576   7.253  11.278  0.00  0.00    +0.000 NA
ATOM     10  H   UNL     1      52.369   7.132  10.647  0.00  0.00    +0.000 HD
ATOM     11  H   UNL     1      50.745   7.062  10.717  0.00  0.00    +0.000 HD
ENDBRANCH   8   9
ENDBRANCH   7   8
ENDBRANCH   1   7
BRANCH   4  12
ATOM     12  C   UNL     1      45.906   5.621  12.398  0.00  0.00    +0.000 C 
BRANCH  12  13
ATOM     13  C   UNL     1      45.071   5.943  11.154  0.00  0.00    +0.000 C 
BRANCH  13  14
ATOM     14  C   UNL     1      44.925   4.755  10.241  0.00  0.00    +0.000 A 
ATOM     15  C   UNL     1      45.527   4.724   8.980  0.00  0.00    +0.000 A 
ATOM     16  C   UNL     1      45.375   3.602   8.171  0.00  0.00    +0.000 A 
ATOM     17  C   UNL     1      44.613   2.547   8.645  0.00  0.00    +0.000 A 
ATOM     18  N   UNL     1      44.003   2.545   9.849  0.00  0.00    +0.000 NA
ATOM     19  C   UNL     1      44.175   3.645  10.618  0.00  0.00    +0.000 A 
ENDBRANCH  13  14
ENDBRANCH  12  13
ENDBRANCH   4  12
TORSDOF 6
ENDMDL
MODEL 8
REMARK VINA RESULT:    -4.629      3.483      8.089
REMARK INTER + INTRA:          -6.675
REMARK INTER:                  -6.314
REMARK INTRA:                  -0.361
REMARK UNBOUND:                -0.557
REMARK  Name = 
REMARK  6 active torsions:
REMARK  status: ('A' for Active; 'I' for Inactive)
REMARK    1  A    between atoms: N_1  and  C_2
REMARK    2  A    between atoms: C_2  and  C_3
REMARK    3  A    between atoms: C_3  and  C_4
REMARK    4  A    between atoms: C_7  and  C_8
REMARK    5  A    between atoms: C_8  and  C_9
REMARK    6  A    between atoms: C_9  and  C_10
REMARK                            x       y       z     vdW  Elec       q    Type
REMARK                         _______ _______ _______ _____ _____    ______ ____
ROOT
ATOM      1  C   UNL     1      47.096   5.649  13.310  0.00  0.00    +0.000 A 
ATOM      2  C   UNL     1      46.607   4.365  13.523  0.00  0.00    +0.000 A 
ATOM      3  N   UNL     1      46.852   3.660  14.654  0.00  0.00    +0.000 NA
ATOM      4  C   UNL     1      47.626   4.273  15.583  0.00  0.00    +0.000 A 
ATOM      5  C   UNL     1      48.105   5.562  15.372  0.00  0.00    +0.000 A 
ATOM      6  N   UNL     1      47.865   6.267  14.239  0.00  0.00    +0.000 NA
ENDROOT
BRANCH   1   7
ATOM      7  C   UNL     1      46.815   6.387  12.030  0.00  0.00    +0.000 C 
BRANCH   7   8
ATOM      8  C   UNL     1      45.804   5.630  11.168  0.00  0.00    +0.000 C 
BRANCH   8   9
ATOM      9  N   UNL     1      44.767   6.530  10.659  0.00  0.00    +0.000 NA
ATOM     10  H   UNL     1      44.102   6.730  11.406  0.00  0.00    +0.000 HD
ATOM     11  H   UNL     1      44.231   6.051   9.933  0.00  0.00    +0.000 HD
ENDBRANCH   8   9
ENDBRANCH   7   8
ENDBRANCH   1   7
BRANCH   4  12
ATOM     12  C   UNL     1      47.896   3.562  16.886  0.00  0.00    +0.000 C 
BRANCH  12  13
ATOM     13  C   UNL     1      48.833   2.360  16.731  0.00  0.00    +0.000 C 
BRANCH  13  14
ATOM     14  C   UNL     1      50.197   2.620  17.312  0.00  0.00    +0.000 A 
ATOM     15  C   UNL     1      51.181   1.629  17.338  0.00  0.00    +0.000 A 
ATOM     16  C   UNL     1      52.433   1.913  17.877  0.00  0.00    +0.000 A 
ATOM     17  C   UNL     1      52.657   3.182  18.384  0.00  0.00    +0.000 A 
ATOM     18  N   UNL     1      51.728   4.161  18.393  0.00  0.00    +0.000 NA
ATOM     19  C   UNL     1      50.524   3.859  17.856  0.00  0.00    +0.000 A 
ENDBRANCH  13  14
ENDBRANCH  12  13
ENDBRANCH   4  12
TORSDOF 6
ENDMDL
MODEL 9
REMARK VINA RESULT:    -4.492      4.167      6.499
REMARK INTER + INTRA:          -6.494
REMARK INTER:                  -6.231
REMARK INTRA:                  -0.263
REMARK UNBOUND:                -0.557
REMARK  Name = 
REMARK  6 active torsions:
REMARK  status: ('A' for Active; 'I' for Inactive)
REMARK    1  A    between atoms: N_1  and  C_2
REMARK    2  A    between atoms: C_2  and  C_3
REMARK    3  A    between atoms: C_3  and  C_4
REMARK    4  A    between atoms: C_7  and  C_8
REMARK    5  A    between atoms: C_8  and  C_9
REMARK    6  A    between atoms: C_9  and  C_10
REMARK                            x       y       z     vdW  Elec       q    Type
REMARK                         _______ _______ _______ _____ _____    ______ ____
ROOT
ATOM      1  C   UNL     1      44.746   5.183  12.702  0.00  0.00    +0.000 A 
ATOM      2  C   UNL     1      45.702   4.743  13.611  0.00  0.00    +0.000 A 
ATOM      3  N   UNL     1      46.939   5.289  13.704  0.00  0.00    +0.000 NA
ATOM      4  C   UNL     1      47.212   6.298  12.840  0.00  0.00    +0.000 A 
ATOM      5  C   UNL     1      46.250   6.743  11.939  0.00  0.00    +0.000 A 
ATOM      6  N   UNL     1      45.014   6.194  11.841  0.00  0.00    +0.000 NA
ENDROOT
BRANCH   1   7
ATOM      7  C   UNL     1      43.392   4.533  12.621  0.00  0.00    +0.000 C 
BRANCH   7   8
ATOM      8  C   UNL     1      43.264   3.681  11.357  0.00  0.00    +0.000 C 
BRANCH   8   9
ATOM      9  N   UNL     1      43.048   2.272  11.691  0.00  0.00    +0.000 NA
ATOM     10  H   UNL     1      43.241   2.131  12.683  0.00  0.00    +0.000 HD
ATOM     11  H   UNL     1      43.730   1.699  11.192  0.00  0.00    +0.000 HD
ENDBRANCH   8   9
ENDBRANCH   7   8
ENDBRANCH   1   7
BRANCH   4  12
ATOM     12  C   UNL     1      48.553   6.983  12.924  0.00  0.00    +0.000 C 
BRANCH  12  13
ATOM     13  C   UNL     1      49.017   7.562  11.583  0.00  0.00    +0.000 C 
BRANCH  13  14
ATOM     14  C   UNL     1      50.487   7.882  11.577  0.00  0.00    +0.000 A 
ATOM     15  C   UNL     1      51.315   7.498  10.519  0.00  0.00    +0.000 A 
ATOM     16  C   UNL     1      52.668   7.821  10.548  0.00  0.00    +0.000 A 
ATOM     17  C   UNL     1      53.155   8.511  11.645  0.00  0.00    +0.000 A 
ATOM     18  N   UNL     1      52.393   8.885  12.695  0.00  0.00    +0.000 NA
ATOM     19  C   UNL     1      51.080   8.565  12.636  0.00  0.00    +0.000 A 
ENDBRANCH  13  14
ENDBRANCH  12  13
ENDBRANCH   4  12
TORSDOF 6
ENDMDL
