MODEL 1
REMARK VINA RESULT:    -7.112      0.000      0.000
REMARK INTER + INTRA:          -9.525
REMARK INTER:                  -8.775
REMARK INTRA:                  -0.750
REMARK UNBOUND:                -0.750
REMARK  Name = 
REMARK  6 active torsions:
REMARK  status: ('A' for Active; 'I' for Inactive)
REMARK    1  A    between atoms: C_1  and  C_2
REMARK    2  A    between atoms: C_7  and  C_8
REMARK    3  A    between atoms: C_13  and  C_14
REMARK    4  A    between atoms: C_14  and  N_15
REMARK    5  A    between atoms: C_19  and  C_20
REMARK    6  A    between atoms: C_29  and  C_30
REMARK                            x       y       z     vdW  Elec       q    Type
REMARK                         _______ _______ _______ _____ _____    ______ ____
ROOT
ATOM      1  C   UNL     1      45.765   3.182  12.518  0.00  0.00    +0.000 C 
ATOM      2  C   UNL     1      44.967   3.316  11.226  0.00  0.00    +0.000 C 
ATOM      3  C   UNL     1      45.310   4.574  10.406  0.00  0.00    +0.000 C 
ATOM      4  N   UNL     1      44.532   5.752  10.802  0.00  0.00    +0.000 N 
ATOM      5  C   UNL     1      45.164   6.845  11.354  0.00  0.00    +0.000 A 
ATOM      6  C   UNL     1      44.621   8.108  11.237  0.00  0.00    +0.000 A 
ATOM      7  C   UNL     1      45.335   9.174  11.754  0.00  0.00    +0.000 A 
ATOM      8  N   UNL     1      46.537   8.998  12.354  0.00  0.00    +0.000 NA
ATOM      9  C   UNL     1      47.027   7.746  12.413  0.00  0.00    +0.000 A 
ATOM     10  N   UNL     1      46.353   6.673  11.941  0.00  0.00    +0.000 NA
ATOM     11  C   UNL     1      43.098   5.527  10.990  0.00  0.00    +0.000 C 
ATOM     12  C   UNL     1      42.831   4.289  11.868  0.00  0.00    +0.000 C 
ATOM     13  C   UNL     1      43.002   4.554  13.362  0.00  0.00    +0.000 C 
ATOM     14  O   UNL     1      43.559   3.130  11.436  0.00  0.00    +0.000 OA
ENDROOT
BRANCH   7  15
ATOM     15  C   UNL     1      44.776  10.581  11.618  0.00  0.00    +0.000 C 
ATOM     16  F   UNL     1      43.503  10.702  12.108  0.00  0.00    +0.000 F 
ATOM     17  F   UNL     1      45.507  11.515  12.290  0.00  0.00    +0.000 F 
ATOM     18  F   UNL     1      44.704  11.012  10.326  0.00  0.00    +0.000 F 
ENDBRANCH   7  15
BRANCH   9  19
ATOM     19  C   UNL     1      48.456   7.510  12.948  0.00  0.00    +0.000 C 
ATOM     20  C   UNL     1      49.335   8.737  13.102  0.00  0.00    +0.000 C 
ATOM     21  C   UNL     1      49.604   7.800  11.972  0.00  0.00    +0.000 C 
BRANCH  19  22
ATOM     22  N   UNL     1      48.651   6.259  13.706  0.00  0.00    +0.000 N 
ATOM     23  C   UNL     1      48.422   6.134  15.075  0.00  0.00    +0.000 A 
ATOM     24  N   UNL     1      48.038   4.901  15.447  0.00  0.00    +0.000 NA
ATOM     25  C   UNL     1      47.954   4.642  16.772  0.00  0.00    +0.000 A 
ATOM     26  C   UNL     1      48.254   5.563  17.744  0.00  0.00    +0.000 A 
ATOM     27  C   UNL     1      48.594   6.810  17.271  0.00  0.00    +0.000 A 
ATOM     28  N   UNL     1      48.689   7.118  15.949  0.00  0.00    +0.000 NA
ATOM     29  H   UNL     1      48.261   5.423  13.284  0.00  0.00    +0.000 HD
BRANCH  26  30
ATOM     30  C   UNL     1      48.180   5.174  19.166  0.00  0.00    +0.000 C 
ATOM     31  N   UNL     1      48.594   3.922  19.512  0.00  0.00    +0.000 N 
ATOM     32  O   UNL     1      47.711   5.939  20.003  0.00  0.00    +0.000 OA
ATOM     33  H   UNL     1      48.763   3.183  18.844  0.00  0.00    +0.000 HD
ATOM     34  H   UNL     1      48.407   3.648  20.468  0.00  0.00    +0.000 HD
ENDBRANCH  26  30
ENDBRANCH  19  22
ENDBRANCH   9  19
TORSDOF 4
ENDMDL
MODEL 2
REMARK VINA RESULT:    -6.850      3.505      7.457
REMARK INTER + INTRA:          -9.201
REMARK INTER:                  -8.922
REMARK INTRA:                  -0.279
REMARK UNBOUND:                -0.750
REMARK  Name = 
REMARK  6 active torsions:
REMARK  status: ('A' for Active; 'I' for Inactive)
REMARK    1  A    between atoms: C_1  and  C_2
REMARK    2  A    between atoms: C_7  and  C_8
REMARK    3  A    between atoms: C_13  and  C_14
REMARK    4  A    between atoms: C_14  and  N_15
REMARK    5  A    between atoms: C_19  and  C_20
REMARK    6  A    between atoms: C_29  and  C_30
REMARK                            x       y       z     vdW  Elec       q    Type
REMARK                         _______ _______ _______ _____ _____    ______ ____
ROOT
ATOM      1  C   UNL     1      46.915   3.982  16.661  0.00  0.00    +0.000 C 
ATOM      2  C   UNL     1      47.545   4.271  18.019  0.00  0.00    +0.000 C 
ATOM      3  C   UNL     1      48.263   5.631  18.100  0.00  0.00    +0.000 C 
ATOM      4  N   UNL     1      49.661   5.576  17.661  0.00  0.00    +0.000 N 
ATOM      5  C   UNL     1      50.061   6.269  16.539  0.00  0.00    +0.000 A 
ATOM      6  C   UNL     1      51.367   6.690  16.398  0.00  0.00    +0.000 A 
ATOM      7  C   UNL     1      51.694   7.437  15.282  0.00  0.00    +0.000 A 
ATOM      8  N   UNL     1      50.766   7.760  14.349  0.00  0.00    +0.000 NA
ATOM      9  C   UNL     1      49.503   7.344  14.555  0.00  0.00    +0.000 A 
ATOM     10  N   UNL     1      49.144   6.592  15.620  0.00  0.00    +0.000 NA
ATOM     11  C   UNL     1      50.441   4.451  18.180  0.00  0.00    +0.000 C 
ATOM     12  C   UNL     1      49.688   3.116  18.012  0.00  0.00    +0.000 C 
ATOM     13  C   UNL     1      49.772   2.545  16.599  0.00  0.00    +0.000 C 
ATOM     14  O   UNL     1      48.337   3.172  18.496  0.00  0.00    +0.000 OA
ENDROOT
BRANCH   7  15
ATOM     15  C   UNL     1      53.118   7.938  15.111  0.00  0.00    +0.000 C 
ATOM     16  F   UNL     1      53.983   6.963  14.691  0.00  0.00    +0.000 F 
ATOM     17  F   UNL     1      53.229   8.935  14.187  0.00  0.00    +0.000 F 
ATOM     18  F   UNL     1      53.662   8.426  16.263  0.00  0.00    +0.000 F 
ENDBRANCH   7  15
BRANCH   9  19
ATOM     19  C   UNL     1      48.380   7.812  13.604  0.00  0.00    +0.000 C 
ATOM     20  C   UNL     1      48.816   8.486  12.318  0.00  0.00    +0.000 C 
ATOM     21  C   UNL     1      48.241   9.327  13.409  0.00  0.00    +0.000 C 
BRANCH  19  22
ATOM     22  N   UNL     1      47.079   7.136  13.778  0.00  0.00    +0.000 N 
ATOM     23  C   UNL     1      46.486   6.329  12.808  0.00  0.00    +0.000 A 
ATOM     24  N   UNL     1      45.715   5.353  13.318  0.00  0.00    +0.000 NA
ATOM     25  C   UNL     1      44.969   4.626  12.454  0.00  0.00    +0.000 A 
ATOM     26  C   UNL     1      44.948   4.847  11.100  0.00  0.00    +0.000 A 
ATOM     27  C   UNL     1      45.800   5.836  10.665  0.00  0.00    +0.000 A 
ATOM     28  N   UNL     1      46.572   6.590  11.494  0.00  0.00    +0.000 NA
ATOM     29  H   UNL     1      46.950   6.649  14.658  0.00  0.00    +0.000 HD
BRANCH  26  30
ATOM     30  C   UNL     1      44.064   4.036  10.242  0.00  0.00    +0.000 C 
ATOM     31  N   UNL     1      44.031   4.312   8.907  0.00  0.00    +0.000 N 
ATOM     32  O   UNL     1      43.339   3.170  10.726  0.00  0.00    +0.000 OA
ATOM     33  H   UNL     1      44.418   5.152   8.500  0.00  0.00    +0.000 HD
ATOM     34  H   UNL     1      43.320   3.827   8.376  0.00  0.00    +0.000 HD
ENDBRANCH  26  30
ENDBRANCH  19  22
ENDBRANCH   9  19
TORSDOF 4
ENDMDL
MODEL 3
REMARK VINA RESULT:    -6.297      3.258      7.461
REMARK INTER + INTRA:          -8.519
REMARK INTER:                  -8.407
REMARK INTRA:                  -0.112
REMARK UNBOUND:                -0.750
REMARK  Name = 
REMARK  6 active torsions:
REMARK  status: ('A' for Active; 'I' for Inactive)
REMARK    1  A    between atoms: C_1  and  C_2
REMARK    2  A    between atoms: C_7  and  C_8
REMARK    3  A    between atoms: C_13  and  C_14
REMARK    4  A    between atoms: C_14  and  N_15
REMARK    5  A    between atoms: C_19  and  C_20
REMARK    6  A    between atoms: C_29  and  C_30
REMARK                            x       y       z     vdW  Elec       q    Type
REMARK                         _______ _______ _______ _____ _____    ______ ____
ROOT
ATOM      1  C   UNL     1      47.682   4.125  17.690  0.00  0.00    +0.000 C 
ATOM      2  C   UNL     1      48.441   4.852  18.795  0.00  0.00    +0.000 C 
ATOM      3  C   UNL     1      48.862   6.286  18.428  0.00  0.00    +0.000 C 
ATOM      4  N   UNL     1      50.156   6.351  17.739  0.00  0.00    +0.000 N 
ATOM      5  C   UNL     1      50.224   6.790  16.435  0.00  0.00    +0.000 A 
ATOM      6  C   UNL     1      51.376   7.370  15.945  0.00  0.00    +0.000 A 
ATOM      7  C   UNL     1      51.362   7.851  14.649  0.00  0.00    +0.000 A 
ATOM      8  N   UNL     1      50.254   7.768  13.873  0.00  0.00    +0.000 NA
ATOM      9  C   UNL     1      49.154   7.216  14.416  0.00  0.00    +0.000 A 
ATOM     10  N   UNL     1      49.129   6.713  15.671  0.00  0.00    +0.000 NA
ATOM     11  C   UNL     1      51.224   5.541  18.327  0.00  0.00    +0.000 C 
ATOM     12  C   UNL     1      50.749   4.102  18.614  0.00  0.00    +0.000 C 
ATOM     13  C   UNL     1      50.730   3.210  17.375  0.00  0.00    +0.000 C 
ATOM     14  O   UNL     1      49.508   4.056  19.334  0.00  0.00    +0.000 OA
ENDROOT
BRANCH   7  15
ATOM     15  C   UNL     1      52.607   8.519  14.088  0.00  0.00    +0.000 C 
ATOM     16  F   UNL     1      52.528   9.885  14.084  0.00  0.00    +0.000 F 
ATOM     17  F   UNL     1      53.736   8.229  14.797  0.00  0.00    +0.000 F 
ATOM     18  F   UNL     1      52.871   8.172  12.796  0.00  0.00    +0.000 F 
ENDBRANCH   7  15
BRANCH   9  19
ATOM     19  C   UNL     1      47.824   7.234  13.631  0.00  0.00    +0.000 C 
ATOM     20  C   UNL     1      47.834   7.949  12.294  0.00  0.00    +0.000 C 
ATOM     21  C   UNL     1      47.158   8.604  13.452  0.00  0.00    +0.000 C 
BRANCH  19  22
ATOM     22  N   UNL     1      46.862   6.173  13.988  0.00  0.00    +0.000 N 
ATOM     23  C   UNL     1      46.285   5.302  13.064  0.00  0.00    +0.000 A 
ATOM     24  N   UNL     1      45.986   4.096  13.575  0.00  0.00    +0.000 NA
ATOM     25  C   UNL     1      45.274   3.245  12.801  0.00  0.00    +0.000 A 
ATOM     26  C   UNL     1      44.832   3.557  11.540  0.00  0.00    +0.000 A 
ATOM     27  C   UNL     1      45.223   4.796  11.084  0.00  0.00    +0.000 A 
ATOM     28  N   UNL     1      45.941   5.683  11.824  0.00  0.00    +0.000 NA
ATOM     29  H   UNL     1      47.115   5.600  14.786  0.00  0.00    +0.000 HD
BRANCH  26  30
ATOM     30  C   UNL     1      44.018   2.583  10.789  0.00  0.00    +0.000 C 
ATOM     31  N   UNL     1      44.464   2.179   9.566  0.00  0.00    +0.000 N 
ATOM     32  O   UNL     1      42.944   2.187  11.232  0.00  0.00    +0.000 OA
ATOM     33  H   UNL     1      45.205   2.643   9.058  0.00  0.00    +0.000 HD
ATOM     34  H   UNL     1      43.819   1.615   9.028  0.00  0.00    +0.000 HD
ENDBRANCH  26  30
ENDBRANCH  19  22
ENDBRANCH   9  19
TORSDOF 4
ENDMDL
MODEL 4
REMARK VINA RESULT:    -6.252      3.050      7.009
REMARK INTER + INTRA:          -8.464
REMARK INTER:                  -7.732
REMARK INTRA:                  -0.732
REMARK UNBOUND:                -0.750
REMARK  Name = 
REMARK  6 active torsions:
REMARK  status: ('A' for Active; 'I' for Inactive)
REMARK    1  A    between atoms: C_1  and  C_2
REMARK    2  A    between atoms: C_7  and  C_8
REMARK    3  A    between atoms: C_13  and  C_14
REMARK    4  A    between atoms: C_14  and  N_15
REMARK    5  A    between atoms: C_19  and  C_20
REMARK    6  A    between atoms: C_29  and  C_30
REMARK                            x       y       z     vdW  Elec       q    Type
REMARK                         _______ _______ _______ _____ _____    ______ ____
ROOT
ATOM      1  C   UNL     1      49.864   3.652  17.811  0.00  0.00    +0.000 C 
ATOM      2  C   UNL     1      48.522   3.535  18.525  0.00  0.00    +0.000 C 
ATOM      3  C   UNL     1      47.513   4.635  18.146  0.00  0.00    +0.000 C 
ATOM      4  N   UNL     1      47.643   5.846  18.963  0.00  0.00    +0.000 N 
ATOM      5  C   UNL     1      48.028   7.034  18.382  0.00  0.00    +0.000 A 
ATOM      6  C   UNL     1      47.653   8.243  18.931  0.00  0.00    +0.000 A 
ATOM      7  C   UNL     1      48.014   9.400  18.266  0.00  0.00    +0.000 A 
ATOM      8  N   UNL     1      48.709   9.363  17.104  0.00  0.00    +0.000 NA
ATOM      9  C   UNL     1      49.021   8.153  16.603  0.00  0.00    +0.000 A 
ATOM     10  N   UNL     1      48.709   6.998  17.231  0.00  0.00    +0.000 NA
ATOM     11  C   UNL     1      47.779   5.623  20.403  0.00  0.00    +0.000 C 
ATOM     12  C   UNL     1      48.847   4.555  20.711  0.00  0.00    +0.000 C 
ATOM     13  C   UNL     1      50.276   5.086  20.640  0.00  0.00    +0.000 C 
ATOM     14  O   UNL     1      48.675   3.355  19.942  0.00  0.00    +0.000 OA
ENDROOT
BRANCH   7  15
ATOM     15  C   UNL     1      47.595  10.747  18.833  0.00  0.00    +0.000 C 
ATOM     16  F   UNL     1      48.656  11.516  19.230  0.00  0.00    +0.000 F 
ATOM     17  F   UNL     1      46.912  11.516  17.938  0.00  0.00    +0.000 F 
ATOM     18  F   UNL     1      46.796  10.645  19.934  0.00  0.00    +0.000 F 
ENDBRANCH   7  15
BRANCH   9  19
ATOM     19  C   UNL     1      49.677   8.051  15.208  0.00  0.00    +0.000 C 
ATOM     20  C   UNL     1      51.089   7.503  15.160  0.00  0.00    +0.000 C 
ATOM     21  C   UNL     1      50.881   8.966  14.954  0.00  0.00    +0.000 C 
BRANCH  19  22
ATOM     22  N   UNL     1      48.739   8.008  14.069  0.00  0.00    +0.000 N 
ATOM     23  C   UNL     1      47.788   7.006  13.880  0.00  0.00    +0.000 A 
ATOM     24  N   UNL     1      46.686   7.425  13.235  0.00  0.00    +0.000 NA
ATOM     25  C   UNL     1      45.784   6.488  12.861  0.00  0.00    +0.000 A 
ATOM     26  C   UNL     1      45.946   5.146  13.092  0.00  0.00    +0.000 A 
ATOM     27  C   UNL     1      47.081   4.816  13.796  0.00  0.00    +0.000 A 
ATOM     28  N   UNL     1      48.015   5.721  14.195  0.00  0.00    +0.000 NA
ATOM     29  H   UNL     1      48.267   8.880  13.854  0.00  0.00    +0.000 HD
BRANCH  26  30
ATOM     30  C   UNL     1      44.931   4.193  12.602  0.00  0.00    +0.000 C 
ATOM     31  N   UNL     1      45.279   2.879  12.498  0.00  0.00    +0.000 N 
ATOM     32  O   UNL     1      43.821   4.583  12.251  0.00  0.00    +0.000 OA
ATOM     33  H   UNL     1      46.232   2.547  12.545  0.00  0.00    +0.000 HD
ATOM     34  H   UNL     1      44.604   2.282  12.037  0.00  0.00    +0.000 HD
ENDBRANCH  26  30
ENDBRANCH  19  22
ENDBRANCH   9  19
TORSDOF 4
ENDMDL
MODEL 5
REMARK VINA RESULT:    -6.002      4.102      7.029
REMARK INTER + INTRA:          -8.156
REMARK INTER:                  -7.550
REMARK INTRA:                  -0.606
REMARK UNBOUND:                -0.750
REMARK  Name = 
REMARK  6 active torsions:
REMARK  status: ('A' for Active; 'I' for Inactive)
REMARK    1  A    between atoms: C_1  and  C_2
REMARK    2  A    between atoms: C_7  and  C_8
REMARK    3  A    between atoms: C_13  and  C_14
REMARK    4  A    between atoms: C_14  and  N_15
REMARK    5  A    between atoms: C_19  and  C_20
REMARK    6  A    between atoms: C_29  and  C_30
REMARK                            x       y       z     vdW  Elec       q    Type
REMARK                         _______ _______ _______ _____ _____    ______ ____
ROOT
ATOM      1  C   UNL     1      52.135   8.121  17.417  0.00  0.00    +0.000 C 
ATOM      2  C   UNL     1      51.558   9.430  16.888  0.00  0.00    +0.000 C 
ATOM      3  C   UNL     1      50.049   9.375  16.589  0.00  0.00    +0.000 C 
ATOM      4  N   UNL     1      49.743   8.898  15.237  0.00  0.00    +0.000 N 
ATOM      5  C   UNL     1      49.068   7.711  15.058  0.00  0.00    +0.000 A 
ATOM      6  C   UNL     1      48.307   7.495  13.928  0.00  0.00    +0.000 A 
ATOM      7  C   UNL     1      47.599   6.310  13.836  0.00  0.00    +0.000 A 
ATOM      8  N   UNL     1      47.638   5.382  14.823  0.00  0.00    +0.000 NA
ATOM      9  C   UNL     1      48.377   5.662  15.912  0.00  0.00    +0.000 A 
ATOM     10  N   UNL     1      49.101   6.797  16.034  0.00  0.00    +0.000 NA
ATOM     11  C   UNL     1      50.548   9.485  14.164  0.00  0.00    +0.000 C 
ATOM     12  C   UNL     1      52.052   9.453  14.505  0.00  0.00    +0.000 C 
ATOM     13  C   UNL     1      52.699   8.091  14.269  0.00  0.00    +0.000 C 
ATOM     14  O   UNL     1      52.340   9.972  15.812  0.00  0.00    +0.000 OA
ENDROOT
BRANCH   7  15
ATOM     15  C   UNL     1      46.731   6.054  12.615  0.00  0.00    +0.000 C 
ATOM     16  F   UNL     1      46.421   4.731  12.445  0.00  0.00    +0.000 F 
ATOM     17  F   UNL     1      45.531   6.698  12.665  0.00  0.00    +0.000 F 
ATOM     18  F   UNL     1      47.319   6.435  11.444  0.00  0.00    +0.000 F 
ENDBRANCH   7  15
BRANCH   9  19
ATOM     19  C   UNL     1      48.334   4.711  17.128  0.00  0.00    +0.000 C 
ATOM     20  C   UNL     1      47.227   3.674  17.141  0.00  0.00    +0.000 C 
ATOM     21  C   UNL     1      47.121   4.848  18.056  0.00  0.00    +0.000 C 
BRANCH  19  22
ATOM     22  N   UNL     1      49.605   4.565  17.865  0.00  0.00    +0.000 N 
ATOM     23  C   UNL     1      50.515   3.532  17.650  0.00  0.00    +0.000 A 
ATOM     24  N   UNL     1      51.791   3.878  17.894  0.00  0.00    +0.000 NA
ATOM     25  C   UNL     1      52.722   2.897  17.873  0.00  0.00    +0.000 A 
ATOM     26  C   UNL     1      52.429   1.578  17.635  0.00  0.00    +0.000 A 
ATOM     27  C   UNL     1      51.105   1.325  17.353  0.00  0.00    +0.000 A 
ATOM     28  N   UNL     1      50.134   2.278  17.358  0.00  0.00    +0.000 NA
ATOM     29  H   UNL     1      50.162   5.409  17.952  0.00  0.00    +0.000 HD
BRANCH  26  30
ATOM     30  C   UNL     1      53.505   0.570  17.682  0.00  0.00    +0.000 C 
ATOM     31  N   UNL     1      53.293  -0.564  18.408  0.00  0.00    +0.000 N 
ATOM     32  O   UNL     1      54.581   0.773  17.126  0.00  0.00    +0.000 OA
ATOM     33  H   UNL     1      52.535  -0.674  19.068  0.00  0.00    +0.000 HD
ATOM     34  H   UNL     1      54.098  -1.167  18.525  0.00  0.00    +0.000 HD
ENDBRANCH  26  30
ENDBRANCH  19  22
ENDBRANCH   9  19
TORSDOF 4
ENDMDL
MODEL 6
REMARK VINA RESULT:    -5.959      4.058      5.763
REMARK INTER + INTRA:          -8.102
REMARK INTER:                  -7.292
REMARK INTRA:                  -0.810
REMARK UNBOUND:                -0.750
REMARK  Name = 
REMARK  6 active torsions:
REMARK  status: ('A' for Active; 'I' for Inactive)
REMARK    1  A    between atoms: C_1  and  C_2
REMARK    2  A    between atoms: C_7  and  C_8
REMARK    3  A    between atoms: C_13  and  C_14
REMARK    4  A    between atoms: C_14  and  N_15
REMARK    5  A    between atoms: C_19  and  C_20
REMARK    6  A    between atoms: C_29  and  C_30
REMARK                            x       y       z     vdW  Elec       q    Type
REMARK                         _______ _______ _______ _____ _____    ______ ____
ROOT
ATOM      1  C   UNL     1      45.002   5.140  13.626  0.00  0.00    +0.000 C 
ATOM      2  C   UNL     1      45.799   5.178  12.327  0.00  0.00    +0.000 C 
ATOM      3  C   UNL     1      47.321   5.045  12.520  0.00  0.00    +0.000 C 
ATOM      4  N   UNL     1      47.987   6.329  12.760  0.00  0.00    +0.000 N 
ATOM      5  C   UNL     1      48.603   6.574  13.969  0.00  0.00    +0.000 A 
ATOM      6  C   UNL     1      49.653   7.464  14.058  0.00  0.00    +0.000 A 
ATOM      7  C   UNL     1      50.273   7.618  15.285  0.00  0.00    +0.000 A 
ATOM      8  N   UNL     1      49.875   6.917  16.374  0.00  0.00    +0.000 NA
ATOM      9  C   UNL     1      48.863   6.044  16.217  0.00  0.00    +0.000 A 
ATOM     10  N   UNL     1      48.214   5.878  15.043  0.00  0.00    +0.000 NA
ATOM     11  C   UNL     1      47.586   7.424  11.875  0.00  0.00    +0.000 C 
ATOM     12  C   UNL     1      46.051   7.535  11.775  0.00  0.00    +0.000 C 
ATOM     13  C   UNL     1      45.414   8.243  12.968  0.00  0.00    +0.000 C 
ATOM     14  O   UNL     1      45.417   6.279  11.488  0.00  0.00    +0.000 OA
ENDROOT
BRANCH   7  15
ATOM     15  C   UNL     1      51.450   8.572  15.410  0.00  0.00    +0.000 C 
ATOM     16  F   UNL     1      51.119   9.872  15.136  0.00  0.00    +0.000 F 
ATOM     17  F   UNL     1      51.987   8.598  16.663  0.00  0.00    +0.000 F 
ATOM     18  F   UNL     1      52.476   8.278  14.562  0.00  0.00    +0.000 F 
ENDBRANCH   7  15
BRANCH   9  19
ATOM     19  C   UNL     1      48.472   5.112  17.384  0.00  0.00    +0.000 C 
ATOM     20  C   UNL     1      47.170   4.348  17.237  0.00  0.00    +0.000 C 
ATOM     21  C   UNL     1      47.221   5.505  18.179  0.00  0.00    +0.000 C 
BRANCH  19  22
ATOM     22  N   UNL     1      49.586   4.677  18.249  0.00  0.00    +0.000 N 
ATOM     23  C   UNL     1      50.489   3.671  17.909  0.00  0.00    +0.000 A 
ATOM     24  N   UNL     1      51.710   3.840  18.444  0.00  0.00    +0.000 NA
ATOM     25  C   UNL     1      52.601   2.831  18.306  0.00  0.00    +0.000 A 
ATOM     26  C   UNL     1      52.316   1.651  17.668  0.00  0.00    +0.000 A 
ATOM     27  C   UNL     1      51.058   1.585  17.114  0.00  0.00    +0.000 A 
ATOM     28  N   UNL     1      50.130   2.574  17.223  0.00  0.00    +0.000 NA
ATOM     29  H   UNL     1      50.142   5.421  18.657  0.00  0.00    +0.000 HD
BRANCH  26  30
ATOM     30  C   UNL     1      53.337   0.587  17.610  0.00  0.00    +0.000 C 
ATOM     31  N   UNL     1      53.163  -0.515  18.393  0.00  0.00    +0.000 N 
ATOM     32  O   UNL     1      54.341   0.716  16.915  0.00  0.00    +0.000 OA
ATOM     33  H   UNL     1      52.491  -0.567  19.146  0.00  0.00    +0.000 HD
ATOM     34  H   UNL     1      53.943  -1.158  18.425  0.00  0.00    +0.000 HD
ENDBRANCH  26  30
ENDBRANCH  19  22
ENDBRANCH   9  19
TORSDOF 4
ENDMDL
MODEL 7
REMARK VINA RESULT:    -4.910      4.230      6.516
REMARK INTER + INTRA:          -6.808
REMARK INTER:                  -6.023
REMARK INTRA:                  -0.785
REMARK UNBOUND:                -0.750
REMARK  Name = 
REMARK  6 active torsions:
REMARK  status: ('A' for Active; 'I' for Inactive)
REMARK    1  A    between atoms: C_1  and  C_2
REMARK    2  A    between atoms: C_7  and  C_8
REMARK    3  A    between atoms: C_13  and  C_14
REMARK    4  A    between atoms: C_14  and  N_15
REMARK    5  A    between atoms: C_19  and  C_20
REMARK    6  A    between atoms: C_29  and  C_30
REMARK                            x       y       z     vdW  Elec       q    Type
REMARK                         _______ _______ _______ _____ _____    ______ ____
ROOT
ATOM      1  C   UNL     1      52.839   9.720  13.781  0.00  0.00    +0.000 C 
ATOM      2  C   UNL     1      52.013  10.258  12.618  0.00  0.00    +0.000 C 
ATOM      3  C   UNL     1      50.493  10.092  12.799  0.00  0.00    +0.000 C 
ATOM      4  N   UNL     1      49.992   8.798  12.326  0.00  0.00    +0.000 N 
ATOM      5  C   UNL     1      49.447   7.899  13.218  0.00  0.00    +0.000 A 
ATOM      6  C   UNL     1      48.514   6.972  12.804  0.00  0.00    +0.000 A 
ATOM      7  C   UNL     1      47.955   6.140  13.757  0.00  0.00    +0.000 A 
ATOM      8  N   UNL     1      48.300   6.228  15.064  0.00  0.00    +0.000 NA
ATOM      9  C   UNL     1      49.195   7.170  15.411  0.00  0.00    +0.000 A 
ATOM     10  N   UNL     1      49.783   7.989  14.509  0.00  0.00    +0.000 NA
ATOM     11  C   UNL     1      50.493   8.366  11.021  0.00  0.00    +0.000 C 
ATOM     12  C   UNL     1      52.026   8.504  10.931  0.00  0.00    +0.000 C 
ATOM     13  C   UNL     1      52.780   7.367  11.616  0.00  0.00    +0.000 C 
ATOM     14  O   UNL     1      52.497   9.795  11.348  0.00  0.00    +0.000 OA
ENDROOT
BRANCH   7  15
ATOM     15  C   UNL     1      46.905   5.125  13.337  0.00  0.00    +0.000 C 
ATOM     16  F   UNL     1      46.508   5.271  12.035  0.00  0.00    +0.000 F 
ATOM     17  F   UNL     1      47.336   3.835  13.435  0.00  0.00    +0.000 F 
ATOM     18  F   UNL     1      45.757   5.199  14.070  0.00  0.00    +0.000 F 
ENDBRANCH   7  15
BRANCH   9  19
ATOM     19  C   UNL     1      49.508   7.414  16.903  0.00  0.00    +0.000 C 
ATOM     20  C   UNL     1      48.323   7.677  17.812  0.00  0.00    +0.000 C 
ATOM     21  C   UNL     1      49.209   8.818  17.441  0.00  0.00    +0.000 C 
BRANCH  19  22
ATOM     22  N   UNL     1      50.804   6.885  17.374  0.00  0.00    +0.000 N 
ATOM     23  C   UNL     1      51.127   5.529  17.401  0.00  0.00    +0.000 A 
ATOM     24  N   UNL     1      52.439   5.285  17.237  0.00  0.00    +0.000 NA
ATOM     25  C   UNL     1      52.869   4.015  17.414  0.00  0.00    +0.000 A 
ATOM     26  C   UNL     1      52.042   2.978  17.765  0.00  0.00    +0.000 A 
ATOM     27  C   UNL     1      50.710   3.312  17.868  0.00  0.00    +0.000 A 
ATOM     28  N   UNL     1      50.232   4.574  17.695  0.00  0.00    +0.000 NA
ATOM     29  H   UNL     1      51.627   7.358  17.019  0.00  0.00    +0.000 HD
BRANCH  26  30
ATOM     30  C   UNL     1      52.610   1.634  17.985  0.00  0.00    +0.000 C 
ATOM     31  N   UNL     1      52.117   0.599  17.248  0.00  0.00    +0.000 N 
ATOM     32  O   UNL     1      53.465   1.446  18.845  0.00  0.00    +0.000 OA
ATOM     33  H   UNL     1      51.264   0.652  16.707  0.00  0.00    +0.000 HD
ATOM     34  H   UNL     1      52.435  -0.323  17.518  0.00  0.00    +0.000 HD
ENDBRANCH  26  30
ENDBRANCH  19  22
ENDBRANCH   9  19
TORSDOF 4
ENDMDL
MODEL 8
REMARK VINA RESULT:    -4.772     10.436     12.621
REMARK INTER + INTRA:          -6.638
REMARK INTER:                  -5.985
REMARK INTRA:                  -0.652
REMARK UNBOUND:                -0.750
REMARK  Name = 
REMARK  6 active torsions:
REMARK  status: ('A' for Active; 'I' for Inactive)
REMARK    1  A    between atoms: C_1  and  C_2
REMARK    2  A    between atoms: C_7  and  C_8
REMARK    3  A    between atoms: C_13  and  C_14
REMARK    4  A    between atoms: C_14  and  N_15
REMARK    5  A    between atoms: C_19  and  C_20
REMARK    6  A    between atoms: C_29  and  C_30
REMARK                            x       y       z     vdW  Elec       q    Type
REMARK                         _______ _______ _______ _____ _____    ______ ____
ROOT
ATOM      1  C   UNL     1      38.036  -3.162  19.676  0.00  0.00    +0.000 C 
ATOM      2  C   UNL     1      39.536  -3.062  19.928  0.00  0.00    +0.000 C 
ATOM      3  C   UNL     1      40.295  -2.232  18.875  0.00  0.00    +0.000 C 
ATOM      4  N   UNL     1      40.721  -3.020  17.714  0.00  0.00    +0.000 N 
ATOM      5  C   UNL     1      40.199  -2.752  16.467  0.00  0.00    +0.000 A 
ATOM      6  C   UNL     1      40.913  -3.049  15.325  0.00  0.00    +0.000 A 
ATOM      7  C   UNL     1      40.365  -2.696  14.105  0.00  0.00    +0.000 A 
ATOM      8  N   UNL     1      39.166  -2.071  14.020  0.00  0.00    +0.000 NA
ATOM      9  C   UNL     1      38.530  -1.784  15.171  0.00  0.00    +0.000 A 
ATOM     10  N   UNL     1      39.018  -2.130  16.383  0.00  0.00    +0.000 NA
ATOM     11  C   UNL     1      41.336  -4.313  18.020  0.00  0.00    +0.000 C 
ATOM     12  C   UNL     1      40.493  -5.113  19.034  0.00  0.00    +0.000 C 
ATOM     13  C   UNL     1      39.292  -5.815  18.405  0.00  0.00    +0.000 C 
ATOM     14  O   UNL     1      40.129  -4.344  20.189  0.00  0.00    +0.000 OA
ENDROOT
BRANCH   7  15
ATOM     15  C   UNL     1      41.139  -2.986  12.829  0.00  0.00    +0.000 C 
ATOM     16  F   UNL     1      42.046  -4.001  12.970  0.00  0.00    +0.000 F 
ATOM     17  F   UNL     1      40.339  -3.364  11.792  0.00  0.00    +0.000 F 
ATOM     18  F   UNL     1      41.862  -1.920  12.382  0.00  0.00    +0.000 F 
ENDBRANCH   7  15
BRANCH   9  19
ATOM     19  C   UNL     1      37.237  -0.940  15.138  0.00  0.00    +0.000 C 
ATOM     20  C   UNL     1      35.936  -1.680  15.376  0.00  0.00    +0.000 C 
ATOM     21  C   UNL     1      36.263  -1.231  13.991  0.00  0.00    +0.000 C 
BRANCH  19  22
ATOM     22  N   UNL     1      37.417   0.505  15.383  0.00  0.00    +0.000 N 
ATOM     23  C   UNL     1      37.808   1.044  16.607  0.00  0.00    +0.000 A 
ATOM     24  N   UNL     1      38.504   2.189  16.495  0.00  0.00    +0.000 NA
ATOM     25  C   UNL     1      38.781   2.870  17.630  0.00  0.00    +0.000 A 
ATOM     26  C   UNL     1      38.376   2.463  18.876  0.00  0.00    +0.000 A 
ATOM     27  C   UNL     1      37.708   1.259  18.899  0.00  0.00    +0.000 A 
ATOM     28  N   UNL     1      37.410   0.537  17.785  0.00  0.00    +0.000 NA
ATOM     29  H   UNL     1      37.947   1.008  14.679  0.00  0.00    +0.000 HD
BRANCH  26  30
ATOM     30  C   UNL     1      38.682   3.298  20.053  0.00  0.00    +0.000 C 
ATOM     31  N   UNL     1      39.988   3.437  20.421  0.00  0.00    +0.000 N 
ATOM     32  O   UNL     1      37.782   3.811  20.711  0.00  0.00    +0.000 OA
ATOM     33  H   UNL     1      40.735   2.856  20.066  0.00  0.00    +0.000 HD
ATOM     34  H   UNL     1      40.147   3.905  21.303  0.00  0.00    +0.000 HD
ENDBRANCH  26  30
ENDBRANCH  19  22
ENDBRANCH   9  19
TORSDOF 4
ENDMDL
MODEL 9
REMARK VINA RESULT:    -4.748     10.336     12.821
REMARK INTER + INTRA:          -6.608
REMARK INTER:                  -5.686
REMARK INTRA:                  -0.921
REMARK UNBOUND:                -0.750
REMARK  Name = 
REMARK  6 active torsions:
REMARK  status: ('A' for Active; 'I' for Inactive)
REMARK    1  A    between atoms: C_1  and  C_2
REMARK    2  A    between atoms: C_7  and  C_8
REMARK    3  A    between atoms: C_13  and  C_14
REMARK    4  A    between atoms: C_14  and  N_15
REMARK    5  A    between atoms: C_19  and  C_20
REMARK    6  A    between atoms: C_29  and  C_30
REMARK                            x       y       z     vdW  Elec       q    Type
REMARK                         _______ _______ _______ _____ _____    ______ ____
ROOT
ATOM      1  C   UNL     1      39.604  -5.093  18.601  0.00  0.00    +0.000 C 
ATOM      2  C   UNL     1      41.037  -4.599  18.440  0.00  0.00    +0.000 C 
ATOM      3  C   UNL     1      41.177  -3.368  17.525  0.00  0.00    +0.000 C 
ATOM      4  N   UNL     1      41.323  -3.714  16.108  0.00  0.00    +0.000 N 
ATOM      5  C   UNL     1      40.350  -3.352  15.202  0.00  0.00    +0.000 A 
ATOM      6  C   UNL     1      40.659  -3.159  13.872  0.00  0.00    +0.000 A 
ATOM      7  C   UNL     1      39.654  -2.732  13.025  0.00  0.00    +0.000 A 
ATOM      8  N   UNL     1      38.397  -2.500  13.476  0.00  0.00    +0.000 NA
ATOM      9  C   UNL     1      38.163  -2.680  14.789  0.00  0.00    +0.000 A 
ATOM     10  N   UNL     1      39.111  -3.117  15.648  0.00  0.00    +0.000 NA
ATOM     11  C   UNL     1      42.270  -4.792  15.817  0.00  0.00    +0.000 C 
ATOM     12  C   UNL     1      42.035  -6.012  16.729  0.00  0.00    +0.000 C 
ATOM     13  C   UNL     1      40.870  -6.891  16.279  0.00  0.00    +0.000 C 
ATOM     14  O   UNL     1      41.946  -5.663  18.118  0.00  0.00    +0.000 OA
ENDROOT
BRANCH   7  15
ATOM     15  C   UNL     1      39.969  -2.485  11.559  0.00  0.00    +0.000 C 
ATOM     16  F   UNL     1      41.224  -1.976  11.358  0.00  0.00    +0.000 F 
ATOM     17  F   UNL     1      39.919  -3.618  10.802  0.00  0.00    +0.000 F 
ATOM     18  F   UNL     1      39.123  -1.595  10.966  0.00  0.00    +0.000 F 
ENDBRANCH   7  15
BRANCH   9  19
ATOM     19  C   UNL     1      36.793  -2.284  15.381  0.00  0.00    +0.000 C 
ATOM     20  C   UNL     1      36.148  -3.279  16.325  0.00  0.00    +0.000 C 
ATOM     21  C   UNL     1      35.593  -3.134  14.947  0.00  0.00    +0.000 C 
BRANCH  19  22
ATOM     22  N   UNL     1      36.498  -0.837  15.385  0.00  0.00    +0.000 N 
ATOM     23  C   UNL     1      37.205   0.099  16.138  0.00  0.00    +0.000 A 
ATOM     24  N   UNL     1      37.247   1.320  15.577  0.00  0.00    +0.000 NA
ATOM     25  C   UNL     1      37.766   2.331  16.311  0.00  0.00    +0.000 A 
ATOM     26  C   UNL     1      38.230   2.176  17.592  0.00  0.00    +0.000 A 
ATOM     27  C   UNL     1      38.188   0.884  18.067  0.00  0.00    +0.000 A 
ATOM     28  N   UNL     1      37.678  -0.164  17.366  0.00  0.00    +0.000 NA
ATOM     29  H   UNL     1      36.363  -0.413  14.473  0.00  0.00    +0.000 HD
BRANCH  26  30
ATOM     30  C   UNL     1      38.733   3.348  18.333  0.00  0.00    +0.000 C 
ATOM     31  N   UNL     1      39.198   4.411  17.617  0.00  0.00    +0.000 N 
ATOM     32  O   UNL     1      38.780   3.344  19.560  0.00  0.00    +0.000 OA
ATOM     33  H   UNL     1      39.401   4.374  16.628  0.00  0.00    +0.000 HD
ATOM     34  H   UNL     1      39.653   5.137  18.155  0.00  0.00    +0.000 HD
ENDBRANCH  26  30
ENDBRANCH  19  22
ENDBRANCH   9  19
TORSDOF 4
ENDMDL
