MODEL 1
REMARK VINA RESULT:    -7.660      0.000      0.000
REMARK INTER + INTRA:         -10.587
REMARK INTER:                  -9.899
REMARK INTRA:                  -0.688
REMARK UNBOUND:                -0.688
REMARK  Name = 
REMARK  5 active torsions:
REMARK  status: ('A' for Active; 'I' for Inactive)
REMARK    1  A    between atoms: N_5  and  C_6
REMARK    2  A    between atoms: C_6  and  C_7
REMARK    3  A    between atoms: C_7  and  C_8
REMARK    4  A    between atoms: C_12  and  O_13
REMARK    5  A    between atoms: O_13  and  C_14
REMARK                            x       y       z     vdW  Elec       q    Type
REMARK                         _______ _______ _______ _____ _____    ______ ____
ROOT
ATOM      1  C   UNL     1      45.321   4.402  12.398  0.00  0.00    +0.000 A 
ATOM      2  C   UNL     1      45.661   5.466  11.550  0.00  0.00    +0.000 A 
ATOM      3  C   UNL     1      46.688   6.328  11.906  0.00  0.00    +0.000 A 
ATOM      4  N   UNL     1      47.411   6.208  13.033  0.00  0.00    +0.000 NA
ATOM      5  C   UNL     1      47.077   5.189  13.848  0.00  0.00    +0.000 A 
ATOM      6  C   UNL     1      46.054   4.279  13.587  0.00  0.00    +0.000 A 
ENDROOT
BRANCH   1   7
ATOM      7  C   UNL     1      44.211   3.407  12.072  0.00  0.00    +0.000 C 
BRANCH   7   8
ATOM      8  C   UNL     1      43.953   3.239  10.567  0.00  0.00    +0.000 C 
BRANCH   8  13
ATOM      9  C   UNL     1      47.200   2.464   6.714  0.00  0.00    +0.000 A 
ATOM     10  C   UNL     1      46.572   3.609   7.175  0.00  0.00    +0.000 A 
ATOM     11  C   UNL     1      45.708   3.513   8.262  0.00  0.00    +0.000 A 
ATOM     12  C   UNL     1      45.475   2.279   8.875  0.00  0.00    +0.000 A 
ATOM     13  N   UNL     1      44.629   2.120   9.950  0.00  0.00    +0.000 N 
ATOM     14  N   UNL     1      46.082   1.165   8.424  0.00  0.00    +0.000 NA
ATOM     15  C   UNL     1      46.923   1.277   7.366  0.00  0.00    +0.000 A 
ATOM     16  H   UNL     1      44.558   1.174  10.297  0.00  0.00    +0.000 HD
ENDBRANCH   8  13
ENDBRANCH   7   8
ENDBRANCH   1   7
BRANCH   5  17
ATOM     17  O   UNL     1      47.782   5.049  15.027  0.00  0.00    +0.000 OA
BRANCH  17  18
ATOM     18  C   UNL     1      47.263   4.047  15.940  0.00  0.00    +0.000 C 
ATOM     19  C   UNL     1      47.209   4.460  17.417  0.00  0.00    +0.000 C 
ATOM     20  O   UNL     1      47.889   3.252  17.834  0.00  0.00    +0.000 OA
ATOM     21  C   UNL     1      48.192   2.935  16.452  0.00  0.00    +0.000 C 
ENDBRANCH  17  18
ENDBRANCH   5  17
TORSDOF 5
ENDMDL
MODEL 2
REMARK VINA RESULT:    -7.046      2.330      3.987
REMARK INTER + INTRA:          -9.794
REMARK INTER:                  -9.304
REMARK INTRA:                  -0.490
REMARK UNBOUND:                -0.688
REMARK  Name = 
REMARK  5 active torsions:
REMARK  status: ('A' for Active; 'I' for Inactive)
REMARK    1  A    between atoms: N_5  and  C_6
REMARK    2  A    between atoms: C_6  and  C_7
REMARK    3  A    between atoms: C_7  and  C_8
REMARK    4  A    between atoms: C_12  and  O_13
REMARK    5  A    between atoms: O_13  and  C_14
REMARK                            x       y       z     vdW  Elec       q    Type
REMARK                         _______ _______ _______ _____ _____    ______ ____
ROOT
ATOM      1  C   UNL     1      45.210   4.164  12.277  0.00  0.00    +0.000 A 
ATOM      2  C   UNL     1      46.121   3.735  13.253  0.00  0.00    +0.000 A 
ATOM      3  C   UNL     1      47.123   4.592  13.683  0.00  0.00    +0.000 A 
ATOM      4  N   UNL     1      47.283   5.847  13.228  0.00  0.00    +0.000 NA
ATOM      5  C   UNL     1      46.410   6.253  12.287  0.00  0.00    +0.000 A 
ATOM      6  C   UNL     1      45.379   5.464  11.780  0.00  0.00    +0.000 A 
ENDROOT
BRANCH   1   7
ATOM      7  C   UNL     1      44.076   3.283  11.761  0.00  0.00    +0.000 C 
BRANCH   7   8
ATOM      8  C   UNL     1      44.046   3.147  10.230  0.00  0.00    +0.000 C 
BRANCH   8  13
ATOM      9  C   UNL     1      47.258   2.322   6.358  0.00  0.00    +0.000 A 
ATOM     10  C   UNL     1      46.531   3.440   6.732  0.00  0.00    +0.000 A 
ATOM     11  C   UNL     1      45.708   3.366   7.852  0.00  0.00    +0.000 A 
ATOM     12  C   UNL     1      45.614   2.180   8.585  0.00  0.00    +0.000 A 
ATOM     13  N   UNL     1      44.814   2.045   9.698  0.00  0.00    +0.000 N 
ATOM     14  N   UNL     1      46.316   1.091   8.220  0.00  0.00    +0.000 NA
ATOM     15  C   UNL     1      47.116   1.182   7.127  0.00  0.00    +0.000 A 
ATOM     16  H   UNL     1      44.846   1.133  10.135  0.00  0.00    +0.000 HD
ENDBRANCH   8  13
ENDBRANCH   7   8
ENDBRANCH   1   7
BRANCH   5  17
ATOM     17  O   UNL     1      46.558   7.528  11.778  0.00  0.00    +0.000 OA
BRANCH  17  18
ATOM     18  C   UNL     1      45.566   8.489  12.224  0.00  0.00    +0.000 C 
ATOM     19  C   UNL     1      44.404   8.742  11.254  0.00  0.00    +0.000 C 
ATOM     20  O   UNL     1      44.580  10.176  11.333  0.00  0.00    +0.000 OA
ATOM     21  C   UNL     1      45.831   9.992  12.042  0.00  0.00    +0.000 C 
ENDBRANCH  17  18
ENDBRANCH   5  17
TORSDOF 5
ENDMDL
MODEL 3
REMARK VINA RESULT:    -6.943      2.297      3.458
REMARK INTER + INTRA:          -9.660
REMARK INTER:                  -8.962
REMARK INTRA:                  -0.698
REMARK UNBOUND:                -0.688
REMARK  Name = 
REMARK  5 active torsions:
REMARK  status: ('A' for Active; 'I' for Inactive)
REMARK    1  A    between atoms: N_5  and  C_6
REMARK    2  A    between atoms: C_6  and  C_7
REMARK    3  A    between atoms: C_7  and  C_8
REMARK    4  A    between atoms: C_12  and  O_13
REMARK    5  A    between atoms: O_13  and  C_14
REMARK                            x       y       z     vdW  Elec       q    Type
REMARK                         _______ _______ _______ _____ _____    ______ ____
ROOT
ATOM      1  C   UNL     1      45.076   4.980  12.041  0.00  0.00    +0.000 A 
ATOM      2  C   UNL     1      45.481   3.744  12.567  0.00  0.00    +0.000 A 
ATOM      3  C   UNL     1      46.624   3.671  13.348  0.00  0.00    +0.000 A 
ATOM      4  N   UNL     1      47.390   4.731  13.658  0.00  0.00    +0.000 NA
ATOM      5  C   UNL     1      47.002   5.915  13.146  0.00  0.00    +0.000 A 
ATOM      6  C   UNL     1      45.879   6.090  12.340  0.00  0.00    +0.000 A 
ENDROOT
BRANCH   1   7
ATOM      7  C   UNL     1      43.826   5.142  11.181  0.00  0.00    +0.000 C 
BRANCH   7   8
ATOM      8  C   UNL     1      43.788   4.209   9.961  0.00  0.00    +0.000 C 
BRANCH   8  13
ATOM      9  C   UNL     1      47.163   1.768   7.023  0.00  0.00    +0.000 A 
ATOM     10  C   UNL     1      46.354   1.330   8.058  0.00  0.00    +0.000 A 
ATOM     11  C   UNL     1      45.525   2.245   8.700  0.00  0.00    +0.000 A 
ATOM     12  C   UNL     1      45.514   3.587   8.308  0.00  0.00    +0.000 A 
ATOM     13  N   UNL     1      44.720   4.539   8.907  0.00  0.00    +0.000 N 
ATOM     14  N   UNL     1      46.304   4.014   7.306  0.00  0.00    +0.000 NA
ATOM     15  C   UNL     1      47.103   3.108   6.689  0.00  0.00    +0.000 A 
ATOM     16  H   UNL     1      44.808   5.469   8.521  0.00  0.00    +0.000 HD
ENDBRANCH   8  13
ENDBRANCH   7   8
ENDBRANCH   1   7
BRANCH   5  17
ATOM     17  O   UNL     1      47.778   7.023  13.422  0.00  0.00    +0.000 OA
BRANCH  17  18
ATOM     18  C   UNL     1      49.075   7.045  12.772  0.00  0.00    +0.000 C 
ATOM     19  C   UNL     1      50.165   7.849  13.492  0.00  0.00    +0.000 C 
ATOM     20  O   UNL     1      50.502   8.574  12.286  0.00  0.00    +0.000 OA
ATOM     21  C   UNL     1      49.330   8.036  11.625  0.00  0.00    +0.000 C 
ENDBRANCH  17  18
ENDBRANCH   5  17
TORSDOF 5
ENDMDL
MODEL 4
REMARK VINA RESULT:    -6.764      2.173      2.596
REMARK INTER + INTRA:          -9.430
REMARK INTER:                  -8.904
REMARK INTRA:                  -0.526
REMARK UNBOUND:                -0.688
REMARK  Name = 
REMARK  5 active torsions:
REMARK  status: ('A' for Active; 'I' for Inactive)
REMARK    1  A    between atoms: N_5  and  C_6
REMARK    2  A    between atoms: C_6  and  C_7
REMARK    3  A    between atoms: C_7  and  C_8
REMARK    4  A    between atoms: C_12  and  O_13
REMARK    5  A    between atoms: O_13  and  C_14
REMARK                            x       y       z     vdW  Elec       q    Type
REMARK                         _______ _______ _______ _____ _____    ______ ____
ROOT
ATOM      1  C   UNL     1      44.944   4.890  11.911  0.00  0.00    +0.000 A 
ATOM      2  C   UNL     1      44.487   6.074  11.315  0.00  0.00    +0.000 A 
ATOM      3  C   UNL     1      45.117   7.276  11.601  0.00  0.00    +0.000 A 
ATOM      4  N   UNL     1      46.172   7.392  12.426  0.00  0.00    +0.000 NA
ATOM      5  C   UNL     1      46.603   6.253  13.003  0.00  0.00    +0.000 A 
ATOM      6  C   UNL     1      46.031   5.001  12.790  0.00  0.00    +0.000 A 
ENDROOT
BRANCH   1   7
ATOM      7  C   UNL     1      44.310   3.529  11.639  0.00  0.00    +0.000 C 
BRANCH   7   8
ATOM      8  C   UNL     1      44.110   3.227  10.146  0.00  0.00    +0.000 C 
BRANCH   8  13
ATOM      9  C   UNL     1      47.345   2.174   6.349  0.00  0.00    +0.000 A 
ATOM     10  C   UNL     1      46.664   3.332   6.686  0.00  0.00    +0.000 A 
ATOM     11  C   UNL     1      45.820   3.320   7.793  0.00  0.00    +0.000 A 
ATOM     12  C   UNL     1      45.659   2.155   8.548  0.00  0.00    +0.000 A 
ATOM     13  N   UNL     1      44.835   2.079   9.650  0.00  0.00    +0.000 N 
ATOM     14  N   UNL     1      46.316   1.028   8.218  0.00  0.00    +0.000 NA
ATOM     15  C   UNL     1      47.138   1.059   7.138  0.00  0.00    +0.000 A 
ATOM     16  H   UNL     1      44.818   1.177  10.105  0.00  0.00    +0.000 HD
ENDBRANCH   8  13
ENDBRANCH   7   8
ENDBRANCH   1   7
BRANCH   5  17
ATOM     17  O   UNL     1      47.671   6.337  13.875  0.00  0.00    +0.000 OA
BRANCH  17  18
ATOM     18  C   UNL     1      48.282   7.649  13.978  0.00  0.00    +0.000 C 
ATOM     19  C   UNL     1      49.794   7.698  13.728  0.00  0.00    +0.000 C 
ATOM     20  O   UNL     1      50.027   8.438  14.950  0.00  0.00    +0.000 OA
ATOM     21  C   UNL     1      48.656   8.204  15.361  0.00  0.00    +0.000 C 
ENDBRANCH  17  18
ENDBRANCH   5  17
TORSDOF 5
ENDMDL
MODEL 5
REMARK VINA RESULT:    -6.425      3.667      7.618
REMARK INTER + INTRA:          -8.991
REMARK INTER:                  -8.523
REMARK INTRA:                  -0.468
REMARK UNBOUND:                -0.688
REMARK  Name = 
REMARK  5 active torsions:
REMARK  status: ('A' for Active; 'I' for Inactive)
REMARK    1  A    between atoms: N_5  and  C_6
REMARK    2  A    between atoms: C_6  and  C_7
REMARK    3  A    between atoms: C_7  and  C_8
REMARK    4  A    between atoms: C_12  and  O_13
REMARK    5  A    between atoms: O_13  and  C_14
REMARK                            x       y       z     vdW  Elec       q    Type
REMARK                         _______ _______ _______ _____ _____    ______ ____
ROOT
ATOM      1  C   UNL     1      45.093   5.017  10.371  0.00  0.00    +0.000 A 
ATOM      2  C   UNL     1      44.395   3.999  11.037  0.00  0.00    +0.000 A 
ATOM      3  C   UNL     1      44.146   2.799  10.389  0.00  0.00    +0.000 A 
ATOM      4  N   UNL     1      44.545   2.527   9.134  0.00  0.00    +0.000 NA
ATOM      5  C   UNL     1      45.209   3.509   8.496  0.00  0.00    +0.000 A 
ATOM      6  C   UNL     1      45.497   4.753   9.055  0.00  0.00    +0.000 A 
ENDROOT
BRANCH   1   7
ATOM      7  C   UNL     1      45.413   6.361  11.020  0.00  0.00    +0.000 C 
BRANCH   7   8
ATOM      8  C   UNL     1      45.425   6.319  12.556  0.00  0.00    +0.000 C 
BRANCH   8  13
ATOM      9  C   UNL     1      49.427   8.569  14.771  0.00  0.00    +0.000 A 
ATOM     10  C   UNL     1      48.286   9.088  14.182  0.00  0.00    +0.000 A 
ATOM     11  C   UNL     1      47.352   8.213  13.636  0.00  0.00    +0.000 A 
ATOM     12  C   UNL     1      47.565   6.833  13.677  0.00  0.00    +0.000 A 
ATOM     13  N   UNL     1      46.680   5.919  13.149  0.00  0.00    +0.000 N 
ATOM     14  N   UNL     1      48.676   6.328  14.244  0.00  0.00    +0.000 NA
ATOM     15  C   UNL     1      49.575   7.195  14.775  0.00  0.00    +0.000 A 
ATOM     16  H   UNL     1      46.957   4.952  13.253  0.00  0.00    +0.000 HD
ENDBRANCH   8  13
ENDBRANCH   7   8
ENDBRANCH   1   7
BRANCH   5  17
ATOM     17  O   UNL     1      45.614   3.275   7.197  0.00  0.00    +0.000 OA
BRANCH  17  18
ATOM     18  C   UNL     1      47.006   2.894   7.044  0.00  0.00    +0.000 C 
ATOM     19  C   UNL     1      47.488   2.707   5.600  0.00  0.00    +0.000 C 
ATOM     20  O   UNL     1      48.057   1.410   5.902  0.00  0.00    +0.000 OA
ATOM     21  C   UNL     1      47.410   1.419   7.199  0.00  0.00    +0.000 C 
ENDBRANCH  17  18
ENDBRANCH   5  17
TORSDOF 5
ENDMDL
MODEL 6
REMARK VINA RESULT:    -6.245      3.100      7.596
REMARK INTER + INTRA:          -8.759
REMARK INTER:                  -8.387
REMARK INTRA:                  -0.371
REMARK UNBOUND:                -0.688
REMARK  Name = 
REMARK  5 active torsions:
REMARK  status: ('A' for Active; 'I' for Inactive)
REMARK    1  A    between atoms: N_5  and  C_6
REMARK    2  A    between atoms: C_6  and  C_7
REMARK    3  A    between atoms: C_7  and  C_8
REMARK    4  A    between atoms: C_12  and  O_13
REMARK    5  A    between atoms: O_13  and  C_14
REMARK                            x       y       z     vdW  Elec       q    Type
REMARK                         _______ _______ _______ _____ _____    ______ ____
ROOT
ATOM      1  C   UNL     1      45.019   5.391  12.050  0.00  0.00    +0.000 A 
ATOM      2  C   UNL     1      43.696   4.928  12.066  0.00  0.00    +0.000 A 
ATOM      3  C   UNL     1      43.126   4.434  10.902  0.00  0.00    +0.000 A 
ATOM      4  N   UNL     1      43.773   4.353   9.726  0.00  0.00    +0.000 NA
ATOM      5  C   UNL     1      45.042   4.805   9.714  0.00  0.00    +0.000 A 
ATOM      6  C   UNL     1      45.698   5.332  10.825  0.00  0.00    +0.000 A 
ENDROOT
BRANCH   1   7
ATOM      7  C   UNL     1      45.717   5.940  13.291  0.00  0.00    +0.000 C 
BRANCH   7   8
ATOM      8  C   UNL     1      46.922   5.102  13.746  0.00  0.00    +0.000 C 
BRANCH   8  13
ATOM      9  C   UNL     1      48.479   4.126  18.501  0.00  0.00    +0.000 A 
ATOM     10  C   UNL     1      48.881   5.074  17.575  0.00  0.00    +0.000 A 
ATOM     11  C   UNL     1      48.272   5.095  16.323  0.00  0.00    +0.000 A 
ATOM     12  C   UNL     1      47.276   4.168  16.005  0.00  0.00    +0.000 A 
ATOM     13  N   UNL     1      46.641   4.136  14.783  0.00  0.00    +0.000 N 
ATOM     14  N   UNL     1      46.888   3.243  16.902  0.00  0.00    +0.000 NA
ATOM     15  C   UNL     1      47.489   3.240  18.119  0.00  0.00    +0.000 A 
ATOM     16  H   UNL     1      45.936   3.417  14.690  0.00  0.00    +0.000 HD
ENDBRANCH   8  13
ENDBRANCH   7   8
ENDBRANCH   1   7
BRANCH   5  17
ATOM     17  O   UNL     1      45.731   4.761   8.517  0.00  0.00    +0.000 OA
BRANCH  17  18
ATOM     18  C   UNL     1      45.527   3.557   7.733  0.00  0.00    +0.000 C 
ATOM     19  C   UNL     1      46.036   2.257   8.370  0.00  0.00    +0.000 C 
ATOM     20  O   UNL     1      46.756   1.888   7.169  0.00  0.00    +0.000 OA
ATOM     21  C   UNL     1      46.519   3.206   6.613  0.00  0.00    +0.000 C 
ENDBRANCH  17  18
ENDBRANCH   5  17
TORSDOF 5
ENDMDL
MODEL 7
REMARK VINA RESULT:    -6.035      3.176      6.941
REMARK INTER + INTRA:          -8.487
REMARK INTER:                  -8.066
REMARK INTRA:                  -0.422
REMARK UNBOUND:                -0.688
REMARK  Name = 
REMARK  5 active torsions:
REMARK  status: ('A' for Active; 'I' for Inactive)
REMARK    1  A    between atoms: N_5  and  C_6
REMARK    2  A    between atoms: C_6  and  C_7
REMARK    3  A    between atoms: C_7  and  C_8
REMARK    4  A    between atoms: C_12  and  O_13
REMARK    5  A    between atoms: O_13  and  C_14
REMARK                            x       y       z     vdW  Elec       q    Type
REMARK                         _______ _______ _______ _____ _____    ______ ____
ROOT
ATOM      1  C   UNL     1      45.037   4.477  12.897  0.00  0.00    +0.000 A 
ATOM      2  C   UNL     1      43.761   5.058  12.946  0.00  0.00    +0.000 A 
ATOM      3  C   UNL     1      42.818   4.731  11.983  0.00  0.00    +0.000 A 
ATOM      4  N   UNL     1      43.041   3.862  10.981  0.00  0.00    +0.000 NA
ATOM      5  C   UNL     1      44.269   3.312  10.933  0.00  0.00    +0.000 A 
ATOM      6  C   UNL     1      45.287   3.585  11.844  0.00  0.00    +0.000 A 
ENDROOT
BRANCH   1   7
ATOM      7  C   UNL     1      46.123   4.780  13.925  0.00  0.00    +0.000 C 
BRANCH   7   8
ATOM      8  C   UNL     1      47.117   5.861  13.475  0.00  0.00    +0.000 C 
BRANCH   8  13
ATOM      9  C   UNL     1      48.472  10.337  11.445  0.00  0.00    +0.000 A 
ATOM     10  C   UNL     1      49.134   9.124  11.529  0.00  0.00    +0.000 A 
ATOM     11  C   UNL     1      48.508   8.056  12.166  0.00  0.00    +0.000 A 
ATOM     12  C   UNL     1      47.234   8.210  12.719  0.00  0.00    +0.000 A 
ATOM     13  N   UNL     1      46.567   7.193  13.365  0.00  0.00    +0.000 N 
ATOM     14  N   UNL     1      46.592   9.390  12.642  0.00  0.00    +0.000 NA
ATOM     15  C   UNL     1      47.215  10.419  12.014  0.00  0.00    +0.000 A 
ATOM     16  H   UNL     1      45.650   7.441  13.711  0.00  0.00    +0.000 HD
ENDBRANCH   8  13
ENDBRANCH   7   8
ENDBRANCH   1   7
BRANCH   5  17
ATOM     17  O   UNL     1      44.542   2.433   9.903  0.00  0.00    +0.000 OA
BRANCH  17  18
ATOM     18  C   UNL     1      44.722   3.046   8.601  0.00  0.00    +0.000 C 
ATOM     19  C   UNL     1      46.024   2.688   7.873  0.00  0.00    +0.000 C 
ATOM     20  O   UNL     1      46.329   4.080   7.619  0.00  0.00    +0.000 OA
ATOM     21  C   UNL     1      45.256   4.485   8.508  0.00  0.00    +0.000 C 
ENDBRANCH  17  18
ENDBRANCH   5  17
TORSDOF 5
ENDMDL
MODEL 8
REMARK VINA RESULT:    -5.975      3.711      7.156
REMARK INTER + INTRA:          -8.409
REMARK INTER:                  -7.879
REMARK INTRA:                  -0.530
REMARK UNBOUND:                -0.688
REMARK  Name = 
REMARK  5 active torsions:
REMARK  status: ('A' for Active; 'I' for Inactive)
REMARK    1  A    between atoms: N_5  and  C_6
REMARK    2  A    between atoms: C_6  and  C_7
REMARK    3  A    between atoms: C_7  and  C_8
REMARK    4  A    between atoms: C_12  and  O_13
REMARK    5  A    between atoms: O_13  and  C_14
REMARK                            x       y       z     vdW  Elec       q    Type
REMARK                         _______ _______ _______ _____ _____    ______ ____
ROOT
ATOM      1  C   UNL     1      47.169   7.209  12.657  0.00  0.00    +0.000 A 
ATOM      2  C   UNL     1      46.496   8.436  12.764  0.00  0.00    +0.000 A 
ATOM      3  C   UNL     1      45.271   8.605  12.137  0.00  0.00    +0.000 A 
ATOM      4  N   UNL     1      44.656   7.648  11.421  0.00  0.00    +0.000 NA
ATOM      5  C   UNL     1      45.307   6.474  11.316  0.00  0.00    +0.000 A 
ATOM      6  C   UNL     1      46.546   6.209  11.896  0.00  0.00    +0.000 A 
ENDROOT
BRANCH   1   7
ATOM      7  C   UNL     1      48.514   6.943  13.325  0.00  0.00    +0.000 C 
BRANCH   7   8
ATOM      8  C   UNL     1      48.413   6.671  14.834  0.00  0.00    +0.000 C 
BRANCH   8  13
ATOM      9  C   UNL     1      48.388   3.018  18.389  0.00  0.00    +0.000 A 
ATOM     10  C   UNL     1      49.294   4.028  18.111  0.00  0.00    +0.000 A 
ATOM     11  C   UNL     1      49.039   4.888  17.047  0.00  0.00    +0.000 A 
ATOM     12  C   UNL     1      47.889   4.729  16.268  0.00  0.00    +0.000 A 
ATOM     13  N   UNL     1      47.585   5.545  15.200  0.00  0.00    +0.000 N 
ATOM     14  N   UNL     1      47.011   3.744  16.534  0.00  0.00    +0.000 NA
ATOM     15  C   UNL     1      47.274   2.918  17.578  0.00  0.00    +0.000 A 
ATOM     16  H   UNL     1      46.720   5.321  14.729  0.00  0.00    +0.000 HD
ENDBRANCH   8  13
ENDBRANCH   7   8
ENDBRANCH   1   7
BRANCH   5  17
ATOM     17  O   UNL     1      44.717   5.474  10.568  0.00  0.00    +0.000 OA
BRANCH  17  18
ATOM     18  C   UNL     1      44.601   4.191  11.236  0.00  0.00    +0.000 C 
ATOM     19  C   UNL     1      44.263   3.000  10.331  0.00  0.00    +0.000 C 
ATOM     20  O   UNL     1      43.179   2.582  11.194  0.00  0.00    +0.000 OA
ATOM     21  C   UNL     1      43.287   3.821  11.941  0.00  0.00    +0.000 C 
ENDBRANCH  17  18
ENDBRANCH   5  17
TORSDOF 5
ENDMDL
MODEL 9
REMARK VINA RESULT:    -5.411      2.033      3.037
REMARK INTER + INTRA:          -7.681
REMARK INTER:                  -7.186
REMARK INTRA:                  -0.495
REMARK UNBOUND:                -0.688
REMARK  Name = 
REMARK  5 active torsions:
REMARK  status: ('A' for Active; 'I' for Inactive)
REMARK    1  A    between atoms: N_5  and  C_6
REMARK    2  A    between atoms: C_6  and  C_7
REMARK    3  A    between atoms: C_7  and  C_8
REMARK    4  A    between atoms: C_12  and  O_13
REMARK    5  A    between atoms: O_13  and  C_14
REMARK                            x       y       z     vdW  Elec       q    Type
REMARK                         _______ _______ _______ _____ _____    ______ ____
ROOT
ATOM      1  C   UNL     1      46.775   7.891  12.991  0.00  0.00    +0.000 A 
ATOM      2  C   UNL     1      47.459   9.052  13.379  0.00  0.00    +0.000 A 
ATOM      3  C   UNL     1      48.492   8.967  14.301  0.00  0.00    +0.000 A 
ATOM      4  N   UNL     1      48.905   7.817  14.860  0.00  0.00    +0.000 NA
ATOM      5  C   UNL     1      48.241   6.704  14.490  0.00  0.00    +0.000 A 
ATOM      6  C   UNL     1      47.184   6.687  13.583  0.00  0.00    +0.000 A 
ENDROOT
BRANCH   1   7
ATOM      7  C   UNL     1      45.637   7.902  11.975  0.00  0.00    +0.000 C 
BRANCH   7   8
ATOM      8  C   UNL     1      45.157   6.500  11.567  0.00  0.00    +0.000 C 
BRANCH   8  13
ATOM      9  C   UNL     1      44.827   2.318   8.670  0.00  0.00    +0.000 A 
ATOM     10  C   UNL     1      44.524   2.544  10.002  0.00  0.00    +0.000 A 
ATOM     11  C   UNL     1      44.733   3.813  10.536  0.00  0.00    +0.000 A 
ATOM     12  C   UNL     1      45.248   4.840   9.740  0.00  0.00    +0.000 A 
ATOM     13  N   UNL     1      45.481   6.112  10.213  0.00  0.00    +0.000 N 
ATOM     14  N   UNL     1      45.548   4.620   8.447  0.00  0.00    +0.000 NA
ATOM     15  C   UNL     1      45.334   3.379   7.942  0.00  0.00    +0.000 A 
ATOM     16  H   UNL     1      45.850   6.758   9.528  0.00  0.00    +0.000 HD
ENDBRANCH   8  13
ENDBRANCH   7   8
ENDBRANCH   1   7
BRANCH   5  17
ATOM     17  O   UNL     1      48.622   5.506  15.062  0.00  0.00    +0.000 OA
BRANCH  17  18
ATOM     18  C   UNL     1      47.936   5.166  16.295  0.00  0.00    +0.000 C 
ATOM     19  C   UNL     1      48.821   4.600  17.412  0.00  0.00    +0.000 C 
ATOM     20  O   UNL     1      47.938   3.471  17.614  0.00  0.00    +0.000 OA
ATOM     21  C   UNL     1      47.209   3.817  16.409  0.00  0.00    +0.000 C 
ENDBRANCH  17  18
ENDBRANCH   5  17
TORSDOF 5
ENDMDL
