MODEL 1
REMARK VINA RESULT:    -8.089      0.000      0.000
REMARK INTER + INTRA:         -10.549
REMARK INTER:                  -9.981
REMARK INTRA:                  -0.568
REMARK UNBOUND:                -0.568
REMARK  Name = 
REMARK  5 active torsions:
REMARK  status: ('A' for Active; 'I' for Inactive)
REMARK    1  A    between atoms: C_1  and  N_2
REMARK    2  A    between atoms: N_5  and  C_6
REMARK    3  A    between atoms: C_10  and  C_11
REMARK    4  A    between atoms: C_11  and  O_12
REMARK    5  A    between atoms: O_12  and  C_13
REMARK                            x       y       z     vdW  Elec       q    Type
REMARK                         _______ _______ _______ _____ _____    ______ ____
ROOT
ATOM      1  C   UNL     1      45.291   5.103  12.691  0.00  0.00    +0.000 A 
ATOM      2  C   UNL     1      44.070   5.564  13.168  0.00  0.00    +0.000 A 
ATOM      3  C   UNL     1      42.947   5.473  12.369  0.00  0.00    +0.000 A 
ATOM      4  N   UNL     1      42.952   4.939  11.135  0.00  0.00    +0.000 NA
ATOM      5  C   UNL     1      44.127   4.454  10.676  0.00  0.00    +0.000 A 
ATOM      6  C   UNL     1      45.309   4.515  11.423  0.00  0.00    +0.000 A 
ENDROOT
BRANCH   1  11
ATOM      7  C   UNL     1      49.189   6.192  16.521  0.00  0.00    +0.000 C 
ATOM      8  N   UNL     1      48.607   5.612  15.315  0.00  0.00    +0.000 NA
ATOM      9  C   UNL     1      47.447   4.756  15.656  0.00  0.00    +0.000 C 
ATOM     10  C   UNL     1      46.805   4.125  14.399  0.00  0.00    +0.000 C 
ATOM     11  N   UNL     1      46.416   5.200  13.484  0.00  0.00    +0.000 N 
ATOM     12  C   UNL     1      47.518   6.095  13.097  0.00  0.00    +0.000 C 
ATOM     13  C   UNL     1      48.168   6.673  14.376  0.00  0.00    +0.000 C 
ENDBRANCH   1  11
BRANCH   5  14
ATOM     14  C   UNL     1      44.123   3.864   9.291  0.00  0.00    +0.000 C 
BRANCH  14  15
ATOM     15  O   UNL     1      44.794   2.600   9.293  0.00  0.00    +0.000 OA
BRANCH  15  16
ATOM     16  C   UNL     1      45.703   2.415   8.286  0.00  0.00    +0.000 A 
ATOM     17  C   UNL     1      46.404   1.227   8.053  0.00  0.00    +0.000 A 
ATOM     18  C   UNL     1      47.270   1.124   6.965  0.00  0.00    +0.000 A 
ATOM     19  C   UNL     1      47.432   2.212   6.115  0.00  0.00    +0.000 A 
ATOM     20  F   UNL     1      48.255   2.099   5.061  0.00  0.00    +0.000 F 
ATOM     21  C   UNL     1      46.754   3.400   6.335  0.00  0.00    +0.000 A 
ATOM     22  C   UNL     1      45.890   3.504   7.427  0.00  0.00    +0.000 A 
ENDBRANCH  15  16
ENDBRANCH  14  15
ENDBRANCH   5  14
TORSDOF 4
ENDMDL
MODEL 2
REMARK VINA RESULT:    -7.936      1.134      1.623
REMARK INTER + INTRA:         -10.359
REMARK INTER:                  -9.704
REMARK INTRA:                  -0.655
REMARK UNBOUND:                -0.568
REMARK  Name = 
REMARK  5 active torsions:
REMARK  status: ('A' for Active; 'I' for Inactive)
REMARK    1  A    between atoms: C_1  and  N_2
REMARK    2  A    between atoms: N_5  and  C_6
REMARK    3  A    between atoms: C_10  and  C_11
REMARK    4  A    between atoms: C_11  and  O_12
REMARK    5  A    between atoms: O_12  and  C_13
REMARK                            x       y       z     vdW  Elec       q    Type
REMARK                         _______ _______ _______ _____ _____    ______ ____
ROOT
ATOM      1  C   UNL     1      46.061   5.401  13.205  0.00  0.00    +0.000 A 
ATOM      2  C   UNL     1      45.490   6.607  12.816  0.00  0.00    +0.000 A 
ATOM      3  C   UNL     1      44.494   6.614  11.859  0.00  0.00    +0.000 A 
ATOM      4  N   UNL     1      44.015   5.501  11.275  0.00  0.00    +0.000 NA
ATOM      5  C   UNL     1      44.538   4.320  11.673  0.00  0.00    +0.000 A 
ATOM      6  C   UNL     1      45.554   4.231  12.632  0.00  0.00    +0.000 A 
ENDROOT
BRANCH   1  11
ATOM      7  C   UNL     1      49.389   6.029  17.630  0.00  0.00    +0.000 C 
ATOM      8  N   UNL     1      48.975   5.575  16.307  0.00  0.00    +0.000 NA
ATOM      9  C   UNL     1      47.761   4.730  16.401  0.00  0.00    +0.000 C 
ATOM     10  C   UNL     1      47.294   4.231  15.015  0.00  0.00    +0.000 C 
ATOM     11  N   UNL     1      47.061   5.393  14.155  0.00  0.00    +0.000 N 
ATOM     12  C   UNL     1      48.226   6.282  14.009  0.00  0.00    +0.000 C 
ATOM     13  C   UNL     1      48.696   6.726  15.414  0.00  0.00    +0.000 C 
ENDBRANCH   1  11
BRANCH   5  14
ATOM     14  C   UNL     1      44.000   3.081  11.008  0.00  0.00    +0.000 C 
BRANCH  14  15
ATOM     15  O   UNL     1      43.791   3.322   9.613  0.00  0.00    +0.000 OA
BRANCH  15  16
ATOM     16  C   UNL     1      44.853   3.033   8.800  0.00  0.00    +0.000 A 
ATOM     17  C   UNL     1      45.537   3.969   8.017  0.00  0.00    +0.000 A 
ATOM     18  C   UNL     1      46.644   3.581   7.262  0.00  0.00    +0.000 A 
ATOM     19  C   UNL     1      47.060   2.255   7.295  0.00  0.00    +0.000 A 
ATOM     20  F   UNL     1      48.136   1.892   6.578  0.00  0.00    +0.000 F 
ATOM     21  C   UNL     1      46.391   1.311   8.056  0.00  0.00    +0.000 A 
ATOM     22  C   UNL     1      45.280   1.700   8.809  0.00  0.00    +0.000 A 
ENDBRANCH  15  16
ENDBRANCH  14  15
ENDBRANCH   5  14
TORSDOF 4
ENDMDL
MODEL 3
REMARK VINA RESULT:    -7.859      1.475      1.989
REMARK INTER + INTRA:         -10.265
REMARK INTER:                  -9.671
REMARK INTRA:                  -0.593
REMARK UNBOUND:                -0.568
REMARK  Name = 
REMARK  5 active torsions:
REMARK  status: ('A' for Active; 'I' for Inactive)
REMARK    1  A    between atoms: C_1  and  N_2
REMARK    2  A    between atoms: N_5  and  C_6
REMARK    3  A    between atoms: C_10  and  C_11
REMARK    4  A    between atoms: C_11  and  O_12
REMARK    5  A    between atoms: O_12  and  C_13
REMARK                            x       y       z     vdW  Elec       q    Type
REMARK                         _______ _______ _______ _____ _____    ______ ____
ROOT
ATOM      1  C   UNL     1      45.152   5.557  12.210  0.00  0.00    +0.000 A 
ATOM      2  C   UNL     1      44.040   5.410  13.031  0.00  0.00    +0.000 A 
ATOM      3  C   UNL     1      43.016   4.564  12.648  0.00  0.00    +0.000 A 
ATOM      4  N   UNL     1      43.031   3.843  11.512  0.00  0.00    +0.000 NA
ATOM      5  C   UNL     1      44.124   3.953  10.725  0.00  0.00    +0.000 A 
ATOM      6  C   UNL     1      45.198   4.792  11.041  0.00  0.00    +0.000 A 
ENDROOT
BRANCH   1  11
ATOM      7  C   UNL     1      49.549   8.953  12.630  0.00  0.00    +0.000 C 
ATOM      8  N   UNL     1      48.403   8.168  13.077  0.00  0.00    +0.000 NA
ATOM      9  C   UNL     1      47.162   8.635  12.416  0.00  0.00    +0.000 C 
ATOM     10  C   UNL     1      45.926   7.823  12.867  0.00  0.00    +0.000 C 
ATOM     11  N   UNL     1      46.171   6.407  12.586  0.00  0.00    +0.000 N 
ATOM     12  C   UNL     1      47.389   5.868  13.213  0.00  0.00    +0.000 C 
ATOM     13  C   UNL     1      48.599   6.728  12.778  0.00  0.00    +0.000 C 
ENDBRANCH   1  11
BRANCH   5  14
ATOM     14  C   UNL     1      44.127   3.147   9.453  0.00  0.00    +0.000 C 
BRANCH  14  15
ATOM     15  O   UNL     1      45.231   2.237   9.451  0.00  0.00    +0.000 OA
BRANCH  15  16
ATOM     16  C   UNL     1      45.990   2.235   8.311  0.00  0.00    +0.000 A 
ATOM     17  C   UNL     1      46.728   1.142   7.845  0.00  0.00    +0.000 A 
ATOM     18  C   UNL     1      47.427   1.227   6.642  0.00  0.00    +0.000 A 
ATOM     19  C   UNL     1      47.385   2.408   5.909  0.00  0.00    +0.000 A 
ATOM     20  F   UNL     1      48.047   2.476   4.744  0.00  0.00    +0.000 F 
ATOM     21  C   UNL     1      46.668   3.504   6.359  0.00  0.00    +0.000 A 
ATOM     22  C   UNL     1      45.971   3.420   7.566  0.00  0.00    +0.000 A 
ENDBRANCH  15  16
ENDBRANCH  14  15
ENDBRANCH   5  14
TORSDOF 4
ENDMDL
MODEL 4
REMARK VINA RESULT:    -7.692      2.334      3.416
REMARK INTER + INTRA:         -10.059
REMARK INTER:                  -9.455
REMARK INTRA:                  -0.604
REMARK UNBOUND:                -0.568
REMARK  Name = 
REMARK  5 active torsions:
REMARK  status: ('A' for Active; 'I' for Inactive)
REMARK    1  A    between atoms: C_1  and  N_2
REMARK    2  A    between atoms: N_5  and  C_6
REMARK    3  A    between atoms: C_10  and  C_11
REMARK    4  A    between atoms: C_11  and  O_12
REMARK    5  A    between atoms: O_12  and  C_13
REMARK                            x       y       z     vdW  Elec       q    Type
REMARK                         _______ _______ _______ _____ _____    ______ ____
ROOT
ATOM      1  C   UNL     1      46.481   5.962  12.674  0.00  0.00    +0.000 A 
ATOM      2  C   UNL     1      47.166   5.109  13.530  0.00  0.00    +0.000 A 
ATOM      3  C   UNL     1      46.803   3.778  13.602  0.00  0.00    +0.000 A 
ATOM      4  N   UNL     1      45.817   3.234  12.867  0.00  0.00    +0.000 NA
ATOM      5  C   UNL     1      45.168   4.048  12.005  0.00  0.00    +0.000 A 
ATOM      6  C   UNL     1      45.473   5.408  11.879  0.00  0.00    +0.000 A 
ENDROOT
BRANCH   1  11
ATOM      7  C   UNL     1      47.719  11.216  11.291  0.00  0.00    +0.000 C 
ATOM      8  N   UNL     1      47.547  10.053  12.155  0.00  0.00    +0.000 NA
ATOM      9  C   UNL     1      46.140   9.588  12.130  0.00  0.00    +0.000 C 
ATOM     10  C   UNL     1      45.923   8.354  13.036  0.00  0.00    +0.000 C 
ATOM     11  N   UNL     1      46.837   7.293  12.607  0.00  0.00    +0.000 N 
ATOM     12  C   UNL     1      48.257   7.680  12.607  0.00  0.00    +0.000 C 
ATOM     13  C   UNL     1      48.433   8.942  11.730  0.00  0.00    +0.000 C 
ENDBRANCH   1  11
BRANCH   5  14
ATOM     14  C   UNL     1      44.061   3.431  11.192  0.00  0.00    +0.000 C 
BRANCH  14  15
ATOM     15  O   UNL     1      44.051   3.986   9.873  0.00  0.00    +0.000 OA
BRANCH  15  16
ATOM     16  C   UNL     1      44.948   3.437   8.997  0.00  0.00    +0.000 A 
ATOM     17  C   UNL     1      45.706   4.162   8.071  0.00  0.00    +0.000 A 
ATOM     18  C   UNL     1      46.633   3.512   7.258  0.00  0.00    +0.000 A 
ATOM     19  C   UNL     1      46.798   2.136   7.375  0.00  0.00    +0.000 A 
ATOM     20  F   UNL     1      47.705   1.520   6.600  0.00  0.00    +0.000 F 
ATOM     21  C   UNL     1      46.052   1.399   8.280  0.00  0.00    +0.000 A 
ATOM     22  C   UNL     1      45.120   2.051   9.091  0.00  0.00    +0.000 A 
ENDBRANCH  15  16
ENDBRANCH  14  15
ENDBRANCH   5  14
TORSDOF 4
ENDMDL
MODEL 5
REMARK VINA RESULT:    -7.001      3.469      6.929
REMARK INTER + INTRA:          -9.207
REMARK INTER:                  -8.594
REMARK INTRA:                  -0.612
REMARK UNBOUND:                -0.568
REMARK  Name = 
REMARK  5 active torsions:
REMARK  status: ('A' for Active; 'I' for Inactive)
REMARK    1  A    between atoms: C_1  and  N_2
REMARK    2  A    between atoms: N_5  and  C_6
REMARK    3  A    between atoms: C_10  and  C_11
REMARK    4  A    between atoms: C_11  and  O_12
REMARK    5  A    between atoms: O_12  and  C_13
REMARK                            x       y       z     vdW  Elec       q    Type
REMARK                         _______ _______ _______ _____ _____    ______ ____
ROOT
ATOM      1  C   UNL     1      44.851   3.354  10.466  0.00  0.00    +0.000 A 
ATOM      2  C   UNL     1      43.891   2.542  11.058  0.00  0.00    +0.000 A 
ATOM      3  C   UNL     1      43.408   2.860  12.313  0.00  0.00    +0.000 A 
ATOM      4  N   UNL     1      43.803   3.939  13.012  0.00  0.00    +0.000 NA
ATOM      5  C   UNL     1      44.710   4.754  12.430  0.00  0.00    +0.000 A 
ATOM      6  C   UNL     1      45.250   4.498  11.165  0.00  0.00    +0.000 A 
ENDROOT
BRANCH   1  11
ATOM      7  C   UNL     1      47.844   2.212   5.907  0.00  0.00    +0.000 C 
ATOM      8  N   UNL     1      46.651   2.422   6.720  0.00  0.00    +0.000 NA
ATOM      9  C   UNL     1      46.609   1.458   7.845  0.00  0.00    +0.000 C 
ATOM     10  C   UNL     1      45.356   1.654   8.729  0.00  0.00    +0.000 C 
ATOM     11  N   UNL     1      45.341   3.035   9.217  0.00  0.00    +0.000 N 
ATOM     12  C   UNL     1      45.378   4.054   8.155  0.00  0.00    +0.000 C 
ATOM     13  C   UNL     1      46.617   3.802   7.263  0.00  0.00    +0.000 C 
ENDBRANCH   1  11
BRANCH   5  14
ATOM     14  C   UNL     1      45.150   5.956  13.224  0.00  0.00    +0.000 C 
BRANCH  14  15
ATOM     15  O   UNL     1      46.576   6.062  13.205  0.00  0.00    +0.000 OA
BRANCH  15  16
ATOM     16  C   UNL     1      47.073   7.236  12.706  0.00  0.00    +0.000 A 
ATOM     17  C   UNL     1      46.383   8.453  12.695  0.00  0.00    +0.000 A 
ATOM     18  C   UNL     1      46.999   9.607  12.212  0.00  0.00    +0.000 A 
ATOM     19  C   UNL     1      48.305   9.536  11.740  0.00  0.00    +0.000 A 
ATOM     20  F   UNL     1      48.898  10.655  11.291  0.00  0.00    +0.000 F 
ATOM     21  C   UNL     1      49.002   8.339  11.734  0.00  0.00    +0.000 A 
ATOM     22  C   UNL     1      48.382   7.183  12.215  0.00  0.00    +0.000 A 
ENDBRANCH  15  16
ENDBRANCH  14  15
ENDBRANCH   5  14
TORSDOF 4
ENDMDL
MODEL 6
REMARK VINA RESULT:    -6.708      3.533      7.381
REMARK INTER + INTRA:          -8.845
REMARK INTER:                  -8.313
REMARK INTRA:                  -0.531
REMARK UNBOUND:                -0.568
REMARK  Name = 
REMARK  5 active torsions:
REMARK  status: ('A' for Active; 'I' for Inactive)
REMARK    1  A    between atoms: C_1  and  N_2
REMARK    2  A    between atoms: N_5  and  C_6
REMARK    3  A    between atoms: C_10  and  C_11
REMARK    4  A    between atoms: C_11  and  O_12
REMARK    5  A    between atoms: O_12  and  C_13
REMARK                            x       y       z     vdW  Elec       q    Type
REMARK                         _______ _______ _______ _____ _____    ______ ____
ROOT
ATOM      1  C   UNL     1      44.738   4.266  10.465  0.00  0.00    +0.000 A 
ATOM      2  C   UNL     1      43.444   4.058  10.927  0.00  0.00    +0.000 A 
ATOM      3  C   UNL     1      43.011   4.715  12.063  0.00  0.00    +0.000 A 
ATOM      4  N   UNL     1      43.772   5.577  12.761  0.00  0.00    +0.000 NA
ATOM      5  C   UNL     1      45.020   5.813  12.299  0.00  0.00    +0.000 A 
ATOM      6  C   UNL     1      45.533   5.182  11.160  0.00  0.00    +0.000 A 
ENDROOT
BRANCH   1  11
ATOM      7  C   UNL     1      47.511   1.607   6.429  0.00  0.00    +0.000 C 
ATOM      8  N   UNL     1      46.377   2.235   7.099  0.00  0.00    +0.000 NA
ATOM      9  C   UNL     1      46.081   1.546   8.378  0.00  0.00    +0.000 C 
ATOM     10  C   UNL     1      44.883   2.187   9.115  0.00  0.00    +0.000 C 
ATOM     11  N   UNL     1      45.175   3.605   9.336  0.00  0.00    +0.000 N 
ATOM     12  C   UNL     1      45.478   4.359   8.109  0.00  0.00    +0.000 C 
ATOM     13  C   UNL     1      46.649   3.667   7.372  0.00  0.00    +0.000 C 
ENDBRANCH   1  11
BRANCH   5  14
ATOM     14  C   UNL     1      45.866   6.774  13.091  0.00  0.00    +0.000 C 
BRANCH  14  15
ATOM     15  O   UNL     1      47.199   6.269  13.215  0.00  0.00    +0.000 OA
BRANCH  15  16
ATOM     16  C   UNL     1      47.512   5.729  14.434  0.00  0.00    +0.000 A 
ATOM     17  C   UNL     1      47.025   4.508  14.914  0.00  0.00    +0.000 A 
ATOM     18  C   UNL     1      47.448   4.019  16.150  0.00  0.00    +0.000 A 
ATOM     19  C   UNL     1      48.357   4.756  16.900  0.00  0.00    +0.000 A 
ATOM     20  F   UNL     1      48.772   4.271  18.082  0.00  0.00    +0.000 F 
ATOM     21  C   UNL     1      48.844   5.971  16.446  0.00  0.00    +0.000 A 
ATOM     22  C   UNL     1      48.417   6.462  15.210  0.00  0.00    +0.000 A 
ENDBRANCH  15  16
ENDBRANCH  14  15
ENDBRANCH   5  14
TORSDOF 4
ENDMDL
MODEL 7
REMARK VINA RESULT:    -6.333      1.716      3.064
REMARK INTER + INTRA:          -8.382
REMARK INTER:                  -7.967
REMARK INTRA:                  -0.415
REMARK UNBOUND:                -0.568
REMARK  Name = 
REMARK  5 active torsions:
REMARK  status: ('A' for Active; 'I' for Inactive)
REMARK    1  A    between atoms: C_1  and  N_2
REMARK    2  A    between atoms: N_5  and  C_6
REMARK    3  A    between atoms: C_10  and  C_11
REMARK    4  A    between atoms: C_11  and  O_12
REMARK    5  A    between atoms: O_12  and  C_13
REMARK                            x       y       z     vdW  Elec       q    Type
REMARK                         _______ _______ _______ _____ _____    ______ ____
ROOT
ATOM      1  C   UNL     1      47.495   5.515  14.732  0.00  0.00    +0.000 A 
ATOM      2  C   UNL     1      47.984   6.548  13.942  0.00  0.00    +0.000 A 
ATOM      3  C   UNL     1      47.504   6.710  12.657  0.00  0.00    +0.000 A 
ATOM      4  N   UNL     1      46.558   5.925  12.110  0.00  0.00    +0.000 NA
ATOM      5  C   UNL     1      46.051   4.939  12.883  0.00  0.00    +0.000 A 
ATOM      6  C   UNL     1      46.490   4.708  14.192  0.00  0.00    +0.000 A 
ENDROOT
BRANCH   1  11
ATOM      7  C   UNL     1      48.776   5.717  20.151  0.00  0.00    +0.000 C 
ATOM      8  N   UNL     1      48.824   5.249  18.770  0.00  0.00    +0.000 NA
ATOM      9  C   UNL     1      47.492   4.764  18.337  0.00  0.00    +0.000 C 
ATOM     10  C   UNL     1      47.507   4.261  16.875  0.00  0.00    +0.000 C 
ATOM     11  N   UNL     1      47.979   5.347  16.013  0.00  0.00    +0.000 N 
ATOM     12  C   UNL     1      49.301   5.881  16.380  0.00  0.00    +0.000 C 
ATOM     13  C   UNL     1      49.265   6.333  17.859  0.00  0.00    +0.000 C 
ENDBRANCH   1  11
BRANCH   5  14
ATOM     14  C   UNL     1      44.998   4.061  12.260  0.00  0.00    +0.000 C 
BRANCH  14  15
ATOM     15  O   UNL     1      44.631   4.571  10.974  0.00  0.00    +0.000 OA
BRANCH  15  16
ATOM     16  C   UNL     1      45.114   3.868   9.903  0.00  0.00    +0.000 A 
ATOM     17  C   UNL     1      45.067   2.476   9.776  0.00  0.00    +0.000 A 
ATOM     18  C   UNL     1      45.539   1.859   8.618  0.00  0.00    +0.000 A 
ATOM     19  C   UNL     1      46.056   2.640   7.591  0.00  0.00    +0.000 A 
ATOM     20  F   UNL     1      46.493   2.039   6.472  0.00  0.00    +0.000 F 
ATOM     21  C   UNL     1      46.119   4.019   7.701  0.00  0.00    +0.000 A 
ATOM     22  C   UNL     1      45.650   4.636   8.863  0.00  0.00    +0.000 A 
ENDBRANCH  15  16
ENDBRANCH  14  15
ENDBRANCH   5  14
TORSDOF 4
ENDMDL
MODEL 8
REMARK VINA RESULT:    -6.159      2.240      3.081
REMARK INTER + INTRA:          -8.167
REMARK INTER:                  -7.708
REMARK INTRA:                  -0.459
REMARK UNBOUND:                -0.568
REMARK  Name = 
REMARK  5 active torsions:
REMARK  status: ('A' for Active; 'I' for Inactive)
REMARK    1  A    between atoms: C_1  and  N_2
REMARK    2  A    between atoms: N_5  and  C_6
REMARK    3  A    between atoms: C_10  and  C_11
REMARK    4  A    between atoms: C_11  and  O_12
REMARK    5  A    between atoms: O_12  and  C_13
REMARK                            x       y       z     vdW  Elec       q    Type
REMARK                         _______ _______ _______ _____ _____    ______ ____
ROOT
ATOM      1  C   UNL     1      47.159   7.718  12.909  0.00  0.00    +0.000 A 
ATOM      2  C   UNL     1      46.307   8.777  12.621  0.00  0.00    +0.000 A 
ATOM      3  C   UNL     1      45.119   8.537  11.959  0.00  0.00    +0.000 A 
ATOM      4  N   UNL     1      44.712   7.312  11.579  0.00  0.00    +0.000 NA
ATOM      5  C   UNL     1      45.518   6.271  11.886  0.00  0.00    +0.000 A 
ATOM      6  C   UNL     1      46.739   6.434  12.549  0.00  0.00    +0.000 A 
ENDROOT
BRANCH   1  11
ATOM      7  C   UNL     1      52.271   7.672  15.127  0.00  0.00    +0.000 C 
ATOM      8  N   UNL     1      50.931   8.170  14.836  0.00  0.00    +0.000 NA
ATOM      9  C   UNL     1      50.753   8.368  13.378  0.00  0.00    +0.000 C 
ATOM     10  C   UNL     1      49.341   8.896  13.033  0.00  0.00    +0.000 C 
ATOM     11  N   UNL     1      48.350   7.957  13.563  0.00  0.00    +0.000 N 
ATOM     12  C   UNL     1      48.462   7.710  15.010  0.00  0.00    +0.000 C 
ATOM     13  C   UNL     1      49.897   7.227  15.327  0.00  0.00    +0.000 C 
ENDBRANCH   1  11
BRANCH   5  14
ATOM     14  C   UNL     1      45.057   4.905  11.450  0.00  0.00    +0.000 C 
BRANCH  14  15
ATOM     15  O   UNL     1      44.659   4.936  10.076  0.00  0.00    +0.000 OA
BRANCH  15  16
ATOM     16  C   UNL     1      45.233   3.985   9.275  0.00  0.00    +0.000 A 
ATOM     17  C   UNL     1      45.134   2.605   9.481  0.00  0.00    +0.000 A 
ATOM     18  C   UNL     1      45.713   1.716   8.575  0.00  0.00    +0.000 A 
ATOM     19  C   UNL     1      46.387   2.214   7.466  0.00  0.00    +0.000 A 
ATOM     20  F   UNL     1      46.927   1.352   6.590  0.00  0.00    +0.000 F 
ATOM     21  C   UNL     1      46.503   3.578   7.250  0.00  0.00    +0.000 A 
ATOM     22  C   UNL     1      45.927   4.467   8.160  0.00  0.00    +0.000 A 
ENDBRANCH  15  16
ENDBRANCH  14  15
ENDBRANCH   5  14
TORSDOF 4
ENDMDL
MODEL 9
REMARK VINA RESULT:    -6.089      4.187      8.057
REMARK INTER + INTRA:          -8.081
REMARK INTER:                  -7.458
REMARK INTRA:                  -0.624
REMARK UNBOUND:                -0.568
REMARK  Name = 
REMARK  5 active torsions:
REMARK  status: ('A' for Active; 'I' for Inactive)
REMARK    1  A    between atoms: C_1  and  N_2
REMARK    2  A    between atoms: N_5  and  C_6
REMARK    3  A    between atoms: C_10  and  C_11
REMARK    4  A    between atoms: C_11  and  O_12
REMARK    5  A    between atoms: O_12  and  C_13
REMARK                            x       y       z     vdW  Elec       q    Type
REMARK                         _______ _______ _______ _____ _____    ______ ____
ROOT
ATOM      1  C   UNL     1      47.673   6.309  13.258  0.00  0.00    +0.000 A 
ATOM      2  C   UNL     1      48.660   6.963  12.531  0.00  0.00    +0.000 A 
ATOM      3  C   UNL     1      49.724   7.544  13.194  0.00  0.00    +0.000 A 
ATOM      4  N   UNL     1      49.881   7.504  14.529  0.00  0.00    +0.000 NA
ATOM      5  C   UNL     1      48.945   6.839  15.242  0.00  0.00    +0.000 A 
ATOM      6  C   UNL     1      47.836   6.230  14.644  0.00  0.00    +0.000 A 
ENDROOT
BRANCH   1  11
ATOM      7  C   UNL     1      44.163   3.375  10.076  0.00  0.00    +0.000 C 
ATOM      8  N   UNL     1      44.585   4.371  11.054  0.00  0.00    +0.000 NA
ATOM      9  C   UNL     1      45.277   3.723  12.194  0.00  0.00    +0.000 C 
ATOM     10  C   UNL     1      45.738   4.752  13.251  0.00  0.00    +0.000 C 
ATOM     11  N   UNL     1      46.605   5.735  12.598  0.00  0.00    +0.000 N 
ATOM     12  C   UNL     1      45.986   6.425  11.455  0.00  0.00    +0.000 C 
ATOM     13  C   UNL     1      45.495   5.367  10.438  0.00  0.00    +0.000 C 
ENDBRANCH   1  11
BRANCH   5  14
ATOM     14  C   UNL     1      49.126   6.805  16.736  0.00  0.00    +0.000 C 
BRANCH  14  15
ATOM     15  O   UNL     1      48.508   5.635  17.280  0.00  0.00    +0.000 OA
BRANCH  15  16
ATOM     16  C   UNL     1      49.287   4.508  17.288  0.00  0.00    +0.000 A 
ATOM     17  C   UNL     1      50.635   4.473  17.661  0.00  0.00    +0.000 A 
ATOM     18  C   UNL     1      51.326   3.262  17.686  0.00  0.00    +0.000 A 
ATOM     19  C   UNL     1      50.663   2.090  17.338  0.00  0.00    +0.000 A 
ATOM     20  F   UNL     1      51.330   0.926  17.380  0.00  0.00    +0.000 F 
ATOM     21  C   UNL     1      49.331   2.106  16.958  0.00  0.00    +0.000 A 
ATOM     22  C   UNL     1      48.641   3.320  16.929  0.00  0.00    +0.000 A 
ENDBRANCH  15  16
ENDBRANCH  14  15
ENDBRANCH   5  14
TORSDOF 4
ENDMDL
