MODEL 1
REMARK VINA RESULT:    -8.370      0.000      0.000
REMARK INTER + INTRA:         -10.870
REMARK INTER:                 -10.327
REMARK INTRA:                  -0.544
REMARK UNBOUND:                -0.544
REMARK  Name = 
REMARK  4 active torsions:
REMARK  status: ('A' for Active; 'I' for Inactive)
REMARK    1  A    between atoms: C_2  and  C_4
REMARK    2  A    between atoms: N_8  and  C_9
REMARK    3  A    between atoms: C_9  and  C_10
REMARK    4  A    between atoms: C_14  and  C_15
REMARK                            x       y       z     vdW  Elec       q    Type
REMARK                         _______ _______ _______ _____ _____    ______ ____
ROOT
ATOM      1  C   UNL     1      44.005   4.806  11.542  0.00  0.00    +0.000 C 
ATOM      2  C   UNL     1      42.661   5.148  12.166  0.00  0.00    +0.000 C 
ATOM      3  C   UNL     1      43.150   5.936  10.996  0.00  0.00    +0.000 C 
ENDROOT
BRANCH   1   8
ATOM      4  C   UNL     1      46.387   2.693   7.555  0.00  0.00    +0.000 A 
ATOM      5  C   UNL     1      46.205   3.980   8.005  0.00  0.00    +0.000 A 
ATOM      6  N   UNL     1      45.460   4.296   9.088  0.00  0.00    +0.000 NA
ATOM      7  C   UNL     1      44.872   3.280   9.746  0.00  0.00    +0.000 A 
ATOM      8  N   UNL     1      44.068   3.516  10.857  0.00  0.00    +0.000 N 
ATOM      9  N   UNL     1      44.993   1.993   9.382  0.00  0.00    +0.000 NA
ATOM     10  C   UNL     1      45.730   1.727   8.278  0.00  0.00    +0.000 A 
ATOM     11  H   UNL     1      43.981   2.652  11.376  0.00  0.00    +0.000 HD
BRANCH   4  13
ATOM     12  N   UNL     1      47.159   3.199   5.315  0.00  0.00    +0.000 N 
ATOM     13  C   UNL     1      47.187   2.342   6.379  0.00  0.00    +0.000 C 
ATOM     14  O   UNL     1      47.885   1.334   6.368  0.00  0.00    +0.000 OA
ATOM     15  H   UNL     1      47.798   2.990   4.556  0.00  0.00    +0.000 HD
ATOM     16  H   UNL     1      46.821   4.150   5.375  0.00  0.00    +0.000 HD
ENDBRANCH   4  13
ENDBRANCH   1   8
BRANCH   1  17
ATOM     17  C   UNL     1      45.283   5.172  12.286  0.00  0.00    +0.000 A 
ATOM     18  C   UNL     1      45.810   4.370  13.300  0.00  0.00    +0.000 A 
ATOM     19  C   UNL     1      47.020   4.714  13.874  0.00  0.00    +0.000 A 
ATOM     20  N   UNL     1      47.746   5.794  13.513  0.00  0.00    +0.000 NA
ATOM     21  C   UNL     1      47.241   6.597  12.547  0.00  0.00    +0.000 A 
ATOM     22  C   UNL     1      46.023   6.313  11.930  0.00  0.00    +0.000 A 
BRANCH  21  23
ATOM     23  C   UNL     1      48.066   7.752  12.186  0.00  0.00    +0.000 A 
ATOM     24  C   UNL     1      49.396   7.636  11.815  0.00  0.00    +0.000 A 
ATOM     25  N   UNL     1      50.195   8.672  11.463  0.00  0.00    +0.000 NA
ATOM     26  C   UNL     1      49.623   9.883  11.501  0.00  0.00    +0.000 A 
ATOM     27  N   UNL     1      48.352  10.139  11.838  0.00  0.00    +0.000 NA
ATOM     28  C   UNL     1      47.610   9.060  12.179  0.00  0.00    +0.000 A 
ENDBRANCH  21  23
ENDBRANCH   1  17
TORSDOF 4
ENDMDL
MODEL 2
REMARK VINA RESULT:    -8.281      1.619      3.512
REMARK INTER + INTRA:         -10.761
REMARK INTER:                 -10.327
REMARK INTRA:                  -0.434
REMARK UNBOUND:                -0.544
REMARK  Name = 
REMARK  4 active torsions:
REMARK  status: ('A' for Active; 'I' for Inactive)
REMARK    1  A    between atoms: C_2  and  C_4
REMARK    2  A    between atoms: N_8  and  C_9
REMARK    3  A    between atoms: C_9  and  C_10
REMARK    4  A    between atoms: C_14  and  C_15
REMARK                            x       y       z     vdW  Elec       q    Type
REMARK                         _______ _______ _______ _____ _____    ______ ____
ROOT
ATOM      1  C   UNL     1      44.019   4.893  11.557  0.00  0.00    +0.000 C 
ATOM      2  C   UNL     1      42.690   5.145  12.250  0.00  0.00    +0.000 C 
ATOM      3  C   UNL     1      43.027   5.902  11.008  0.00  0.00    +0.000 C 
ENDROOT
BRANCH   1   8
ATOM      4  C   UNL     1      46.407   2.755   7.588  0.00  0.00    +0.000 A 
ATOM      5  C   UNL     1      46.135   4.046   7.974  0.00  0.00    +0.000 A 
ATOM      6  N   UNL     1      45.411   4.361   9.071  0.00  0.00    +0.000 NA
ATOM      7  C   UNL     1      44.940   3.341   9.810  0.00  0.00    +0.000 A 
ATOM      8  N   UNL     1      44.165   3.574  10.942  0.00  0.00    +0.000 N 
ATOM      9  N   UNL     1      45.156   2.049   9.512  0.00  0.00    +0.000 NA
ATOM     10  C   UNL     1      45.867   1.781   8.392  0.00  0.00    +0.000 A 
ATOM     11  H   UNL     1      44.174   2.738  11.512  0.00  0.00    +0.000 HD
BRANCH   4  13
ATOM     12  N   UNL     1      47.151   3.266   5.340  0.00  0.00    +0.000 N 
ATOM     13  C   UNL     1      47.186   2.403   6.398  0.00  0.00    +0.000 C 
ATOM     14  O   UNL     1      47.874   1.387   6.369  0.00  0.00    +0.000 OA
ATOM     15  H   UNL     1      47.775   3.056   4.569  0.00  0.00    +0.000 HD
ATOM     16  H   UNL     1      46.823   4.220   5.411  0.00  0.00    +0.000 HD
ENDBRANCH   4  13
ENDBRANCH   1   8
BRANCH   1  17
ATOM     17  C   UNL     1      45.299   5.421  12.192  0.00  0.00    +0.000 A 
ATOM     18  C   UNL     1      45.942   6.570  11.726  0.00  0.00    +0.000 A 
ATOM     19  C   UNL     1      47.051   7.046  12.402  0.00  0.00    +0.000 A 
ATOM     20  N   UNL     1      47.565   6.467  13.508  0.00  0.00    +0.000 NA
ATOM     21  C   UNL     1      46.970   5.338  13.962  0.00  0.00    +0.000 A 
ATOM     22  C   UNL     1      45.852   4.800  13.325  0.00  0.00    +0.000 A 
BRANCH  21  23
ATOM     23  C   UNL     1      47.560   4.749  15.166  0.00  0.00    +0.000 A 
ATOM     24  C   UNL     1      48.236   5.501  16.115  0.00  0.00    +0.000 A 
ATOM     25  N   UNL     1      48.788   5.003  17.247  0.00  0.00    +0.000 NA
ATOM     26  C   UNL     1      48.662   3.681  17.420  0.00  0.00    +0.000 A 
ATOM     27  N   UNL     1      48.036   2.837  16.587  0.00  0.00    +0.000 NA
ATOM     28  C   UNL     1      47.507   3.400  15.476  0.00  0.00    +0.000 A 
ENDBRANCH  21  23
ENDBRANCH   1  17
TORSDOF 4
ENDMDL
MODEL 3
REMARK VINA RESULT:    -6.622      3.209      7.515
REMARK INTER + INTRA:          -8.714
REMARK INTER:                  -9.175
REMARK INTRA:                   0.461
REMARK UNBOUND:                -0.544
REMARK  Name = 
REMARK  4 active torsions:
REMARK  status: ('A' for Active; 'I' for Inactive)
REMARK    1  A    between atoms: C_2  and  C_4
REMARK    2  A    between atoms: N_8  and  C_9
REMARK    3  A    between atoms: C_9  and  C_10
REMARK    4  A    between atoms: C_14  and  C_15
REMARK                            x       y       z     vdW  Elec       q    Type
REMARK                         _______ _______ _______ _____ _____    ______ ____
ROOT
ATOM      1  C   UNL     1      48.605   7.862  12.763  0.00  0.00    +0.000 C 
ATOM      2  C   UNL     1      49.751   7.320  11.924  0.00  0.00    +0.000 C 
ATOM      3  C   UNL     1      49.443   8.780  11.892  0.00  0.00    +0.000 C 
ENDROOT
BRANCH   1   8
ATOM      4  C   UNL     1      47.956   4.578  16.614  0.00  0.00    +0.000 A 
ATOM      5  C   UNL     1      47.530   4.636  15.308  0.00  0.00    +0.000 A 
ATOM      6  N   UNL     1      47.794   5.672  14.481  0.00  0.00    +0.000 NA
ATOM      7  C   UNL     1      48.512   6.693  14.984  0.00  0.00    +0.000 A 
ATOM      8  N   UNL     1      48.809   7.810  14.210  0.00  0.00    +0.000 N 
ATOM      9  N   UNL     1      48.971   6.724  16.246  0.00  0.00    +0.000 NA
ATOM     10  C   UNL     1      48.663   5.675  17.044  0.00  0.00    +0.000 A 
ATOM     11  H   UNL     1      49.585   8.298  14.639  0.00  0.00    +0.000 HD
BRANCH   4  13
ATOM     12  N   UNL     1      48.602   3.165  18.473  0.00  0.00    +0.000 N 
ATOM     13  C   UNL     1      47.670   3.462  17.520  0.00  0.00    +0.000 C 
ATOM     14  O   UNL     1      46.613   2.843  17.445  0.00  0.00    +0.000 OA
ATOM     15  H   UNL     1      48.339   2.459  19.152  0.00  0.00    +0.000 HD
ATOM     16  H   UNL     1      49.345   3.797  18.740  0.00  0.00    +0.000 HD
ENDBRANCH   4  13
ENDBRANCH   1   8
BRANCH   1  17
ATOM     17  C   UNL     1      47.172   7.579  12.333  0.00  0.00    +0.000 A 
ATOM     18  C   UNL     1      46.127   8.470  12.591  0.00  0.00    +0.000 A 
ATOM     19  C   UNL     1      44.866   8.195  12.096  0.00  0.00    +0.000 A 
ATOM     20  N   UNL     1      44.566   7.102  11.361  0.00  0.00    +0.000 NA
ATOM     21  C   UNL     1      45.560   6.214  11.120  0.00  0.00    +0.000 A 
ATOM     22  C   UNL     1      46.854   6.427  11.594  0.00  0.00    +0.000 A 
BRANCH  21  23
ATOM     23  C   UNL     1      45.189   5.049  10.314  0.00  0.00    +0.000 A 
ATOM     24  C   UNL     1      44.343   4.055  10.779  0.00  0.00    +0.000 A 
ATOM     25  N   UNL     1      43.963   2.966  10.069  0.00  0.00    +0.000 NA
ATOM     26  C   UNL     1      44.476   2.872   8.835  0.00  0.00    +0.000 A 
ATOM     27  N   UNL     1      45.302   3.757   8.260  0.00  0.00    +0.000 NA
ATOM     28  C   UNL     1      45.641   4.821   9.025  0.00  0.00    +0.000 A 
ENDBRANCH  21  23
ENDBRANCH   1  17
TORSDOF 4
ENDMDL
MODEL 4
REMARK VINA RESULT:    -6.299      5.050      8.417
REMARK INTER + INTRA:          -8.316
REMARK INTER:                  -8.246
REMARK INTRA:                  -0.070
REMARK UNBOUND:                -0.544
REMARK  Name = 
REMARK  4 active torsions:
REMARK  status: ('A' for Active; 'I' for Inactive)
REMARK    1  A    between atoms: C_2  and  C_4
REMARK    2  A    between atoms: N_8  and  C_9
REMARK    3  A    between atoms: C_9  and  C_10
REMARK    4  A    between atoms: C_14  and  C_15
REMARK                            x       y       z     vdW  Elec       q    Type
REMARK                         _______ _______ _______ _____ _____    ______ ____
ROOT
ATOM      1  C   UNL     1      48.167   4.737  17.084  0.00  0.00    +0.000 C 
ATOM      2  C   UNL     1      47.054   4.855  18.113  0.00  0.00    +0.000 C 
ATOM      3  C   UNL     1      47.282   3.551  17.423  0.00  0.00    +0.000 C 
ENDROOT
BRANCH   1   8
ATOM      4  C   UNL     1      52.310   1.801  17.588  0.00  0.00    +0.000 A 
ATOM      5  C   UNL     1      50.990   1.570  17.279  0.00  0.00    +0.000 A 
ATOM      6  N   UNL     1      50.044   2.535  17.268  0.00  0.00    +0.000 NA
ATOM      7  C   UNL     1      50.438   3.783  17.580  0.00  0.00    +0.000 A 
ATOM      8  N   UNL     1      49.526   4.834  17.616  0.00  0.00    +0.000 N 
ATOM      9  N   UNL     1      51.704   4.105  17.894  0.00  0.00    +0.000 NA
ATOM     10  C   UNL     1      52.611   3.101  17.914  0.00  0.00    +0.000 A 
ATOM     11  H   UNL     1      50.040   5.704  17.561  0.00  0.00    +0.000 HD
BRANCH   4  13
ATOM     12  N   UNL     1      53.074  -0.382  18.310  0.00  0.00    +0.000 N 
ATOM     13  C   UNL     1      53.340   0.760  17.608  0.00  0.00    +0.000 C 
ATOM     14  O   UNL     1      54.389   0.895  16.986  0.00  0.00    +0.000 OA
ATOM     15  H   UNL     1      53.755  -1.128  18.227  0.00  0.00    +0.000 HD
ATOM     16  H   UNL     1      52.145  -0.646  18.610  0.00  0.00    +0.000 HD
ENDBRANCH   4  13
ENDBRANCH   1   8
BRANCH   1  17
ATOM     17  C   UNL     1      47.991   5.393  15.721  0.00  0.00    +0.000 A 
ATOM     18  C   UNL     1      48.764   6.483  15.314  0.00  0.00    +0.000 A 
ATOM     19  C   UNL     1      48.615   6.977  14.031  0.00  0.00    +0.000 A 
ATOM     20  N   UNL     1      47.757   6.465  13.121  0.00  0.00    +0.000 NA
ATOM     21  C   UNL     1      46.982   5.422  13.504  0.00  0.00    +0.000 A 
ATOM     22  C   UNL     1      47.077   4.880  14.786  0.00  0.00    +0.000 A 
BRANCH  21  23
ATOM     23  C   UNL     1      46.073   4.899  12.483  0.00  0.00    +0.000 A 
ATOM     24  C   UNL     1      45.769   5.592  11.322  0.00  0.00    +0.000 A 
ATOM     25  N   UNL     1      44.944   5.144  10.346  0.00  0.00    +0.000 NA
ATOM     26  C   UNL     1      44.389   3.944  10.562  0.00  0.00    +0.000 A 
ATOM     27  N   UNL     1      44.594   3.168  11.635  0.00  0.00    +0.000 NA
ATOM     28  C   UNL     1      45.429   3.675  12.571  0.00  0.00    +0.000 A 
ENDBRANCH  21  23
ENDBRANCH   1  17
TORSDOF 4
ENDMDL
MODEL 5
REMARK VINA RESULT:    -6.248      4.167      8.455
REMARK INTER + INTRA:          -8.253
REMARK INTER:                  -7.748
REMARK INTRA:                  -0.505
REMARK UNBOUND:                -0.544
REMARK  Name = 
REMARK  4 active torsions:
REMARK  status: ('A' for Active; 'I' for Inactive)
REMARK    1  A    between atoms: C_2  and  C_4
REMARK    2  A    between atoms: N_8  and  C_9
REMARK    3  A    between atoms: C_9  and  C_10
REMARK    4  A    between atoms: C_14  and  C_15
REMARK                            x       y       z     vdW  Elec       q    Type
REMARK                         _______ _______ _______ _____ _____    ______ ____
ROOT
ATOM      1  C   UNL     1      49.071   7.820  12.540  0.00  0.00    +0.000 C 
ATOM      2  C   UNL     1      49.967   7.897  11.314  0.00  0.00    +0.000 C 
ATOM      3  C   UNL     1      49.798   9.103  12.180  0.00  0.00    +0.000 C 
ENDROOT
BRANCH   1   8
ATOM      4  C   UNL     1      48.788   7.516  17.625  0.00  0.00    +0.000 A 
ATOM      5  C   UNL     1      48.491   8.483  16.694  0.00  0.00    +0.000 A 
ATOM      6  N   UNL     1      48.718   8.341  15.370  0.00  0.00    +0.000 NA
ATOM      7  C   UNL     1      49.267   7.183  14.962  0.00  0.00    +0.000 A 
ATOM      8  N   UNL     1      49.557   6.961  13.619  0.00  0.00    +0.000 N 
ATOM      9  N   UNL     1      49.590   6.181  15.797  0.00  0.00    +0.000 NA
ATOM     10  C   UNL     1      49.365   6.378  17.117  0.00  0.00    +0.000 A 
ATOM     11  H   UNL     1      49.663   5.964  13.476  0.00  0.00    +0.000 HD
BRANCH   4  13
ATOM     12  N   UNL     1      49.641   7.678  19.887  0.00  0.00    +0.000 N 
ATOM     13  C   UNL     1      48.551   7.664  19.064  0.00  0.00    +0.000 C 
ATOM     14  O   UNL     1      47.415   7.806  19.506  0.00  0.00    +0.000 OA
ATOM     15  H   UNL     1      49.461   7.884  20.864  0.00  0.00    +0.000 HD
ATOM     16  H   UNL     1      50.585   7.830  19.558  0.00  0.00    +0.000 HD
ENDBRANCH   4  13
ENDBRANCH   1   8
BRANCH   1  17
ATOM     17  C   UNL     1      47.559   7.778  12.353  0.00  0.00    +0.000 A 
ATOM     18  C   UNL     1      46.799   8.935  12.172  0.00  0.00    +0.000 A 
ATOM     19  C   UNL     1      45.444   8.822  11.919  0.00  0.00    +0.000 A 
ATOM     20  N   UNL     1      44.790   7.644  11.831  0.00  0.00    +0.000 NA
ATOM     21  C   UNL     1      45.505   6.511  12.027  0.00  0.00    +0.000 A 
ATOM     22  C   UNL     1      46.874   6.553  12.292  0.00  0.00    +0.000 A 
BRANCH  21  23
ATOM     23  C   UNL     1      44.754   5.258  11.916  0.00  0.00    +0.000 A 
ATOM     24  C   UNL     1      44.646   4.353  12.960  0.00  0.00    +0.000 A 
ATOM     25  N   UNL     1      43.955   3.190  12.908  0.00  0.00    +0.000 NA
ATOM     26  C   UNL     1      43.357   2.923  11.739  0.00  0.00    +0.000 A 
ATOM     27  N   UNL     1      43.378   3.706  10.651  0.00  0.00    +0.000 NA
ATOM     28  C   UNL     1      44.086   4.853  10.772  0.00  0.00    +0.000 A 
ENDBRANCH  21  23
ENDBRANCH   1  17
TORSDOF 4
ENDMDL
MODEL 6
REMARK VINA RESULT:    -6.244      3.121      5.833
REMARK INTER + INTRA:          -8.248
REMARK INTER:                  -8.181
REMARK INTRA:                  -0.068
REMARK UNBOUND:                -0.544
REMARK  Name = 
REMARK  4 active torsions:
REMARK  status: ('A' for Active; 'I' for Inactive)
REMARK    1  A    between atoms: C_2  and  C_4
REMARK    2  A    between atoms: N_8  and  C_9
REMARK    3  A    between atoms: C_9  and  C_10
REMARK    4  A    between atoms: C_14  and  C_15
REMARK                            x       y       z     vdW  Elec       q    Type
REMARK                         _______ _______ _______ _____ _____    ______ ____
ROOT
ATOM      1  C   UNL     1      47.554   8.456  13.091  0.00  0.00    +0.000 C 
ATOM      2  C   UNL     1      47.749   9.945  12.854  0.00  0.00    +0.000 C 
ATOM      3  C   UNL     1      48.108   8.975  11.777  0.00  0.00    +0.000 C 
ENDROOT
BRANCH   1   8
ATOM      4  C   UNL     1      44.524   4.833  11.159  0.00  0.00    +0.000 A 
ATOM      5  C   UNL     1      45.768   5.327  10.843  0.00  0.00    +0.000 A 
ATOM      6  N   UNL     1      46.348   6.363  11.489  0.00  0.00    +0.000 NA
ATOM      7  C   UNL     1      45.652   6.928  12.492  0.00  0.00    +0.000 A 
ATOM      8  N   UNL     1      46.164   8.015  13.195  0.00  0.00    +0.000 N 
ATOM      9  N   UNL     1      44.433   6.514  12.873  0.00  0.00    +0.000 NA
ATOM     10  C   UNL     1      43.883   5.488  12.182  0.00  0.00    +0.000 A 
ATOM     11  H   UNL     1      45.663   8.091  14.071  0.00  0.00    +0.000 HD
BRANCH   4  13
ATOM     12  N   UNL     1      44.156   3.560   9.131  0.00  0.00    +0.000 N 
ATOM     13  C   UNL     1      43.885   3.715  10.461  0.00  0.00    +0.000 C 
ATOM     14  O   UNL     1      43.162   2.926  11.061  0.00  0.00    +0.000 OA
ATOM     15  H   UNL     1      43.786   2.723   8.693  0.00  0.00    +0.000 HD
ATOM     16  H   UNL     1      44.932   4.011   8.666  0.00  0.00    +0.000 HD
ENDBRANCH   4  13
ENDBRANCH   1   8
BRANCH   1  17
ATOM     17  C   UNL     1      48.505   7.723  14.028  0.00  0.00    +0.000 A 
ATOM     18  C   UNL     1      49.831   8.123  14.206  0.00  0.00    +0.000 A 
ATOM     19  C   UNL     1      50.616   7.469  15.139  0.00  0.00    +0.000 A 
ATOM     20  N   UNL     1      50.179   6.448  15.908  0.00  0.00    +0.000 NA
ATOM     21  C   UNL     1      48.903   6.030  15.733  0.00  0.00    +0.000 A 
ATOM     22  C   UNL     1      48.059   6.641  14.807  0.00  0.00    +0.000 A 
BRANCH  21  23
ATOM     23  C   UNL     1      48.473   4.925  16.593  0.00  0.00    +0.000 A 
ATOM     24  C   UNL     1      49.250   4.439  17.634  0.00  0.00    +0.000 A 
ATOM     25  N   UNL     1      48.891   3.429  18.461  0.00  0.00    +0.000 NA
ATOM     26  C   UNL     1      47.696   2.875  18.215  0.00  0.00    +0.000 A 
ATOM     27  N   UNL     1      46.846   3.244  17.247  0.00  0.00    +0.000 NA
ATOM     28  C   UNL     1      47.266   4.259  16.457  0.00  0.00    +0.000 A 
ENDBRANCH  21  23
ENDBRANCH   1  17
TORSDOF 4
ENDMDL
