MODEL 1
REMARK VINA RESULT:    -8.130      0.000      0.000
REMARK INTER + INTRA:         -11.121
REMARK INTER:                 -10.506
REMARK INTRA:                  -0.615
REMARK UNBOUND:                -0.615
REMARK  Name = 
REMARK  5 active torsions:
REMARK  status: ('A' for Active; 'I' for Inactive)
REMARK    1  A    between atoms: C_2  and  C_4
REMARK    2  A    between atoms: N_8  and  C_9
REMARK    3  A    between atoms: C_9  and  C_10
REMARK    4  A    between atoms: C_10  and  C_11
REMARK    5  A    between atoms: C_14  and  C_15
REMARK                            x       y       z     vdW  Elec       q    Type
REMARK                         _______ _______ _______ _____ _____    ______ ____
ROOT
ATOM      1  C   UNL     1      44.128   4.511  11.763  0.00  0.00    +0.000 C 
ATOM      2  C   UNL     1      43.043   4.752  12.802  0.00  0.00    +0.000 C 
ATOM      3  C   UNL     1      43.500   3.357  12.525  0.00  0.00    +0.000 C 
ENDROOT
BRANCH   1   8
ATOM      4  C   UNL     1      47.124   8.743  12.246  0.00  0.00    +0.000 A 
ATOM      5  C   UNL     1      45.757   8.619  12.027  0.00  0.00    +0.000 A 
ATOM      6  C   UNL     1      45.194   7.343  11.954  0.00  0.00    +0.000 A 
ATOM      7  C   UNL     1      45.998   6.215  12.108  0.00  0.00    +0.000 A 
ATOM      8  N   UNL     1      45.496   4.916  12.119  0.00  0.00    +0.000 N 
ATOM      9  N   UNL     1      47.330   6.330  12.296  0.00  0.00    +0.000 NA
ATOM     10  C   UNL     1      47.866   7.579  12.352  0.00  0.00    +0.000 A 
ATOM     11  H   UNL     1      46.254   4.240  12.170  0.00  0.00    +0.000 HD
BRANCH   4  13
ATOM     12  N   UNL     1      48.060  10.542  13.590  0.00  0.00    +0.000 N 
ATOM     13  C   UNL     1      47.809  10.051  12.338  0.00  0.00    +0.000 C 
ATOM     14  O   UNL     1      48.167  10.655  11.337  0.00  0.00    +0.000 OA
ATOM     15  H   UNL     1      48.612  11.391  13.636  0.00  0.00    +0.000 HD
ATOM     16  H   UNL     1      48.017   9.971  14.421  0.00  0.00    +0.000 HD
ENDBRANCH   4  13
ENDBRANCH   1   8
BRANCH   1  17
ATOM     17  C   UNL     1      43.752   4.628  10.288  0.00  0.00    +0.000 C 
BRANCH  17  18
ATOM     18  C   UNL     1      44.698   3.873   9.379  0.00  0.00    +0.000 A 
ATOM     19  C   UNL     1      44.788   2.480   9.431  0.00  0.00    +0.000 A 
ATOM     20  C   UNL     1      45.686   1.807   8.606  0.00  0.00    +0.000 A 
ATOM     21  C   UNL     1      46.468   2.558   7.739  0.00  0.00    +0.000 A 
ATOM     22  N   UNL     1      46.407   3.914   7.646  0.00  0.00    +0.000 NA
ATOM     23  C   UNL     1      45.523   4.532   8.468  0.00  0.00    +0.000 A 
BRANCH  21  24
ATOM     24  C   UNL     1      47.442   1.859   6.836  0.00  0.00    +0.000 C 
ATOM     25  N   UNL     1      48.517   2.609   6.432  0.00  0.00    +0.000 N 
ATOM     26  O   UNL     1      47.299   0.699   6.472  0.00  0.00    +0.000 OA
ATOM     27  H   UNL     1      48.596   3.569   6.740  0.00  0.00    +0.000 HD
ATOM     28  H   UNL     1      49.198   2.206   5.805  0.00  0.00    +0.000 HD
ENDBRANCH  21  24
ENDBRANCH  17  18
ENDBRANCH   1  17
TORSDOF 5
ENDMDL
MODEL 2
REMARK VINA RESULT:    -7.630      1.927      7.094
REMARK INTER + INTRA:         -10.476
REMARK INTER:                 -10.353
REMARK INTRA:                  -0.123
REMARK UNBOUND:                -0.615
REMARK  Name = 
REMARK  5 active torsions:
REMARK  status: ('A' for Active; 'I' for Inactive)
REMARK    1  A    between atoms: C_2  and  C_4
REMARK    2  A    between atoms: N_8  and  C_9
REMARK    3  A    between atoms: C_9  and  C_10
REMARK    4  A    between atoms: C_10  and  C_11
REMARK    5  A    between atoms: C_14  and  C_15
REMARK                            x       y       z     vdW  Elec       q    Type
REMARK                         _______ _______ _______ _____ _____    ______ ____
ROOT
ATOM      1  C   UNL     1      44.144   4.993  11.393  0.00  0.00    +0.000 C 
ATOM      2  C   UNL     1      42.650   4.703  11.391  0.00  0.00    +0.000 C 
ATOM      3  C   UNL     1      43.149   5.995  11.950  0.00  0.00    +0.000 C 
ENDROOT
BRANCH   1   8
ATOM      4  C   UNL     1      46.573   2.645   7.430  0.00  0.00    +0.000 A 
ATOM      5  C   UNL     1      45.911   2.114   8.530  0.00  0.00    +0.000 A 
ATOM      6  C   UNL     1      45.322   2.983   9.452  0.00  0.00    +0.000 A 
ATOM      7  C   UNL     1      45.394   4.361   9.257  0.00  0.00    +0.000 A 
ATOM      8  N   UNL     1      44.770   5.284  10.095  0.00  0.00    +0.000 N 
ATOM      9  N   UNL     1      46.057   4.882   8.203  0.00  0.00    +0.000 NA
ATOM     10  C   UNL     1      46.636   4.023   7.321  0.00  0.00    +0.000 A 
ATOM     11  H   UNL     1      45.007   6.233   9.820  0.00  0.00    +0.000 HD
BRANCH   4  13
ATOM     12  N   UNL     1      48.001   2.442   5.471  0.00  0.00    +0.000 N 
ATOM     13  C   UNL     1      47.227   1.806   6.402  0.00  0.00    +0.000 C 
ATOM     14  O   UNL     1      47.109   0.589   6.403  0.00  0.00    +0.000 OA
ATOM     15  H   UNL     1      48.516   1.846   4.832  0.00  0.00    +0.000 HD
ATOM     16  H   UNL     1      48.327   3.391   5.585  0.00  0.00    +0.000 HD
ENDBRANCH   4  13
ENDBRANCH   1   8
BRANCH   1  17
ATOM     17  C   UNL     1      45.017   4.271  12.417  0.00  0.00    +0.000 C 
BRANCH  17  18
ATOM     18  C   UNL     1      46.110   5.151  12.981  0.00  0.00    +0.000 A 
ATOM     19  C   UNL     1      46.459   6.353  12.360  0.00  0.00    +0.000 A 
ATOM     20  C   UNL     1      47.488   7.135  12.880  0.00  0.00    +0.000 A 
ATOM     21  C   UNL     1      48.138   6.688  14.022  0.00  0.00    +0.000 A 
ATOM     22  N   UNL     1      47.825   5.531  14.667  0.00  0.00    +0.000 NA
ATOM     23  C   UNL     1      46.820   4.797  14.128  0.00  0.00    +0.000 A 
BRANCH  21  24
ATOM     24  C   UNL     1      49.247   7.512  14.607  0.00  0.00    +0.000 C 
ATOM     25  N   UNL     1      50.462   7.398  13.980  0.00  0.00    +0.000 N 
ATOM     26  O   UNL     1      49.096   8.239  15.579  0.00  0.00    +0.000 OA
ATOM     27  H   UNL     1      50.555   6.776  13.187  0.00  0.00    +0.000 HD
ATOM     28  H   UNL     1      51.257   7.908  14.336  0.00  0.00    +0.000 HD
ENDBRANCH  21  24
ENDBRANCH  17  18
ENDBRANCH   1  17
TORSDOF 5
ENDMDL
MODEL 3
REMARK VINA RESULT:    -6.198      3.330      7.467
REMARK INTER + INTRA:          -8.625
REMARK INTER:                  -7.868
REMARK INTRA:                  -0.757
REMARK UNBOUND:                -0.615
REMARK  Name = 
REMARK  5 active torsions:
REMARK  status: ('A' for Active; 'I' for Inactive)
REMARK    1  A    between atoms: C_2  and  C_4
REMARK    2  A    between atoms: N_8  and  C_9
REMARK    3  A    between atoms: C_9  and  C_10
REMARK    4  A    between atoms: C_10  and  C_11
REMARK    5  A    between atoms: C_14  and  C_15
REMARK                            x       y       z     vdW  Elec       q    Type
REMARK                         _______ _______ _______ _____ _____    ______ ____
ROOT
ATOM      1  C   UNL     1      45.621   9.000  12.135  0.00  0.00    +0.000 C 
ATOM      2  C   UNL     1      44.920  10.349  12.212  0.00  0.00    +0.000 C 
ATOM      3  C   UNL     1      44.907   9.584  10.928  0.00  0.00    +0.000 C 
ENDROOT
BRANCH   1   8
ATOM      4  C   UNL     1      44.125   4.065  11.413  0.00  0.00    +0.000 A 
ATOM      5  C   UNL     1      44.869   4.914  10.604  0.00  0.00    +0.000 A 
ATOM      6  C   UNL     1      45.147   6.208  11.052  0.00  0.00    +0.000 A 
ATOM      7  C   UNL     1      44.688   6.628  12.299  0.00  0.00    +0.000 A 
ATOM      8  N   UNL     1      44.987   7.877  12.841  0.00  0.00    +0.000 N 
ATOM      9  N   UNL     1      43.944   5.815  13.078  0.00  0.00    +0.000 NA
ATOM     10  C   UNL     1      43.670   4.563  12.622  0.00  0.00    +0.000 A 
ATOM     11  H   UNL     1      44.497   8.011  13.721  0.00  0.00    +0.000 HD
BRANCH   4  13
ATOM     12  N   UNL     1      44.452   2.140   9.962  0.00  0.00    +0.000 N 
ATOM     13  C   UNL     1      43.780   2.680  11.024  0.00  0.00    +0.000 C 
ATOM     14  O   UNL     1      42.951   2.031  11.645  0.00  0.00    +0.000 OA
ATOM     15  H   UNL     1      44.272   1.161   9.767  0.00  0.00    +0.000 HD
ATOM     16  H   UNL     1      45.305   2.536   9.594  0.00  0.00    +0.000 HD
ENDBRANCH   4  13
ENDBRANCH   1   8
BRANCH   1  17
ATOM     17  C   UNL     1      47.146   8.984  12.072  0.00  0.00    +0.000 C 
BRANCH  17  18
ATOM     18  C   UNL     1      47.774   8.274  13.251  0.00  0.00    +0.000 A 
ATOM     19  C   UNL     1      47.927   8.918  14.481  0.00  0.00    +0.000 A 
ATOM     20  C   UNL     1      48.534   8.255  15.546  0.00  0.00    +0.000 A 
ATOM     21  C   UNL     1      48.966   6.952  15.346  0.00  0.00    +0.000 A 
ATOM     22  N   UNL     1      48.828   6.280  14.170  0.00  0.00    +0.000 NA
ATOM     23  C   UNL     1      48.235   6.960  13.157  0.00  0.00    +0.000 A 
BRANCH  21  24
ATOM     24  C   UNL     1      49.619   6.212  16.476  0.00  0.00    +0.000 C 
ATOM     25  N   UNL     1      50.274   6.993  17.394  0.00  0.00    +0.000 N 
ATOM     26  O   UNL     1      49.582   4.993  16.585  0.00  0.00    +0.000 OA
ATOM     27  H   UNL     1      50.297   7.996  17.265  0.00  0.00    +0.000 HD
ATOM     28  H   UNL     1      50.755   6.557  18.166  0.00  0.00    +0.000 HD
ENDBRANCH  21  24
ENDBRANCH  17  18
ENDBRANCH   1  17
TORSDOF 5
ENDMDL
MODEL 4
REMARK VINA RESULT:    -5.935      4.740      6.964
REMARK INTER + INTRA:          -8.285
REMARK INTER:                  -7.715
REMARK INTRA:                  -0.571
REMARK UNBOUND:                -0.615
REMARK  Name = 
REMARK  5 active torsions:
REMARK  status: ('A' for Active; 'I' for Inactive)
REMARK    1  A    between atoms: C_2  and  C_4
REMARK    2  A    between atoms: N_8  and  C_9
REMARK    3  A    between atoms: C_9  and  C_10
REMARK    4  A    between atoms: C_10  and  C_11
REMARK    5  A    between atoms: C_14  and  C_15
REMARK                            x       y       z     vdW  Elec       q    Type
REMARK                         _______ _______ _______ _____ _____    ______ ____
ROOT
ATOM      1  C   UNL     1      49.260   8.052  13.558  0.00  0.00    +0.000 C 
ATOM      2  C   UNL     1      49.432   9.564  13.510  0.00  0.00    +0.000 C 
ATOM      3  C   UNL     1      48.276   8.977  14.253  0.00  0.00    +0.000 C 
ENDROOT
BRANCH   1   8
ATOM      4  C   UNL     1      49.512   5.294  17.968  0.00  0.00    +0.000 A 
ATOM      5  C   UNL     1      48.420   5.811  17.282  0.00  0.00    +0.000 A 
ATOM      6  C   UNL     1      48.633   6.511  16.092  0.00  0.00    +0.000 A 
ATOM      7  C   UNL     1      49.928   6.675  15.603  0.00  0.00    +0.000 A 
ATOM      8  N   UNL     1      50.210   7.298  14.388  0.00  0.00    +0.000 N 
ATOM      9  N   UNL     1      50.994   6.196  16.277  0.00  0.00    +0.000 NA
ATOM     10  C   UNL     1      50.771   5.529  17.442  0.00  0.00    +0.000 A 
ATOM     11  H   UNL     1      51.215   7.379  14.253  0.00  0.00    +0.000 HD
BRANCH   4  13
ATOM     12  N   UNL     1      48.551   3.456  19.240  0.00  0.00    +0.000 N 
ATOM     13  C   UNL     1      49.385   4.541  19.235  0.00  0.00    +0.000 C 
ATOM     14  O   UNL     1      50.023   4.854  20.229  0.00  0.00    +0.000 OA
ATOM     15  H   UNL     1      48.547   2.897  20.085  0.00  0.00    +0.000 HD
ATOM     16  H   UNL     1      48.214   3.020  18.394  0.00  0.00    +0.000 HD
ENDBRANCH   4  13
ENDBRANCH   1   8
BRANCH   1  17
ATOM     17  C   UNL     1      48.750   7.345  12.304  0.00  0.00    +0.000 C 
BRANCH  17  18
ATOM     18  C   UNL     1      47.441   6.622  12.531  0.00  0.00    +0.000 A 
ATOM     19  C   UNL     1      47.395   5.425  13.250  0.00  0.00    +0.000 A 
ATOM     20  C   UNL     1      46.183   4.760  13.422  0.00  0.00    +0.000 A 
ATOM     21  C   UNL     1      45.041   5.325  12.871  0.00  0.00    +0.000 A 
ATOM     22  N   UNL     1      45.036   6.494  12.174  0.00  0.00    +0.000 NA
ATOM     23  C   UNL     1      46.236   7.109  12.025  0.00  0.00    +0.000 A 
BRANCH  21  24
ATOM     24  C   UNL     1      43.721   4.633  13.045  0.00  0.00    +0.000 C 
ATOM     25  N   UNL     1      42.627   5.457  13.121  0.00  0.00    +0.000 N 
ATOM     26  O   UNL     1      43.611   3.416  13.118  0.00  0.00    +0.000 OA
ATOM     27  H   UNL     1      42.755   6.459  13.070  0.00  0.00    +0.000 HD
ATOM     28  H   UNL     1      41.711   5.057  13.260  0.00  0.00    +0.000 HD
ENDBRANCH  21  24
ENDBRANCH  17  18
ENDBRANCH   1  17
TORSDOF 5
ENDMDL
MODEL 5
REMARK VINA RESULT:    -5.923      4.658      7.998
REMARK INTER + INTRA:          -8.270
REMARK INTER:                  -7.770
REMARK INTRA:                  -0.500
REMARK UNBOUND:                -0.615
REMARK  Name = 
REMARK  5 active torsions:
REMARK  status: ('A' for Active; 'I' for Inactive)
REMARK    1  A    between atoms: C_2  and  C_4
REMARK    2  A    between atoms: N_8  and  C_9
REMARK    3  A    between atoms: C_9  and  C_10
REMARK    4  A    between atoms: C_10  and  C_11
REMARK    5  A    between atoms: C_14  and  C_15
REMARK                            x       y       z     vdW  Elec       q    Type
REMARK                         _______ _______ _______ _____ _____    ______ ____
ROOT
ATOM      1  C   UNL     1      48.284   7.980  13.971  0.00  0.00    +0.000 C 
ATOM      2  C   UNL     1      49.206   8.671  12.977  0.00  0.00    +0.000 C 
ATOM      3  C   UNL     1      49.271   7.187  13.133  0.00  0.00    +0.000 C 
ENDROOT
BRANCH   1   8
ATOM      4  C   UNL     1      44.654   4.604  12.376  0.00  0.00    +0.000 A 
ATOM      5  C   UNL     1      45.961   4.397  12.801  0.00  0.00    +0.000 A 
ATOM      6  C   UNL     1      46.728   5.496  13.197  0.00  0.00    +0.000 A 
ATOM      7  C   UNL     1      46.178   6.776  13.172  0.00  0.00    +0.000 A 
ATOM      8  N   UNL     1      46.858   7.907  13.620  0.00  0.00    +0.000 N 
ATOM      9  N   UNL     1      44.917   6.985  12.738  0.00  0.00    +0.000 NA
ATOM     10  C   UNL     1      44.187   5.906  12.342  0.00  0.00    +0.000 A 
ATOM     11  H   UNL     1      46.309   8.745  13.448  0.00  0.00    +0.000 HD
BRANCH   4  13
ATOM     12  N   UNL     1      43.817   2.336  12.647  0.00  0.00    +0.000 N 
ATOM     13  C   UNL     1      43.767   3.504  11.937  0.00  0.00    +0.000 C 
ATOM     14  O   UNL     1      42.996   3.643  10.999  0.00  0.00    +0.000 OA
ATOM     15  H   UNL     1      43.138   1.627  12.393  0.00  0.00    +0.000 HD
ATOM     16  H   UNL     1      44.237   2.268  13.562  0.00  0.00    +0.000 HD
ENDBRANCH   4  13
ENDBRANCH   1   8
BRANCH   1  17
ATOM     17  C   UNL     1      48.607   8.101  15.458  0.00  0.00    +0.000 C 
BRANCH  17  18
ATOM     18  C   UNL     1      49.156   6.819  16.046  0.00  0.00    +0.000 A 
ATOM     19  C   UNL     1      48.307   5.766  16.393  0.00  0.00    +0.000 A 
ATOM     20  C   UNL     1      48.830   4.605  16.959  0.00  0.00    +0.000 A 
ATOM     21  C   UNL     1      50.202   4.532  17.153  0.00  0.00    +0.000 A 
ATOM     22  N   UNL     1      51.068   5.527  16.820  0.00  0.00    +0.000 NA
ATOM     23  C   UNL     1      50.520   6.642  16.275  0.00  0.00    +0.000 A 
BRANCH  21  24
ATOM     24  C   UNL     1      50.794   3.292  17.757  0.00  0.00    +0.000 C 
ATOM     25  N   UNL     1      51.570   3.489  18.871  0.00  0.00    +0.000 N 
ATOM     26  O   UNL     1      50.608   2.173  17.297  0.00  0.00    +0.000 OA
ATOM     27  H   UNL     1      51.714   4.429  19.216  0.00  0.00    +0.000 HD
ATOM     28  H   UNL     1      52.016   2.699  19.313  0.00  0.00    +0.000 HD
ENDBRANCH  21  24
ENDBRANCH  17  18
ENDBRANCH   1  17
TORSDOF 5
ENDMDL
MODEL 6
REMARK VINA RESULT:    -5.865      4.107      7.995
REMARK INTER + INTRA:          -8.195
REMARK INTER:                  -7.546
REMARK INTRA:                  -0.649
REMARK UNBOUND:                -0.615
REMARK  Name = 
REMARK  5 active torsions:
REMARK  status: ('A' for Active; 'I' for Inactive)
REMARK    1  A    between atoms: C_2  and  C_4
REMARK    2  A    between atoms: N_8  and  C_9
REMARK    3  A    between atoms: C_9  and  C_10
REMARK    4  A    between atoms: C_10  and  C_11
REMARK    5  A    between atoms: C_14  and  C_15
REMARK                            x       y       z     vdW  Elec       q    Type
REMARK                         _______ _______ _______ _____ _____    ______ ____
ROOT
ATOM      1  C   UNL     1      48.038   8.697  13.250  0.00  0.00    +0.000 C 
ATOM      2  C   UNL     1      48.125  10.216  13.238  0.00  0.00    +0.000 C 
ATOM      3  C   UNL     1      48.284   9.459  11.960  0.00  0.00    +0.000 C 
ENDROOT
BRANCH   1   8
ATOM      4  C   UNL     1      44.653   5.392  11.074  0.00  0.00    +0.000 A 
ATOM      5  C   UNL     1      45.968   5.692  10.742  0.00  0.00    +0.000 A 
ATOM      6  C   UNL     1      46.668   6.622  11.515  0.00  0.00    +0.000 A 
ATOM      7  C   UNL     1      46.051   7.226  12.608  0.00  0.00    +0.000 A 
ATOM      8  N   UNL     1      46.709   8.106  13.465  0.00  0.00    +0.000 N 
ATOM      9  N   UNL     1      44.766   6.956  12.921  0.00  0.00    +0.000 NA
ATOM     10  C   UNL     1      44.093   6.058  12.150  0.00  0.00    +0.000 A 
ATOM     11  H   UNL     1      46.062   8.489  14.151  0.00  0.00    +0.000 HD
BRANCH   4  13
ATOM     12  N   UNL     1      43.975   4.409   8.954  0.00  0.00    +0.000 N 
ATOM     13  C   UNL     1      43.832   4.423  10.315  0.00  0.00    +0.000 C 
ATOM     14  O   UNL     1      43.081   3.642  10.881  0.00  0.00    +0.000 OA
ATOM     15  H   UNL     1      43.477   3.679   8.458  0.00  0.00    +0.000 HD
ATOM     16  H   UNL     1      44.752   4.845   8.480  0.00  0.00    +0.000 HD
ENDBRANCH   4  13
ENDBRANCH   1   8
BRANCH   1  17
ATOM     17  C   UNL     1      49.223   7.912  13.806  0.00  0.00    +0.000 C 
BRANCH  17  18
ATOM     18  C   UNL     1      48.883   7.151  15.068  0.00  0.00    +0.000 A 
ATOM     19  C   UNL     1      48.968   7.762  16.322  0.00  0.00    +0.000 A 
ATOM     20  C   UNL     1      48.678   7.035  17.474  0.00  0.00    +0.000 A 
ATOM     21  C   UNL     1      48.299   5.708  17.333  0.00  0.00    +0.000 A 
ATOM     22  N   UNL     1      48.191   5.074  16.134  0.00  0.00    +0.000 NA
ATOM     23  C   UNL     1      48.486   5.815  15.036  0.00  0.00    +0.000 A 
BRANCH  21  24
ATOM     24  C   UNL     1      47.977   4.901  18.557  0.00  0.00    +0.000 C 
ATOM     25  N   UNL     1      46.956   5.387  19.334  0.00  0.00    +0.000 N 
ATOM     26  O   UNL     1      48.577   3.878  18.858  0.00  0.00    +0.000 OA
ATOM     27  H   UNL     1      46.491   6.244  19.063  0.00  0.00    +0.000 HD
ATOM     28  H   UNL     1      46.703   4.905  20.183  0.00  0.00    +0.000 HD
ENDBRANCH  21  24
ENDBRANCH  17  18
ENDBRANCH   1  17
TORSDOF 5
ENDMDL
MODEL 7
REMARK VINA RESULT:    -5.726      3.979      5.894
REMARK INTER + INTRA:          -8.014
REMARK INTER:                  -7.412
REMARK INTRA:                  -0.602
REMARK UNBOUND:                -0.615
REMARK  Name = 
REMARK  5 active torsions:
REMARK  status: ('A' for Active; 'I' for Inactive)
REMARK    1  A    between atoms: C_2  and  C_4
REMARK    2  A    between atoms: N_8  and  C_9
REMARK    3  A    between atoms: C_9  and  C_10
REMARK    4  A    between atoms: C_10  and  C_11
REMARK    5  A    between atoms: C_14  and  C_15
REMARK                            x       y       z     vdW  Elec       q    Type
REMARK                         _______ _______ _______ _____ _____    ______ ____
ROOT
ATOM      1  C   UNL     1      48.589   7.767  12.559  0.00  0.00    +0.000 C 
ATOM      2  C   UNL     1      49.558   7.811  11.386  0.00  0.00    +0.000 C 
ATOM      3  C   UNL     1      49.527   8.944  12.358  0.00  0.00    +0.000 C 
ENDROOT
BRANCH   1   8
ATOM      4  C   UNL     1      48.965   7.481  17.745  0.00  0.00    +0.000 A 
ATOM      5  C   UNL     1      48.503   8.502  16.924  0.00  0.00    +0.000 A 
ATOM      6  C   UNL     1      48.494   8.310  15.540  0.00  0.00    +0.000 A 
ATOM      7  C   UNL     1      48.936   7.104  15.000  0.00  0.00    +0.000 A 
ATOM      8  N   UNL     1      48.889   6.815  13.638  0.00  0.00    +0.000 N 
ATOM      9  N   UNL     1      49.409   6.117  15.792  0.00  0.00    +0.000 NA
ATOM     10  C   UNL     1      49.423   6.325  17.137  0.00  0.00    +0.000 A 
ATOM     11  H   UNL     1      49.325   5.916  13.447  0.00  0.00    +0.000 HD
BRANCH   4  13
ATOM     12  N   UNL     1      49.316   6.459  19.925  0.00  0.00    +0.000 N 
ATOM     13  C   UNL     1      49.013   7.592  19.219  0.00  0.00    +0.000 C 
ATOM     14  O   UNL     1      48.823   8.659  19.784  0.00  0.00    +0.000 OA
ATOM     15  H   UNL     1      49.436   6.573  20.925  0.00  0.00    +0.000 HD
ATOM     16  H   UNL     1      49.724   5.641  19.499  0.00  0.00    +0.000 HD
ENDBRANCH   4  13
ENDBRANCH   1   8
BRANCH   1  17
ATOM     17  C   UNL     1      47.111   8.030  12.282  0.00  0.00    +0.000 C 
BRANCH  17  18
ATOM     18  C   UNL     1      46.320   6.759  12.063  0.00  0.00    +0.000 A 
ATOM     19  C   UNL     1      46.158   6.223  10.783  0.00  0.00    +0.000 A 
ATOM     20  C   UNL     1      45.402   5.067  10.601  0.00  0.00    +0.000 A 
ATOM     21  C   UNL     1      44.833   4.473  11.719  0.00  0.00    +0.000 A 
ATOM     22  N   UNL     1      44.974   4.952  12.985  0.00  0.00    +0.000 NA
ATOM     23  C   UNL     1      45.714   6.080  13.121  0.00  0.00    +0.000 A 
BRANCH  21  24
ATOM     24  C   UNL     1      44.017   3.224  11.553  0.00  0.00    +0.000 C 
ATOM     25  N   UNL     1      43.777   2.517  12.703  0.00  0.00    +0.000 N 
ATOM     26  O   UNL     1      43.590   2.847  10.470  0.00  0.00    +0.000 OA
ATOM     27  H   UNL     1      44.157   2.851  13.580  0.00  0.00    +0.000 HD
ATOM     28  H   UNL     1      43.253   1.656  12.658  0.00  0.00    +0.000 HD
ENDBRANCH  21  24
ENDBRANCH  17  18
ENDBRANCH   1  17
TORSDOF 5
ENDMDL
MODEL 8
REMARK VINA RESULT:    -5.576      4.620      8.332
REMARK INTER + INTRA:          -7.821
REMARK INTER:                  -7.312
REMARK INTRA:                  -0.509
REMARK UNBOUND:                -0.615
REMARK  Name = 
REMARK  5 active torsions:
REMARK  status: ('A' for Active; 'I' for Inactive)
REMARK    1  A    between atoms: C_2  and  C_4
REMARK    2  A    between atoms: N_8  and  C_9
REMARK    3  A    between atoms: C_9  and  C_10
REMARK    4  A    between atoms: C_10  and  C_11
REMARK    5  A    between atoms: C_14  and  C_15
REMARK                            x       y       z     vdW  Elec       q    Type
REMARK                         _______ _______ _______ _____ _____    ______ ____
ROOT
ATOM      1  C   UNL     1      49.548   7.826  13.015  0.00  0.00    +0.000 C 
ATOM      2  C   UNL     1      49.276   8.660  11.772  0.00  0.00    +0.000 C 
ATOM      3  C   UNL     1      50.657   8.151  12.030  0.00  0.00    +0.000 C 
ENDROOT
BRANCH   1   8
ATOM      4  C   UNL     1      45.040   5.221  13.106  0.00  0.00    +0.000 A 
ATOM      5  C   UNL     1      45.301   6.575  12.940  0.00  0.00    +0.000 A 
ATOM      6  C   UNL     1      46.627   7.015  12.939  0.00  0.00    +0.000 A 
ATOM      7  C   UNL     1      47.666   6.100  13.094  0.00  0.00    +0.000 A 
ATOM      8  N   UNL     1      49.012   6.457  13.032  0.00  0.00    +0.000 N 
ATOM      9  N   UNL     1      47.417   4.787  13.281  0.00  0.00    +0.000 NA
ATOM     10  C   UNL     1      46.120   4.375  13.292  0.00  0.00    +0.000 A 
ATOM     11  H   UNL     1      49.604   5.657  13.242  0.00  0.00    +0.000 HD
BRANCH   4  13
ATOM     12  N   UNL     1      42.633   5.534  12.933  0.00  0.00    +0.000 N 
ATOM     13  C   UNL     1      43.671   4.661  13.122  0.00  0.00    +0.000 C 
ATOM     14  O   UNL     1      43.473   3.463  13.265  0.00  0.00    +0.000 OA
ATOM     15  H   UNL     1      41.710   5.122  12.854  0.00  0.00    +0.000 HD
ATOM     16  H   UNL     1      42.760   6.464  12.563  0.00  0.00    +0.000 HD
ENDBRANCH   4  13
ENDBRANCH   1   8
BRANCH   1  17
ATOM     17  C   UNL     1      49.612   8.541  14.362  0.00  0.00    +0.000 C 
BRANCH  17  18
ATOM     18  C   UNL     1      49.783   7.589  15.525  0.00  0.00    +0.000 A 
ATOM     19  C   UNL     1      51.008   6.961  15.768  0.00  0.00    +0.000 A 
ATOM     20  C   UNL     1      51.135   6.066  16.827  0.00  0.00    +0.000 A 
ATOM     21  C   UNL     1      50.023   5.829  17.624  0.00  0.00    +0.000 A 
ATOM     22  N   UNL     1      48.814   6.426  17.432  0.00  0.00    +0.000 NA
ATOM     23  C   UNL     1      48.730   7.288  16.389  0.00  0.00    +0.000 A 
BRANCH  21  24
ATOM     24  C   UNL     1      50.132   4.872  18.774  0.00  0.00    +0.000 C 
ATOM     25  N   UNL     1      51.101   3.909  18.652  0.00  0.00    +0.000 N 
ATOM     26  O   UNL     1      49.411   4.932  19.761  0.00  0.00    +0.000 OA
ATOM     27  H   UNL     1      51.670   3.880  17.816  0.00  0.00    +0.000 HD
ATOM     28  H   UNL     1      51.212   3.219  19.380  0.00  0.00    +0.000 HD
ENDBRANCH  21  24
ENDBRANCH  17  18
ENDBRANCH   1  17
TORSDOF 5
ENDMDL
MODEL 9
REMARK VINA RESULT:    -5.474      6.827      8.518
REMARK INTER + INTRA:          -7.689
REMARK INTER:                  -7.751
REMARK INTRA:                   0.062
REMARK UNBOUND:                -0.615
REMARK  Name = 
REMARK  5 active torsions:
REMARK  status: ('A' for Active; 'I' for Inactive)
REMARK    1  A    between atoms: C_2  and  C_4
REMARK    2  A    between atoms: N_8  and  C_9
REMARK    3  A    between atoms: C_9  and  C_10
REMARK    4  A    between atoms: C_10  and  C_11
REMARK    5  A    between atoms: C_14  and  C_15
REMARK                            x       y       z     vdW  Elec       q    Type
REMARK                         _______ _______ _______ _____ _____    ______ ____
ROOT
ATOM      1  C   UNL     1      48.222   4.026  17.136  0.00  0.00    +0.000 C 
ATOM      2  C   UNL     1      47.793   3.425  18.466  0.00  0.00    +0.000 C 
ATOM      3  C   UNL     1      47.350   4.806  18.104  0.00  0.00    +0.000 C 
ENDROOT
BRANCH   1   8
ATOM      4  C   UNL     1      46.239   5.512  12.556  0.00  0.00    +0.000 A 
ATOM      5  C   UNL     1      46.938   6.231  13.518  0.00  0.00    +0.000 A 
ATOM      6  C   UNL     1      47.379   5.574  14.669  0.00  0.00    +0.000 A 
ATOM      7  C   UNL     1      47.126   4.214  14.837  0.00  0.00    +0.000 A 
ATOM      8  N   UNL     1      47.597   3.479  15.923  0.00  0.00    +0.000 N 
ATOM      9  N   UNL     1      46.426   3.517  13.917  0.00  0.00    +0.000 NA
ATOM     10  C   UNL     1      45.991   4.174  12.807  0.00  0.00    +0.000 A 
ATOM     11  H   UNL     1      47.240   2.527  15.892  0.00  0.00    +0.000 HD
BRANCH   4  13
ATOM     12  N   UNL     1      45.636   5.312  10.207  0.00  0.00    +0.000 N 
ATOM     13  C   UNL     1      45.732   6.121  11.307  0.00  0.00    +0.000 C 
ATOM     14  O   UNL     1      45.380   7.290  11.264  0.00  0.00    +0.000 OA
ATOM     15  H   UNL     1      45.201   5.718   9.387  0.00  0.00    +0.000 HD
ATOM     16  H   UNL     1      45.669   4.304  10.263  0.00  0.00    +0.000 HD
ENDBRANCH   4  13
ENDBRANCH   1   8
BRANCH   1  17
ATOM     17  C   UNL     1      49.665   4.504  16.994  0.00  0.00    +0.000 C 
BRANCH  17  18
ATOM     18  C   UNL     1      50.675   3.421  17.302  0.00  0.00    +0.000 A 
ATOM     19  C   UNL     1      51.898   3.726  17.904  0.00  0.00    +0.000 A 
ATOM     20  C   UNL     1      52.825   2.717  18.153  0.00  0.00    +0.000 A 
ATOM     21  C   UNL     1      52.492   1.418  17.795  0.00  0.00    +0.000 A 
ATOM     22  N   UNL     1      51.310   1.072  17.218  0.00  0.00    +0.000 NA
ATOM     23  C   UNL     1      50.435   2.083  16.988  0.00  0.00    +0.000 A 
BRANCH  21  24
ATOM     24  C   UNL     1      53.470   0.310  18.055  0.00  0.00    +0.000 C 
ATOM     25  N   UNL     1      52.935  -0.844  18.568  0.00  0.00    +0.000 N 
ATOM     26  O   UNL     1      54.670   0.414  17.833  0.00  0.00    +0.000 OA
ATOM     27  H   UNL     1      51.941  -0.891  18.752  0.00  0.00    +0.000 HD
ATOM     28  H   UNL     1      53.541  -1.620  18.787  0.00  0.00    +0.000 HD
ENDBRANCH  21  24
ENDBRANCH  17  18
ENDBRANCH   1  17
TORSDOF 5
ENDMDL
