MODEL 1
REMARK VINA RESULT:    -7.945      0.000      0.000
REMARK INTER + INTRA:         -12.007
REMARK INTER:                 -11.196
REMARK INTRA:                  -0.811
REMARK UNBOUND:                -0.811
REMARK  Name = 
REMARK  8 active torsions:
REMARK  status: ('A' for Active; 'I' for Inactive)
REMARK    1  A    between atoms: C_1  and  C_2
REMARK    2  A    between atoms: C_4  and  C_5
REMARK    3  A    between atoms: C_10  and  O_11
REMARK    4  A    between atoms: O_11  and  C_12
REMARK    5  A    between atoms: C_12  and  C_13
REMARK    6  A    between atoms: C_17  and  C_18
REMARK    7  A    between atoms: C_22  and  O_23
REMARK    8  A    between atoms: O_23  and  C_24
REMARK                            x       y       z     vdW  Elec       q    Type
REMARK                         _______ _______ _______ _____ _____    ______ ____
ROOT
ATOM      1  C   UNL     1      45.189   3.985  12.507  0.00  0.00    +0.000 A 
ATOM      2  N   UNL     1      46.031   3.283  13.294  0.00  0.00    +0.000 NA
ATOM      3  C   UNL     1      46.996   3.980  13.912  0.00  0.00    +0.000 A 
ATOM      4  C   UNL     1      47.157   5.338  13.774  0.00  0.00    +0.000 A 
ATOM      5  C   UNL     1      46.263   5.985  12.941  0.00  0.00    +0.000 A 
ATOM      6  N   UNL     1      45.265   5.321  12.320  0.00  0.00    +0.000 NA
ENDROOT
BRANCH   5   7
ATOM      7  C   UNL     1      46.336   7.431  12.671  0.00  0.00    +0.000 A 
ATOM      8  C   UNL     1      47.561   8.088  12.534  0.00  0.00    +0.000 A 
ATOM      9  N   UNL     1      47.705   9.416  12.299  0.00  0.00    +0.000 NA
ATOM     10  C   UNL     1      46.568  10.140  12.204  0.00  0.00    +0.000 A 
ATOM     11  C   UNL     1      45.292   9.601  12.300  0.00  0.00    +0.000 A 
ATOM     12  C   UNL     1      45.185   8.233  12.554  0.00  0.00    +0.000 A 
BRANCH  11  13
ATOM     13  O   UNL     1      44.252  10.473  12.170  0.00  0.00    +0.000 OA
BRANCH  13  14
ATOM     14  C   UNL     1      43.576  10.435  10.924  0.00  0.00    +0.000 C 
ATOM     15  F   UNL     1      44.493  10.442   9.926  0.00  0.00    +0.000 F 
ATOM     16  F   UNL     1      42.926   9.247  10.852  0.00  0.00    +0.000 F 
ENDBRANCH  13  14
ENDBRANCH  11  13
ENDBRANCH   5   7
BRANCH   1  17
ATOM     17  C   UNL     1      44.022   3.244  11.891  0.00  0.00    +0.000 C 
BRANCH  17  18
ATOM     18  O   UNL     1      43.691   3.716  10.573  0.00  0.00    +0.000 OA
BRANCH  18  25
ATOM     19  C   UNL     1      45.404   5.603   9.211  0.00  0.00    +0.000 C 
ATOM     20  C   UNL     1      45.428   4.125   8.970  0.00  0.00    +0.000 A 
ATOM     21  C   UNL     1      46.325   3.582   8.031  0.00  0.00    +0.000 A 
ATOM     22  C   UNL     1      46.361   2.205   7.790  0.00  0.00    +0.000 A 
ATOM     23  C   UNL     1      45.489   1.416   8.509  0.00  0.00    +0.000 A 
ATOM     24  N   UNL     1      44.611   1.897   9.418  0.00  0.00    +0.000 NA
ATOM     25  C   UNL     1      44.590   3.234   9.639  0.00  0.00    +0.000 A 
BRANCH  22  26
ATOM     26  C   UNL     1      47.318   1.662   6.794  0.00  0.00    +0.000 C 
ATOM     27  N   UNL     1      48.373   2.433   6.399  0.00  0.00    +0.000 N 
ATOM     28  O   UNL     1      47.173   0.537   6.327  0.00  0.00    +0.000 OA
ATOM     29  H   UNL     1      48.595   3.364   6.717  0.00  0.00    +0.000 HD
ATOM     30  H   UNL     1      49.004   2.017   5.719  0.00  0.00    +0.000 HD
ENDBRANCH  22  26
ENDBRANCH  18  25
ENDBRANCH  17  18
ENDBRANCH   1  17
TORSDOF 7
ENDMDL
MODEL 2
REMARK VINA RESULT:    -7.770      5.366      8.232
REMARK INTER + INTRA:         -11.761
REMARK INTER:                 -11.014
REMARK INTRA:                  -0.747
REMARK UNBOUND:                -0.811
REMARK  Name = 
REMARK  8 active torsions:
REMARK  status: ('A' for Active; 'I' for Inactive)
REMARK    1  A    between atoms: C_1  and  C_2
REMARK    2  A    between atoms: C_4  and  C_5
REMARK    3  A    between atoms: C_10  and  O_11
REMARK    4  A    between atoms: O_11  and  C_12
REMARK    5  A    between atoms: C_12  and  C_13
REMARK    6  A    between atoms: C_17  and  C_18
REMARK    7  A    between atoms: C_22  and  O_23
REMARK    8  A    between atoms: O_23  and  C_24
REMARK                            x       y       z     vdW  Elec       q    Type
REMARK                         _______ _______ _______ _____ _____    ______ ____
ROOT
ATOM      1  C   UNL     1      47.518   4.701  15.519  0.00  0.00    +0.000 A 
ATOM      2  N   UNL     1      48.377   5.708  15.267  0.00  0.00    +0.000 NA
ATOM      3  C   UNL     1      48.124   6.458  14.184  0.00  0.00    +0.000 A 
ATOM      4  C   UNL     1      47.057   6.239  13.345  0.00  0.00    +0.000 A 
ATOM      5  C   UNL     1      46.227   5.180  13.662  0.00  0.00    +0.000 A 
ATOM      6  N   UNL     1      46.438   4.419  14.757  0.00  0.00    +0.000 NA
ENDROOT
BRANCH   5   7
ATOM      7  C   UNL     1      45.068   4.806  12.835  0.00  0.00    +0.000 A 
ATOM      8  C   UNL     1      43.845   5.472  12.946  0.00  0.00    +0.000 A 
ATOM      9  N   UNL     1      42.733   5.174  12.229  0.00  0.00    +0.000 NA
ATOM     10  C   UNL     1      42.833   4.148  11.357  0.00  0.00    +0.000 A 
ATOM     11  C   UNL     1      43.996   3.422  11.140  0.00  0.00    +0.000 A 
ATOM     12  C   UNL     1      45.116   3.750  11.906  0.00  0.00    +0.000 A 
BRANCH  11  13
ATOM     13  O   UNL     1      43.927   2.422  10.216  0.00  0.00    +0.000 OA
BRANCH  13  14
ATOM     14  C   UNL     1      44.946   2.431   9.231  0.00  0.00    +0.000 C 
ATOM     15  F   UNL     1      45.198   1.156   8.847  0.00  0.00    +0.000 F 
ATOM     16  F   UNL     1      44.456   3.079   8.145  0.00  0.00    +0.000 F 
ENDBRANCH  13  14
ENDBRANCH  11  13
ENDBRANCH   5   7
BRANCH   1  17
ATOM     17  C   UNL     1      47.713   3.914  16.797  0.00  0.00    +0.000 C 
BRANCH  17  18
ATOM     18  O   UNL     1      48.750   4.455  17.636  0.00  0.00    +0.000 OA
BRANCH  18  25
ATOM     19  C   UNL     1      51.183   5.419  18.859  0.00  0.00    +0.000 C 
ATOM     20  C   UNL     1      51.041   4.066  18.231  0.00  0.00    +0.000 A 
ATOM     21  C   UNL     1      52.134   3.182  18.216  0.00  0.00    +0.000 A 
ATOM     22  C   UNL     1      52.022   1.916  17.633  0.00  0.00    +0.000 A 
ATOM     23  C   UNL     1      50.803   1.581  17.084  0.00  0.00    +0.000 A 
ATOM     24  N   UNL     1      49.728   2.401  17.076  0.00  0.00    +0.000 NA
ATOM     25  C   UNL     1      49.855   3.624  17.645  0.00  0.00    +0.000 A 
BRANCH  22  26
ATOM     26  C   UNL     1      53.194   1.005  17.632  0.00  0.00    +0.000 C 
ATOM     27  N   UNL     1      53.069  -0.236  18.189  0.00  0.00    +0.000 N 
ATOM     28  O   UNL     1      54.263   1.350  17.140  0.00  0.00    +0.000 OA
ATOM     29  H   UNL     1      52.243  -0.628  18.614  0.00  0.00    +0.000 HD
ATOM     30  H   UNL     1      53.896  -0.826  18.160  0.00  0.00    +0.000 HD
ENDBRANCH  22  26
ENDBRANCH  18  25
ENDBRANCH  17  18
ENDBRANCH   1  17
TORSDOF 7
ENDMDL
MODEL 3
REMARK VINA RESULT:    -7.762      3.422      4.263
REMARK INTER + INTRA:         -11.750
REMARK INTER:                 -10.741
REMARK INTRA:                  -1.009
REMARK UNBOUND:                -0.811
REMARK  Name = 
REMARK  8 active torsions:
REMARK  status: ('A' for Active; 'I' for Inactive)
REMARK    1  A    between atoms: C_1  and  C_2
REMARK    2  A    between atoms: C_4  and  C_5
REMARK    3  A    between atoms: C_10  and  O_11
REMARK    4  A    between atoms: O_11  and  C_12
REMARK    5  A    between atoms: C_12  and  C_13
REMARK    6  A    between atoms: C_17  and  C_18
REMARK    7  A    between atoms: C_22  and  O_23
REMARK    8  A    between atoms: O_23  and  C_24
REMARK                            x       y       z     vdW  Elec       q    Type
REMARK                         _______ _______ _______ _____ _____    ______ ____
ROOT
ATOM      1  C   UNL     1      45.763   5.819  11.756  0.00  0.00    +0.000 A 
ATOM      2  N   UNL     1      45.324   4.939  12.679  0.00  0.00    +0.000 NA
ATOM      3  C   UNL     1      46.103   4.760  13.756  0.00  0.00    +0.000 A 
ATOM      4  C   UNL     1      47.297   5.414  13.945  0.00  0.00    +0.000 A 
ATOM      5  C   UNL     1      47.686   6.291  12.950  0.00  0.00    +0.000 A 
ATOM      6  N   UNL     1      46.917   6.515  11.862  0.00  0.00    +0.000 NA
ENDROOT
BRANCH   5   7
ATOM      7  C   UNL     1      48.956   7.034  13.000  0.00  0.00    +0.000 A 
ATOM      8  C   UNL     1      49.523   7.432  14.213  0.00  0.00    +0.000 A 
ATOM      9  N   UNL     1      50.679   8.130  14.335  0.00  0.00    +0.000 NA
ATOM     10  C   UNL     1      51.308   8.463  13.187  0.00  0.00    +0.000 A 
ATOM     11  C   UNL     1      50.858   8.109  11.922  0.00  0.00    +0.000 A 
ATOM     12  C   UNL     1      49.658   7.403  11.837  0.00  0.00    +0.000 A 
BRANCH  11  13
ATOM     13  O   UNL     1      51.620   8.520  10.868  0.00  0.00    +0.000 OA
BRANCH  13  14
ATOM     14  C   UNL     1      52.439   7.521  10.283  0.00  0.00    +0.000 C 
ATOM     15  F   UNL     1      51.822   7.040   9.176  0.00  0.00    +0.000 F 
ATOM     16  F   UNL     1      53.579   8.125   9.866  0.00  0.00    +0.000 F 
ENDBRANCH  13  14
ENDBRANCH  11  13
ENDBRANCH   5   7
BRANCH   1  17
ATOM     17  C   UNL     1      44.850   6.128  10.590  0.00  0.00    +0.000 C 
BRANCH  17  18
ATOM     18  O   UNL     1      44.120   4.977  10.129  0.00  0.00    +0.000 OA
BRANCH  18  25
ATOM     19  C   UNL     1      44.022   2.115  10.513  0.00  0.00    +0.000 C 
ATOM     20  C   UNL     1      44.887   2.794   9.496  0.00  0.00    +0.000 A 
ATOM     21  C   UNL     1      45.716   2.027   8.657  0.00  0.00    +0.000 A 
ATOM     22  C   UNL     1      46.532   2.641   7.703  0.00  0.00    +0.000 A 
ATOM     23  C   UNL     1      46.483   4.017   7.624  0.00  0.00    +0.000 A 
ATOM     24  N   UNL     1      45.703   4.791   8.411  0.00  0.00    +0.000 NA
ATOM     25  C   UNL     1      44.918   4.178   9.330  0.00  0.00    +0.000 A 
BRANCH  22  26
ATOM     26  C   UNL     1      47.396   1.806   6.832  0.00  0.00    +0.000 C 
ATOM     27  N   UNL     1      48.492   2.373   6.247  0.00  0.00    +0.000 N 
ATOM     28  O   UNL     1      47.140   0.623   6.636  0.00  0.00    +0.000 OA
ATOM     29  H   UNL     1      48.803   3.327   6.341  0.00  0.00    +0.000 HD
ATOM     30  H   UNL     1      49.056   1.760   5.663  0.00  0.00    +0.000 HD
ENDBRANCH  22  26
ENDBRANCH  18  25
ENDBRANCH  17  18
ENDBRANCH   1  17
TORSDOF 7
ENDMDL
MODEL 4
REMARK VINA RESULT:    -7.617      4.793      7.840
REMARK INTER + INTRA:         -11.545
REMARK INTER:                 -10.591
REMARK INTRA:                  -0.954
REMARK UNBOUND:                -0.811
REMARK  Name = 
REMARK  8 active torsions:
REMARK  status: ('A' for Active; 'I' for Inactive)
REMARK    1  A    between atoms: C_1  and  C_2
REMARK    2  A    between atoms: C_4  and  C_5
REMARK    3  A    between atoms: C_10  and  O_11
REMARK    4  A    between atoms: O_11  and  C_12
REMARK    5  A    between atoms: C_12  and  C_13
REMARK    6  A    between atoms: C_17  and  C_18
REMARK    7  A    between atoms: C_22  and  O_23
REMARK    8  A    between atoms: O_23  and  C_24
REMARK                            x       y       z     vdW  Elec       q    Type
REMARK                         _______ _______ _______ _____ _____    ______ ____
ROOT
ATOM      1  C   UNL     1      48.943   6.851  14.673  0.00  0.00    +0.000 A 
ATOM      2  N   UNL     1      49.660   7.630  13.838  0.00  0.00    +0.000 NA
ATOM      3  C   UNL     1      49.238   7.695  12.566  0.00  0.00    +0.000 A 
ATOM      4  C   UNL     1      48.141   7.013  12.097  0.00  0.00    +0.000 A 
ATOM      5  C   UNL     1      47.464   6.226  13.010  0.00  0.00    +0.000 A 
ATOM      6  N   UNL     1      47.846   6.154  14.303  0.00  0.00    +0.000 NA
ENDROOT
BRANCH   5   7
ATOM      7  C   UNL     1      46.293   5.413  12.642  0.00  0.00    +0.000 A 
ATOM      8  C   UNL     1      45.597   4.662  13.590  0.00  0.00    +0.000 A 
ATOM      9  N   UNL     1      44.521   3.880  13.322  0.00  0.00    +0.000 NA
ATOM     10  C   UNL     1      44.116   3.832  12.034  0.00  0.00    +0.000 A 
ATOM     11  C   UNL     1      44.710   4.547  11.004  0.00  0.00    +0.000 A 
ATOM     12  C   UNL     1      45.822   5.330  11.318  0.00  0.00    +0.000 A 
BRANCH  11  13
ATOM     13  O   UNL     1      44.169   4.390   9.762  0.00  0.00    +0.000 OA
BRANCH  13  14
ATOM     14  C   UNL     1      44.751   3.369   8.969  0.00  0.00    +0.000 C 
ATOM     15  F   UNL     1      44.143   2.192   9.253  0.00  0.00    +0.000 F 
ATOM     16  F   UNL     1      44.472   3.654   7.673  0.00  0.00    +0.000 F 
ENDBRANCH  13  14
ENDBRANCH  11  13
ENDBRANCH   5   7
BRANCH   1  17
ATOM     17  C   UNL     1      49.326   6.852  16.137  0.00  0.00    +0.000 C 
BRANCH  17  18
ATOM     18  O   UNL     1      48.647   5.836  16.895  0.00  0.00    +0.000 OA
BRANCH  18  25
ATOM     19  C   UNL     1      47.440   3.211  16.972  0.00  0.00    +0.000 C 
ATOM     20  C   UNL     1      48.909   3.463  17.132  0.00  0.00    +0.000 A 
ATOM     21  C   UNL     1      49.787   2.383  17.334  0.00  0.00    +0.000 A 
ATOM     22  C   UNL     1      51.160   2.597  17.488  0.00  0.00    +0.000 A 
ATOM     23  C   UNL     1      51.605   3.901  17.430  0.00  0.00    +0.000 A 
ATOM     24  N   UNL     1      50.795   4.967  17.240  0.00  0.00    +0.000 NA
ATOM     25  C   UNL     1      49.467   4.740  17.092  0.00  0.00    +0.000 A 
BRANCH  22  26
ATOM     26  C   UNL     1      52.062   1.438  17.699  0.00  0.00    +0.000 C 
ATOM     27  N   UNL     1      51.533   0.257  18.135  0.00  0.00    +0.000 N 
ATOM     28  O   UNL     1      53.267   1.528  17.488  0.00  0.00    +0.000 OA
ATOM     29  H   UNL     1      50.563   0.065  18.334  0.00  0.00    +0.000 HD
ATOM     30  H   UNL     1      52.189  -0.509  18.260  0.00  0.00    +0.000 HD
ENDBRANCH  22  26
ENDBRANCH  18  25
ENDBRANCH  17  18
ENDBRANCH   1  17
TORSDOF 7
ENDMDL
MODEL 5
REMARK VINA RESULT:    -7.555      3.933      7.764
REMARK INTER + INTRA:         -11.458
REMARK INTER:                 -11.021
REMARK INTRA:                  -0.437
REMARK UNBOUND:                -0.811
REMARK  Name = 
REMARK  8 active torsions:
REMARK  status: ('A' for Active; 'I' for Inactive)
REMARK    1  A    between atoms: C_1  and  C_2
REMARK    2  A    between atoms: C_4  and  C_5
REMARK    3  A    between atoms: C_10  and  O_11
REMARK    4  A    between atoms: O_11  and  C_12
REMARK    5  A    between atoms: C_12  and  C_13
REMARK    6  A    between atoms: C_17  and  C_18
REMARK    7  A    between atoms: C_22  and  O_23
REMARK    8  A    between atoms: O_23  and  C_24
REMARK                            x       y       z     vdW  Elec       q    Type
REMARK                         _______ _______ _______ _____ _____    ______ ____
ROOT
ATOM      1  C   UNL     1      47.381   7.227  12.452  0.00  0.00    +0.000 A 
ATOM      2  N   UNL     1      46.664   8.335  12.727  0.00  0.00    +0.000 NA
ATOM      3  C   UNL     1      45.412   8.376  12.245  0.00  0.00    +0.000 A 
ATOM      4  C   UNL     1      44.854   7.364  11.501  0.00  0.00    +0.000 A 
ATOM      5  C   UNL     1      45.656   6.265  11.251  0.00  0.00    +0.000 A 
ATOM      6  N   UNL     1      46.912   6.180  11.739  0.00  0.00    +0.000 NA
ENDROOT
BRANCH   5   7
ATOM      7  C   UNL     1      45.205   5.123  10.439  0.00  0.00    +0.000 A 
ATOM      8  C   UNL     1      44.389   4.123  10.973  0.00  0.00    +0.000 A 
ATOM      9  N   UNL     1      43.947   3.037  10.291  0.00  0.00    +0.000 NA
ATOM     10  C   UNL     1      44.346   2.929   9.005  0.00  0.00    +0.000 A 
ATOM     11  C   UNL     1      45.137   3.865   8.354  0.00  0.00    +0.000 A 
ATOM     12  C   UNL     1      45.582   4.962   9.093  0.00  0.00    +0.000 A 
BRANCH  11  13
ATOM     13  O   UNL     1      45.439   3.605   7.050  0.00  0.00    +0.000 OA
BRANCH  13  14
ATOM     14  C   UNL     1      46.765   3.163   6.808  0.00  0.00    +0.000 C 
ATOM     15  F   UNL     1      47.097   2.237   7.741  0.00  0.00    +0.000 F 
ATOM     16  F   UNL     1      46.769   2.531   5.608  0.00  0.00    +0.000 F 
ENDBRANCH  13  14
ENDBRANCH  11  13
ENDBRANCH   5   7
BRANCH   1  17
ATOM     17  C   UNL     1      48.752   7.104  13.081  0.00  0.00    +0.000 C 
BRANCH  17  18
ATOM     18  O   UNL     1      48.785   7.554  14.447  0.00  0.00    +0.000 OA
BRANCH  18  25
ATOM     19  C   UNL     1      49.721   7.751  17.174  0.00  0.00    +0.000 C 
ATOM     20  C   UNL     1      48.952   6.584  16.634  0.00  0.00    +0.000 A 
ATOM     21  C   UNL     1      48.646   5.497  17.474  0.00  0.00    +0.000 A 
ATOM     22  C   UNL     1      47.931   4.398  16.990  0.00  0.00    +0.000 A 
ATOM     23  C   UNL     1      47.544   4.431  15.667  0.00  0.00    +0.000 A 
ATOM     24  N   UNL     1      47.818   5.454  14.826  0.00  0.00    +0.000 NA
ATOM     25  C   UNL     1      48.511   6.511  15.314  0.00  0.00    +0.000 A 
BRANCH  22  26
ATOM     26  C   UNL     1      47.624   3.266  17.900  0.00  0.00    +0.000 C 
ATOM     27  N   UNL     1      48.357   3.116  19.042  0.00  0.00    +0.000 N 
ATOM     28  O   UNL     1      46.726   2.473  17.640  0.00  0.00    +0.000 OA
ATOM     29  H   UNL     1      49.110   3.707  19.360  0.00  0.00    +0.000 HD
ATOM     30  H   UNL     1      48.107   2.330  19.636  0.00  0.00    +0.000 HD
ENDBRANCH  22  26
ENDBRANCH  18  25
ENDBRANCH  17  18
ENDBRANCH   1  17
TORSDOF 7
ENDMDL
MODEL 6
REMARK VINA RESULT:    -7.451      2.044      2.506
REMARK INTER + INTRA:         -11.311
REMARK INTER:                 -10.581
REMARK INTRA:                  -0.730
REMARK UNBOUND:                -0.811
REMARK  Name = 
REMARK  8 active torsions:
REMARK  status: ('A' for Active; 'I' for Inactive)
REMARK    1  A    between atoms: C_1  and  C_2
REMARK    2  A    between atoms: C_4  and  C_5
REMARK    3  A    between atoms: C_10  and  O_11
REMARK    4  A    between atoms: O_11  and  C_12
REMARK    5  A    between atoms: C_12  and  C_13
REMARK    6  A    between atoms: C_17  and  C_18
REMARK    7  A    between atoms: C_22  and  O_23
REMARK    8  A    between atoms: O_23  and  C_24
REMARK                            x       y       z     vdW  Elec       q    Type
REMARK                         _______ _______ _______ _____ _____    ______ ____
ROOT
ATOM      1  C   UNL     1      45.298   3.814  12.494  0.00  0.00    +0.000 A 
ATOM      2  N   UNL     1      46.139   3.113  13.282  0.00  0.00    +0.000 NA
ATOM      3  C   UNL     1      47.071   3.818  13.941  0.00  0.00    +0.000 A 
ATOM      4  C   UNL     1      47.201   5.182  13.842  0.00  0.00    +0.000 A 
ATOM      5  C   UNL     1      46.309   5.829  13.006  0.00  0.00    +0.000 A 
ATOM      6  N   UNL     1      45.343   5.156  12.344  0.00  0.00    +0.000 NA
ENDROOT
BRANCH   5   7
ATOM      7  C   UNL     1      46.351   7.282  12.774  0.00  0.00    +0.000 A 
ATOM      8  C   UNL     1      45.186   8.024  12.569  0.00  0.00    +0.000 A 
ATOM      9  N   UNL     1      45.150   9.360  12.336  0.00  0.00    +0.000 NA
ATOM     10  C   UNL     1      46.339   9.999  12.293  0.00  0.00    +0.000 A 
ATOM     11  C   UNL     1      47.563   9.379  12.502  0.00  0.00    +0.000 A 
ATOM     12  C   UNL     1      47.561   8.001  12.726  0.00  0.00    +0.000 A 
BRANCH  11  13
ATOM     13  O   UNL     1      48.668  10.174  12.433  0.00  0.00    +0.000 OA
BRANCH  13  14
ATOM     14  C   UNL     1      49.594   9.844  11.411  0.00  0.00    +0.000 C 
ATOM     15  F   UNL     1      49.621  10.848  10.502  0.00  0.00    +0.000 F 
ATOM     16  F   UNL     1      50.824   9.793  11.979  0.00  0.00    +0.000 F 
ENDBRANCH  13  14
ENDBRANCH  11  13
ENDBRANCH   5   7
BRANCH   1  17
ATOM     17  C   UNL     1      44.165   3.061  11.832  0.00  0.00    +0.000 C 
BRANCH  17  18
ATOM     18  O   UNL     1      43.765   3.640  10.577  0.00  0.00    +0.000 OA
BRANCH  18  25
ATOM     19  C   UNL     1      45.302   5.758   9.351  0.00  0.00    +0.000 C 
ATOM     20  C   UNL     1      45.415   4.313   8.971  0.00  0.00    +0.000 A 
ATOM     21  C   UNL     1      46.313   3.922   7.961  0.00  0.00    +0.000 A 
ATOM     22  C   UNL     1      46.432   2.580   7.590  0.00  0.00    +0.000 A 
ATOM     23  C   UNL     1      45.639   1.669   8.256  0.00  0.00    +0.000 A 
ATOM     24  N   UNL     1      44.763   2.002   9.230  0.00  0.00    +0.000 NA
ATOM     25  C   UNL     1      44.662   3.308   9.576  0.00  0.00    +0.000 A 
BRANCH  22  26
ATOM     26  C   UNL     1      47.388   2.198   6.520  0.00  0.00    +0.000 C 
ATOM     27  N   UNL     1      47.370   2.883   5.340  0.00  0.00    +0.000 N 
ATOM     28  O   UNL     1      48.187   1.282   6.685  0.00  0.00    +0.000 OA
ATOM     29  H   UNL     1      46.765   3.653   5.095  0.00  0.00    +0.000 HD
ATOM     30  H   UNL     1      48.046   2.589   4.640  0.00  0.00    +0.000 HD
ENDBRANCH  22  26
ENDBRANCH  18  25
ENDBRANCH  17  18
ENDBRANCH   1  17
TORSDOF 7
ENDMDL
MODEL 7
REMARK VINA RESULT:    -7.140      4.443      8.424
REMARK INTER + INTRA:         -10.873
REMARK INTER:                  -9.924
REMARK INTRA:                  -0.949
REMARK UNBOUND:                -0.811
REMARK  Name = 
REMARK  8 active torsions:
REMARK  status: ('A' for Active; 'I' for Inactive)
REMARK    1  A    between atoms: C_1  and  C_2
REMARK    2  A    between atoms: C_4  and  C_5
REMARK    3  A    between atoms: C_10  and  O_11
REMARK    4  A    between atoms: O_11  and  C_12
REMARK    5  A    between atoms: C_12  and  C_13
REMARK    6  A    between atoms: C_17  and  C_18
REMARK    7  A    between atoms: C_22  and  O_23
REMARK    8  A    between atoms: O_23  and  C_24
REMARK                            x       y       z     vdW  Elec       q    Type
REMARK                         _______ _______ _______ _____ _____    ______ ____
ROOT
ATOM      1  C   UNL     1      47.672   7.228  13.317  0.00  0.00    +0.000 A 
ATOM      2  N   UNL     1      47.188   8.485  13.283  0.00  0.00    +0.000 NA
ATOM      3  C   UNL     1      45.913   8.627  12.888  0.00  0.00    +0.000 A 
ATOM      4  C   UNL     1      45.112   7.573  12.522  0.00  0.00    +0.000 A 
ATOM      5  C   UNL     1      45.684   6.315  12.572  0.00  0.00    +0.000 A 
ATOM      6  N   UNL     1      46.956   6.131  12.987  0.00  0.00    +0.000 NA
ENDROOT
BRANCH   5   7
ATOM      7  C   UNL     1      44.957   5.097  12.176  0.00  0.00    +0.000 A 
ATOM      8  C   UNL     1      44.218   4.354  13.099  0.00  0.00    +0.000 A 
ATOM      9  N   UNL     1      43.537   3.217  12.809  0.00  0.00    +0.000 NA
ATOM     10  C   UNL     1      43.598   2.784  11.531  0.00  0.00    +0.000 A 
ATOM     11  C   UNL     1      44.280   3.444  10.519  0.00  0.00    +0.000 A 
ATOM     12  C   UNL     1      44.980   4.603  10.858  0.00  0.00    +0.000 A 
BRANCH  11  13
ATOM     13  O   UNL     1      44.233   2.874   9.281  0.00  0.00    +0.000 OA
BRANCH  13  14
ATOM     14  C   UNL     1      45.487   2.699   8.642  0.00  0.00    +0.000 C 
ATOM     15  F   UNL     1      45.818   1.385   8.676  0.00  0.00    +0.000 F 
ATOM     16  F   UNL     1      45.327   3.031   7.337  0.00  0.00    +0.000 F 
ENDBRANCH  13  14
ENDBRANCH  11  13
ENDBRANCH   5   7
BRANCH   1  17
ATOM     17  C   UNL     1      49.067   7.027  13.870  0.00  0.00    +0.000 C 
BRANCH  17  18
ATOM     18  O   UNL     1      49.344   7.862  15.009  0.00  0.00    +0.000 OA
BRANCH  18  25
ATOM     19  C   UNL     1      48.282   9.362  17.239  0.00  0.00    +0.000 C 
ATOM     20  C   UNL     1      48.562   7.891  17.277  0.00  0.00    +0.000 A 
ATOM     21  C   UNL     1      48.307   7.159  18.450  0.00  0.00    +0.000 A 
ATOM     22  C   UNL     1      48.563   5.786  18.507  0.00  0.00    +0.000 A 
ATOM     23  C   UNL     1      49.071   5.192  17.370  0.00  0.00    +0.000 A 
ATOM     24  N   UNL     1      49.332   5.858  16.224  0.00  0.00    +0.000 NA
ATOM     25  C   UNL     1      49.076   7.189  16.187  0.00  0.00    +0.000 A 
BRANCH  22  26
ATOM     26  C   UNL     1      48.284   5.040  19.759  0.00  0.00    +0.000 C 
ATOM     27  N   UNL     1      48.548   3.701  19.807  0.00  0.00    +0.000 N 
ATOM     28  O   UNL     1      47.823   5.609  20.744  0.00  0.00    +0.000 OA
ATOM     29  H   UNL     1      48.930   3.133  19.066  0.00  0.00    +0.000 HD
ATOM     30  H   UNL     1      48.344   3.235  20.686  0.00  0.00    +0.000 HD
ENDBRANCH  22  26
ENDBRANCH  18  25
ENDBRANCH  17  18
ENDBRANCH   1  17
TORSDOF 7
ENDMDL
MODEL 8
REMARK VINA RESULT:    -6.702      5.308      8.453
REMARK INTER + INTRA:         -10.255
REMARK INTER:                  -9.477
REMARK INTRA:                  -0.778
REMARK UNBOUND:                -0.811
REMARK  Name = 
REMARK  8 active torsions:
REMARK  status: ('A' for Active; 'I' for Inactive)
REMARK    1  A    between atoms: C_1  and  C_2
REMARK    2  A    between atoms: C_4  and  C_5
REMARK    3  A    between atoms: C_10  and  O_11
REMARK    4  A    between atoms: O_11  and  C_12
REMARK    5  A    between atoms: C_12  and  C_13
REMARK    6  A    between atoms: C_17  and  C_18
REMARK    7  A    between atoms: C_22  and  O_23
REMARK    8  A    between atoms: O_23  and  C_24
REMARK                            x       y       z     vdW  Elec       q    Type
REMARK                         _______ _______ _______ _____ _____    ______ ____
ROOT
ATOM      1  C   UNL     1      48.304   6.686  14.115  0.00  0.00    +0.000 A 
ATOM      2  N   UNL     1      49.053   7.418  13.266  0.00  0.00    +0.000 NA
ATOM      3  C   UNL     1      48.587   7.549  12.015  0.00  0.00    +0.000 A 
ATOM      4  C   UNL     1      47.415   6.979  11.579  0.00  0.00    +0.000 A 
ATOM      5  C   UNL     1      46.708   6.234  12.505  0.00  0.00    +0.000 A 
ATOM      6  N   UNL     1      47.134   6.098  13.779  0.00  0.00    +0.000 NA
ENDROOT
BRANCH   5   7
ATOM      7  C   UNL     1      45.455   5.537  12.170  0.00  0.00    +0.000 A 
ATOM      8  C   UNL     1      44.330   5.621  12.993  0.00  0.00    +0.000 A 
ATOM      9  N   UNL     1      43.149   4.996  12.757  0.00  0.00    +0.000 NA
ATOM     10  C   UNL     1      43.081   4.234  11.644  0.00  0.00    +0.000 A 
ATOM     11  C   UNL     1      44.121   4.087  10.737  0.00  0.00    +0.000 A 
ATOM     12  C   UNL     1      45.324   4.735  11.021  0.00  0.00    +0.000 A 
BRANCH  11  13
ATOM     13  O   UNL     1      43.881   3.287   9.659  0.00  0.00    +0.000 OA
BRANCH  13  14
ATOM     14  C   UNL     1      44.996   2.548   9.188  0.00  0.00    +0.000 C 
ATOM     15  F   UNL     1      44.640   1.246   9.064  0.00  0.00    +0.000 F 
ATOM     16  F   UNL     1      45.283   2.998   7.942  0.00  0.00    +0.000 F 
ENDBRANCH  13  14
ENDBRANCH  11  13
ENDBRANCH   5   7
BRANCH   1  17
ATOM     17  C   UNL     1      48.745   6.618  15.561  0.00  0.00    +0.000 C 
BRANCH  17  18
ATOM     18  O   UNL     1      50.121   6.997  15.746  0.00  0.00    +0.000 OA
BRANCH  18  25
ATOM     19  C   UNL     1      52.971   7.300  16.107  0.00  0.00    +0.000 C 
ATOM     20  C   UNL     1      52.168   6.178  16.691  0.00  0.00    +0.000 A 
ATOM     21  C   UNL     1      52.802   5.192  17.469  0.00  0.00    +0.000 A 
ATOM     22  C   UNL     1      52.070   4.137  18.021  0.00  0.00    +0.000 A 
ATOM     23  C   UNL     1      50.714   4.111  17.770  0.00  0.00    +0.000 A 
ATOM     24  N   UNL     1      50.066   5.036  17.028  0.00  0.00    +0.000 NA
ATOM     25  C   UNL     1      50.792   6.053  16.501  0.00  0.00    +0.000 A 
BRANCH  22  26
ATOM     26  C   UNL     1      52.767   3.112  18.837  0.00  0.00    +0.000 C 
ATOM     27  N   UNL     1      52.727   1.807  18.437  0.00  0.00    +0.000 N 
ATOM     28  O   UNL     1      53.373   3.421  19.857  0.00  0.00    +0.000 OA
ATOM     29  H   UNL     1      52.268   1.438  17.618  0.00  0.00    +0.000 HD
ATOM     30  H   UNL     1      53.223   1.142  19.025  0.00  0.00    +0.000 HD
ENDBRANCH  22  26
ENDBRANCH  18  25
ENDBRANCH  17  18
ENDBRANCH   1  17
TORSDOF 7
ENDMDL
MODEL 9
REMARK VINA RESULT:    -6.666      5.552      8.250
REMARK INTER + INTRA:         -10.205
REMARK INTER:                  -9.221
REMARK INTRA:                  -0.984
REMARK UNBOUND:                -0.811
REMARK  Name = 
REMARK  8 active torsions:
REMARK  status: ('A' for Active; 'I' for Inactive)
REMARK    1  A    between atoms: C_1  and  C_2
REMARK    2  A    between atoms: C_4  and  C_5
REMARK    3  A    between atoms: C_10  and  O_11
REMARK    4  A    between atoms: O_11  and  C_12
REMARK    5  A    between atoms: C_12  and  C_13
REMARK    6  A    between atoms: C_17  and  C_18
REMARK    7  A    between atoms: C_22  and  O_23
REMARK    8  A    between atoms: O_23  and  C_24
REMARK                            x       y       z     vdW  Elec       q    Type
REMARK                         _______ _______ _______ _____ _____    ______ ____
ROOT
ATOM      1  C   UNL     1      50.084   6.680  16.270  0.00  0.00    +0.000 A 
ATOM      2  N   UNL     1      50.596   7.861  15.869  0.00  0.00    +0.000 NA
ATOM      3  C   UNL     1      50.033   8.424  14.789  0.00  0.00    +0.000 A 
ATOM      4  C   UNL     1      48.990   7.856  14.096  0.00  0.00    +0.000 A 
ATOM      5  C   UNL     1      48.528   6.639  14.561  0.00  0.00    +0.000 A 
ATOM      6  N   UNL     1      49.055   6.053  15.658  0.00  0.00    +0.000 NA
ENDROOT
BRANCH   5   7
ATOM      7  C   UNL     1      47.442   5.898  13.899  0.00  0.00    +0.000 A 
ATOM      8  C   UNL     1      46.886   4.750  14.469  0.00  0.00    +0.000 A 
ATOM      9  N   UNL     1      45.896   4.011  13.910  0.00  0.00    +0.000 NA
ATOM     10  C   UNL     1      45.434   4.425  12.710  0.00  0.00    +0.000 A 
ATOM     11  C   UNL     1      45.889   5.559  12.052  0.00  0.00    +0.000 A 
ATOM     12  C   UNL     1      46.917   6.287  12.652  0.00  0.00    +0.000 A 
BRANCH  11  13
ATOM     13  O   UNL     1      45.308   5.840  10.851  0.00  0.00    +0.000 OA
BRANCH  13  14
ATOM     14  C   UNL     1      44.784   4.723  10.151  0.00  0.00    +0.000 C 
ATOM     15  F   UNL     1      43.438   4.856  10.057  0.00  0.00    +0.000 F 
ATOM     16  F   UNL     1      45.273   4.770   8.888  0.00  0.00    +0.000 F 
ENDBRANCH  13  14
ENDBRANCH  11  13
ENDBRANCH   5   7
BRANCH   1  17
ATOM     17  C   UNL     1      50.622   6.080  17.552  0.00  0.00    +0.000 C 
BRANCH  17  18
ATOM     18  O   UNL     1      49.941   4.872  17.934  0.00  0.00    +0.000 OA
BRANCH  18  25
ATOM     19  C   UNL     1      48.944   2.417  16.783  0.00  0.00    +0.000 C 
ATOM     20  C   UNL     1      50.336   2.590  17.310  0.00  0.00    +0.000 A 
ATOM     21  C   UNL     1      51.243   1.516  17.259  0.00  0.00    +0.000 A 
ATOM     22  C   UNL     1      52.545   1.656  17.748  0.00  0.00    +0.000 A 
ATOM     23  C   UNL     1      52.893   2.884  18.272  0.00  0.00    +0.000 A 
ATOM     24  N   UNL     1      52.052   3.940  18.341  0.00  0.00    +0.000 NA
ATOM     25  C   UNL     1      50.794   3.785  17.862  0.00  0.00    +0.000 A 
BRANCH  22  26
ATOM     26  C   UNL     1      53.480   0.506  17.681  0.00  0.00    +0.000 C 
ATOM     27  N   UNL     1      53.738  -0.206  18.817  0.00  0.00    +0.000 N 
ATOM     28  O   UNL     1      54.017   0.189  16.625  0.00  0.00    +0.000 OA
ATOM     29  H   UNL     1      53.352  -0.042  19.735  0.00  0.00    +0.000 HD
ATOM     30  H   UNL     1      54.381  -0.988  18.721  0.00  0.00    +0.000 HD
ENDBRANCH  22  26
ENDBRANCH  18  25
ENDBRANCH  17  18
ENDBRANCH   1  17
TORSDOF 7
ENDMDL
