MODEL 1
REMARK VINA RESULT:    -7.311      0.000      0.000
REMARK INTER + INTRA:         -10.408
REMARK INTER:                  -9.662
REMARK INTRA:                  -0.746
REMARK UNBOUND:                -0.746
REMARK  Name = 
REMARK  8 active torsions:
REMARK  status: ('A' for Active; 'I' for Inactive)
REMARK    1  A    between atoms: C_1  and  C_2
REMARK    2  A    between atoms: C_2  and  C_3
REMARK    3  A    between atoms: C_2  and  N_4
REMARK    4  A    between atoms: C_2  and  C_5
REMARK    5  A    between atoms: C_5  and  C_6
REMARK    6  A    between atoms: C_9  and  C_10
REMARK    7  A    between atoms: C_10  and  N_11
REMARK    8  A    between atoms: C_16  and  C_17
REMARK                            x       y       z     vdW  Elec       q    Type
REMARK                         _______ _______ _______ _____ _____    ______ ____
ROOT
ATOM      1  C   UNL     1      46.763   7.492  13.224  0.00  0.00    +0.000 A 
ATOM      2  C   UNL     1      46.688   6.093  13.186  0.00  0.00    +0.000 A 
ATOM      3  C   UNL     1      45.727   5.449  12.399  0.00  0.00    +0.000 A 
ATOM      4  C   UNL     1      44.817   6.193  11.634  0.00  0.00    +0.000 A 
ATOM      5  C   UNL     1      44.870   7.586  11.717  0.00  0.00    +0.000 A 
ATOM      6  F   UNL     1      43.982   8.330  11.044  0.00  0.00    +0.000 F 
ATOM      7  C   UNL     1      45.826   8.235  12.495  0.00  0.00    +0.000 A 
ENDROOT
BRANCH   1   8
ATOM      8  C   UNL     1      47.867   8.187  13.992  0.00  0.00    +0.000 C 
BRANCH   8  10
ATOM      9  C   UNL     1      50.023   9.432  13.695  0.00  0.00    +0.000 C 
ATOM     10  C   UNL     1      49.305   8.101  13.410  0.00  0.00    +0.000 C 
ATOM     11  C   UNL     1      49.295   7.857  11.894  0.00  0.00    +0.000 C 
BRANCH  10  12
ATOM     12  N   UNL     1      50.080   7.035  14.065  0.00  0.00    +0.000 NA
ATOM     13  H   UNL     1      49.691   6.124  13.821  0.00  0.00    +0.000 HD
ATOM     14  H   UNL     1      49.977   7.118  15.077  0.00  0.00    +0.000 HD
ENDBRANCH  10  12
ENDBRANCH   8  10
ENDBRANCH   1   8
BRANCH   4  15
ATOM     15  C   UNL     1      43.826   5.514  10.731  0.00  0.00    +0.000 C 
BRANCH  15  16
ATOM     16  N   UNL     1      44.271   4.186  10.311  0.00  0.00    +0.000 N 
ATOM     17  C   UNL     1      43.734   3.011  10.783  0.00  0.00    +0.000 A 
ATOM     18  C   UNL     1      44.275   1.971  10.063  0.00  0.00    +0.000 A 
ATOM     19  C   UNL     1      45.170   2.525   9.110  0.00  0.00    +0.000 A 
ATOM     20  C   UNL     1      45.975   1.963   8.097  0.00  0.00    +0.000 A 
ATOM     21  C   UNL     1      46.764   2.803   7.295  0.00  0.00    +0.000 A 
ATOM     22  C   UNL     1      46.765   4.181   7.510  0.00  0.00    +0.000 A 
ATOM     23  C   UNL     1      45.972   4.757   8.508  0.00  0.00    +0.000 A 
ATOM     24  C   UNL     1      45.171   3.912   9.293  0.00  0.00    +0.000 A 
BRANCH  21  25
ATOM     25  C   UNL     1      47.562   2.240   6.244  0.00  0.00    +0.000 C 
ATOM     26  N   UNL     1      48.212   1.778   5.400  0.00  0.00    +0.000 NA
ENDBRANCH  21  25
ENDBRANCH  15  16
ENDBRANCH   4  15
TORSDOF 6
ENDMDL
MODEL 2
REMARK VINA RESULT:    -6.888      2.081      7.108
REMARK INTER + INTRA:          -9.849
REMARK INTER:                  -9.323
REMARK INTRA:                  -0.526
REMARK UNBOUND:                -0.746
REMARK  Name = 
REMARK  8 active torsions:
REMARK  status: ('A' for Active; 'I' for Inactive)
REMARK    1  A    between atoms: C_1  and  C_2
REMARK    2  A    between atoms: C_2  and  C_3
REMARK    3  A    between atoms: C_2  and  N_4
REMARK    4  A    between atoms: C_2  and  C_5
REMARK    5  A    between atoms: C_5  and  C_6
REMARK    6  A    between atoms: C_9  and  C_10
REMARK    7  A    between atoms: C_10  and  N_11
REMARK    8  A    between atoms: C_16  and  C_17
REMARK                            x       y       z     vdW  Elec       q    Type
REMARK                         _______ _______ _______ _____ _____    ______ ____
ROOT
ATOM      1  C   UNL     1      45.095   3.420   8.260  0.00  0.00    +0.000 A 
ATOM      2  C   UNL     1      45.501   4.667   8.754  0.00  0.00    +0.000 A 
ATOM      3  C   UNL     1      45.226   5.038  10.074  0.00  0.00    +0.000 A 
ATOM      4  C   UNL     1      44.534   4.168  10.930  0.00  0.00    +0.000 A 
ATOM      5  C   UNL     1      44.091   2.949  10.413  0.00  0.00    +0.000 A 
ATOM      6  F   UNL     1      43.380   2.115  11.183  0.00  0.00    +0.000 F 
ATOM      7  C   UNL     1      44.365   2.571   9.100  0.00  0.00    +0.000 A 
ENDROOT
BRANCH   1   8
ATOM      8  C   UNL     1      45.482   2.976   6.866  0.00  0.00    +0.000 C 
BRANCH   8  10
ATOM      9  C   UNL     1      47.200   2.487   5.106  0.00  0.00    +0.000 C 
ATOM     10  C   UNL     1      46.972   2.606   6.623  0.00  0.00    +0.000 C 
ATOM     11  C   UNL     1      47.346   1.273   7.288  0.00  0.00    +0.000 C 
BRANCH  10  12
ATOM     12  N   UNL     1      47.869   3.662   7.120  0.00  0.00    +0.000 NA
ATOM     13  H   UNL     1      47.623   4.554   6.693  0.00  0.00    +0.000 HD
ATOM     14  H   UNL     1      48.823   3.463   6.818  0.00  0.00    +0.000 HD
ENDBRANCH  10  12
ENDBRANCH   8  10
ENDBRANCH   1   8
BRANCH   4  15
ATOM     15  C   UNL     1      44.292   4.526  12.370  0.00  0.00    +0.000 C 
BRANCH  15  16
ATOM     16  N   UNL     1      45.516   4.942  13.055  0.00  0.00    +0.000 N 
ATOM     17  C   UNL     1      46.431   4.066  13.593  0.00  0.00    +0.000 A 
ATOM     18  C   UNL     1      47.523   4.790  14.011  0.00  0.00    +0.000 A 
ATOM     19  C   UNL     1      47.276   6.157  13.716  0.00  0.00    +0.000 A 
ATOM     20  C   UNL     1      48.031   7.336  13.883  0.00  0.00    +0.000 A 
ATOM     21  C   UNL     1      47.496   8.566  13.470  0.00  0.00    +0.000 A 
ATOM     22  C   UNL     1      46.218   8.623  12.914  0.00  0.00    +0.000 A 
ATOM     23  C   UNL     1      45.454   7.464  12.737  0.00  0.00    +0.000 A 
ATOM     24  C   UNL     1      46.006   6.236  13.135  0.00  0.00    +0.000 A 
BRANCH  21  25
ATOM     25  C   UNL     1      48.272   9.764  13.612  0.00  0.00    +0.000 C 
ATOM     26  N   UNL     1      48.892  10.739  13.725  0.00  0.00    +0.000 NA
ENDBRANCH  21  25
ENDBRANCH  15  16
ENDBRANCH   4  15
TORSDOF 6
ENDMDL
MODEL 3
REMARK VINA RESULT:    -6.074      1.758      7.010
REMARK INTER + INTRA:          -8.773
REMARK INTER:                  -9.368
REMARK INTRA:                   0.595
REMARK UNBOUND:                -0.746
REMARK  Name = 
REMARK  8 active torsions:
REMARK  status: ('A' for Active; 'I' for Inactive)
REMARK    1  A    between atoms: C_1  and  C_2
REMARK    2  A    between atoms: C_2  and  C_3
REMARK    3  A    between atoms: C_2  and  N_4
REMARK    4  A    between atoms: C_2  and  C_5
REMARK    5  A    between atoms: C_5  and  C_6
REMARK    6  A    between atoms: C_9  and  C_10
REMARK    7  A    between atoms: C_10  and  N_11
REMARK    8  A    between atoms: C_16  and  C_17
REMARK                            x       y       z     vdW  Elec       q    Type
REMARK                         _______ _______ _______ _____ _____    ______ ____
ROOT
ATOM      1  C   UNL     1      45.509   2.692   8.421  0.00  0.00    +0.000 A 
ATOM      2  C   UNL     1      45.591   4.083   8.273  0.00  0.00    +0.000 A 
ATOM      3  C   UNL     1      44.964   4.938   9.186  0.00  0.00    +0.000 A 
ATOM      4  C   UNL     1      44.236   4.418  10.266  0.00  0.00    +0.000 A 
ATOM      5  C   UNL     1      44.120   3.031  10.376  0.00  0.00    +0.000 A 
ATOM      6  F   UNL     1      43.388   2.497  11.363  0.00  0.00    +0.000 F 
ATOM      7  C   UNL     1      44.745   2.173   9.473  0.00  0.00    +0.000 A 
ENDROOT
BRANCH   1   8
ATOM      8  C   UNL     1      46.272   1.769   7.496  0.00  0.00    +0.000 C 
BRANCH   8  10
ATOM      9  C   UNL     1      47.641   3.810   7.001  0.00  0.00    +0.000 C 
ATOM     10  C   UNL     1      47.232   2.426   6.466  0.00  0.00    +0.000 C 
ATOM     11  C   UNL     1      46.567   2.600   5.092  0.00  0.00    +0.000 C 
BRANCH  10  12
ATOM     12  N   UNL     1      48.464   1.635   6.308  0.00  0.00    +0.000 NA
ATOM     13  H   UNL     1      48.603   1.404   5.325  0.00  0.00    +0.000 HD
ATOM     14  H   UNL     1      48.354   0.742   6.790  0.00  0.00    +0.000 HD
ENDBRANCH  10  12
ENDBRANCH   8  10
ENDBRANCH   1   8
BRANCH   4  15
ATOM     15  C   UNL     1      43.616   5.324  11.292  0.00  0.00    +0.000 C 
BRANCH  15  16
ATOM     16  N   UNL     1      44.490   6.441  11.652  0.00  0.00    +0.000 N 
ATOM     17  C   UNL     1      44.196   7.760  11.396  0.00  0.00    +0.000 A 
ATOM     18  C   UNL     1      45.151   8.539  12.006  0.00  0.00    +0.000 A 
ATOM     19  C   UNL     1      46.061   7.671  12.665  0.00  0.00    +0.000 A 
ATOM     20  C   UNL     1      47.202   7.891  13.464  0.00  0.00    +0.000 A 
ATOM     21  C   UNL     1      47.900   6.793  13.991  0.00  0.00    +0.000 A 
ATOM     22  C   UNL     1      47.478   5.493  13.711  0.00  0.00    +0.000 A 
ATOM     23  C   UNL     1      46.347   5.255  12.922  0.00  0.00    +0.000 A 
ATOM     24  C   UNL     1      45.644   6.360  12.416  0.00  0.00    +0.000 A 
BRANCH  21  25
ATOM     25  C   UNL     1      49.045   7.011  14.828  0.00  0.00    +0.000 C 
ATOM     26  N   UNL     1      49.977   7.187  15.498  0.00  0.00    +0.000 NA
ENDBRANCH  21  25
ENDBRANCH  15  16
ENDBRANCH   4  15
TORSDOF 6
ENDMDL
MODEL 4
REMARK VINA RESULT:    -5.602      2.521      7.086
REMARK INTER + INTRA:          -8.149
REMARK INTER:                  -7.293
REMARK INTRA:                  -0.856
REMARK UNBOUND:                -0.746
REMARK  Name = 
REMARK  8 active torsions:
REMARK  status: ('A' for Active; 'I' for Inactive)
REMARK    1  A    between atoms: C_1  and  C_2
REMARK    2  A    between atoms: C_2  and  C_3
REMARK    3  A    between atoms: C_2  and  N_4
REMARK    4  A    between atoms: C_2  and  C_5
REMARK    5  A    between atoms: C_5  and  C_6
REMARK    6  A    between atoms: C_9  and  C_10
REMARK    7  A    between atoms: C_10  and  N_11
REMARK    8  A    between atoms: C_16  and  C_17
REMARK                            x       y       z     vdW  Elec       q    Type
REMARK                         _______ _______ _______ _____ _____    ______ ____
ROOT
ATOM      1  C   UNL     1      45.156   5.076  11.520  0.00  0.00    +0.000 A 
ATOM      2  C   UNL     1      44.584   6.327  11.252  0.00  0.00    +0.000 A 
ATOM      3  C   UNL     1      45.059   7.481  11.884  0.00  0.00    +0.000 A 
ATOM      4  C   UNL     1      46.116   7.408  12.803  0.00  0.00    +0.000 A 
ATOM      5  C   UNL     1      46.645   6.150  13.099  0.00  0.00    +0.000 A 
ATOM      6  F   UNL     1      47.619   6.033  14.012  0.00  0.00    +0.000 F 
ATOM      7  C   UNL     1      46.181   4.997  12.470  0.00  0.00    +0.000 A 
ENDROOT
BRANCH   1   8
ATOM      8  C   UNL     1      44.714   3.844  10.760  0.00  0.00    +0.000 C 
BRANCH   8  10
ATOM      9  C   UNL     1      45.267   2.392   8.792  0.00  0.00    +0.000 C 
ATOM     10  C   UNL     1      44.942   3.834   9.223  0.00  0.00    +0.000 C 
ATOM     11  C   UNL     1      46.103   4.750   8.810  0.00  0.00    +0.000 C 
BRANCH  10  12
ATOM     12  N   UNL     1      43.725   4.243   8.503  0.00  0.00    +0.000 NA
ATOM     13  H   UNL     1      43.201   3.418   8.213  0.00  0.00    +0.000 HD
ATOM     14  H   UNL     1      43.989   4.721   7.641  0.00  0.00    +0.000 HD
ENDBRANCH  10  12
ENDBRANCH   8  10
ENDBRANCH   1   8
BRANCH   4  15
ATOM     15  C   UNL     1      46.681   8.648  13.437  0.00  0.00    +0.000 C 
BRANCH  15  16
ATOM     16  N   UNL     1      47.417   9.477  12.483  0.00  0.00    +0.000 N 
ATOM     17  C   UNL     1      46.979  10.699  12.029  0.00  0.00    +0.000 A 
ATOM     18  C   UNL     1      47.984  11.264  11.278  0.00  0.00    +0.000 A 
ATOM     19  C   UNL     1      49.080  10.361  11.273  0.00  0.00    +0.000 A 
ATOM     20  C   UNL     1      50.371  10.409  10.708  0.00  0.00    +0.000 A 
ATOM     21  C   UNL     1      51.250   9.330  10.896  0.00  0.00    +0.000 A 
ATOM     22  C   UNL     1      50.841   8.212  11.622  0.00  0.00    +0.000 A 
ATOM     23  C   UNL     1      49.565   8.146  12.193  0.00  0.00    +0.000 A 
ATOM     24  C   UNL     1      48.701   9.239  12.016  0.00  0.00    +0.000 A 
BRANCH  21  25
ATOM     25  C   UNL     1      52.574   9.386  10.348  0.00  0.00    +0.000 C 
ATOM     26  N   UNL     1      53.642   9.434   9.896  0.00  0.00    +0.000 NA
ENDBRANCH  21  25
ENDBRANCH  15  16
ENDBRANCH   4  15
TORSDOF 6
ENDMDL
MODEL 5
REMARK VINA RESULT:    -5.308      3.552      5.525
REMARK INTER + INTRA:          -7.761
REMARK INTER:                  -6.968
REMARK INTRA:                  -0.792
REMARK UNBOUND:                -0.746
REMARK  Name = 
REMARK  8 active torsions:
REMARK  status: ('A' for Active; 'I' for Inactive)
REMARK    1  A    between atoms: C_1  and  C_2
REMARK    2  A    between atoms: C_2  and  C_3
REMARK    3  A    between atoms: C_2  and  N_4
REMARK    4  A    between atoms: C_2  and  C_5
REMARK    5  A    between atoms: C_5  and  C_6
REMARK    6  A    between atoms: C_9  and  C_10
REMARK    7  A    between atoms: C_10  and  N_11
REMARK    8  A    between atoms: C_16  and  C_17
REMARK                            x       y       z     vdW  Elec       q    Type
REMARK                         _______ _______ _______ _____ _____    ______ ____
ROOT
ATOM      1  C   UNL     1      51.038   8.612  11.360  0.00  0.00    +0.000 A 
ATOM      2  C   UNL     1      50.170   7.518  11.248  0.00  0.00    +0.000 A 
ATOM      3  C   UNL     1      49.045   7.410  12.073  0.00  0.00    +0.000 A 
ATOM      4  C   UNL     1      48.766   8.396  13.031  0.00  0.00    +0.000 A 
ATOM      5  C   UNL     1      49.664   9.456  13.167  0.00  0.00    +0.000 A 
ATOM      6  F   UNL     1      49.461  10.388  14.107  0.00  0.00    +0.000 F 
ATOM      7  C   UNL     1      50.784   9.573  12.347  0.00  0.00    +0.000 A 
ENDROOT
BRANCH   1   8
ATOM      8  C   UNL     1      52.196   8.783  10.400  0.00  0.00    +0.000 C 
BRANCH   8  10
ATOM      9  C   UNL     1      54.680   8.598  10.114  0.00  0.00    +0.000 C 
ATOM     10  C   UNL     1      53.423   7.848  10.589  0.00  0.00    +0.000 C 
ATOM     11  C   UNL     1      53.283   6.550   9.780  0.00  0.00    +0.000 C 
BRANCH  10  12
ATOM     12  N   UNL     1      53.621   7.513  12.008  0.00  0.00    +0.000 NA
ATOM     13  H   UNL     1      52.951   8.024  12.582  0.00  0.00    +0.000 HD
ATOM     14  H   UNL     1      54.543   7.836  12.305  0.00  0.00    +0.000 HD
ENDBRANCH  10  12
ENDBRANCH   8  10
ENDBRANCH   1   8
BRANCH   4  15
ATOM     15  C   UNL     1      47.524   8.327  13.875  0.00  0.00    +0.000 C 
BRANCH  15  16
ATOM     16  N   UNL     1      46.331   8.010  13.089  0.00  0.00    +0.000 N 
ATOM     17  C   UNL     1      45.696   8.907  12.262  0.00  0.00    +0.000 A 
ATOM     18  C   UNL     1      44.720   8.232  11.566  0.00  0.00    +0.000 A 
ATOM     19  C   UNL     1      44.759   6.873  11.975  0.00  0.00    +0.000 A 
ATOM     20  C   UNL     1      44.032   5.726  11.593  0.00  0.00    +0.000 A 
ATOM     21  C   UNL     1      44.322   4.491  12.193  0.00  0.00    +0.000 A 
ATOM     22  C   UNL     1      45.311   4.403  13.174  0.00  0.00    +0.000 A 
ATOM     23  C   UNL     1      46.044   5.529  13.564  0.00  0.00    +0.000 A 
ATOM     24  C   UNL     1      45.761   6.756  12.944  0.00  0.00    +0.000 A 
BRANCH  21  25
ATOM     25  C   UNL     1      43.606   3.316  11.789  0.00  0.00    +0.000 C 
ATOM     26  N   UNL     1      43.023   2.370  11.454  0.00  0.00    +0.000 NA
ENDBRANCH  21  25
ENDBRANCH  15  16
ENDBRANCH   4  15
TORSDOF 6
ENDMDL
MODEL 6
REMARK VINA RESULT:    -5.295      3.464      8.551
REMARK INTER + INTRA:          -7.743
REMARK INTER:                  -6.955
REMARK INTRA:                  -0.788
REMARK UNBOUND:                -0.746
REMARK  Name = 
REMARK  8 active torsions:
REMARK  status: ('A' for Active; 'I' for Inactive)
REMARK    1  A    between atoms: C_1  and  C_2
REMARK    2  A    between atoms: C_2  and  C_3
REMARK    3  A    between atoms: C_2  and  N_4
REMARK    4  A    between atoms: C_2  and  C_5
REMARK    5  A    between atoms: C_5  and  C_6
REMARK    6  A    between atoms: C_9  and  C_10
REMARK    7  A    between atoms: C_10  and  N_11
REMARK    8  A    between atoms: C_16  and  C_17
REMARK                            x       y       z     vdW  Elec       q    Type
REMARK                         _______ _______ _______ _____ _____    ______ ____
ROOT
ATOM      1  C   UNL     1      45.675   6.208  12.370  0.00  0.00    +0.000 A 
ATOM      2  C   UNL     1      46.746   5.450  12.860  0.00  0.00    +0.000 A 
ATOM      3  C   UNL     1      47.836   6.069  13.481  0.00  0.00    +0.000 A 
ATOM      4  C   UNL     1      47.879   7.463  13.622  0.00  0.00    +0.000 A 
ATOM      5  C   UNL     1      46.830   8.213  13.086  0.00  0.00    +0.000 A 
ATOM      6  F   UNL     1      46.861   9.550  13.153  0.00  0.00    +0.000 F 
ATOM      7  C   UNL     1      45.739   7.603  12.470  0.00  0.00    +0.000 A 
ENDROOT
BRANCH   1   8
ATOM      8  C   UNL     1      44.449   5.534  11.792  0.00  0.00    +0.000 C 
BRANCH   8  10
ATOM      9  C   UNL     1      44.880   3.309  10.720  0.00  0.00    +0.000 C 
ATOM     10  C   UNL     1      44.613   4.798  10.434  0.00  0.00    +0.000 C 
ATOM     11  C   UNL     1      45.782   5.363   9.613  0.00  0.00    +0.000 C 
BRANCH  10  12
ATOM     12  N   UNL     1      43.380   4.876   9.634  0.00  0.00    +0.000 NA
ATOM     13  H   UNL     1      42.612   4.433  10.138  0.00  0.00    +0.000 HD
ATOM     14  H   UNL     1      43.499   4.335   8.778  0.00  0.00    +0.000 HD
ENDBRANCH  10  12
ENDBRANCH   8  10
ENDBRANCH   1   8
BRANCH   4  15
ATOM     15  C   UNL     1      49.010   8.135  14.348  0.00  0.00    +0.000 C 
BRANCH  15  16
ATOM     16  N   UNL     1      48.735   8.308  15.775  0.00  0.00    +0.000 N 
ATOM     17  C   UNL     1      48.198   9.451  16.320  0.00  0.00    +0.000 A 
ATOM     18  C   UNL     1      47.928   9.208  17.647  0.00  0.00    +0.000 A 
ATOM     19  C   UNL     1      48.306   7.868  17.927  0.00  0.00    +0.000 A 
ATOM     20  C   UNL     1      48.237   7.064  19.083  0.00  0.00    +0.000 A 
ATOM     21  C   UNL     1      48.697   5.739  19.033  0.00  0.00    +0.000 A 
ATOM     22  C   UNL     1      49.234   5.227  17.853  0.00  0.00    +0.000 A 
ATOM     23  C   UNL     1      49.309   6.007  16.694  0.00  0.00    +0.000 A 
ATOM     24  C   UNL     1      48.827   7.325  16.748  0.00  0.00    +0.000 A 
BRANCH  21  25
ATOM     25  C   UNL     1      48.604   4.908  20.199  0.00  0.00    +0.000 C 
ATOM     26  N   UNL     1      48.524   4.229  21.138  0.00  0.00    +0.000 NA
ENDBRANCH  21  25
ENDBRANCH  15  16
ENDBRANCH   4  15
TORSDOF 6
ENDMDL
MODEL 7
REMARK VINA RESULT:    -5.244      3.841      6.224
REMARK INTER + INTRA:          -7.675
REMARK INTER:                  -6.979
REMARK INTRA:                  -0.696
REMARK UNBOUND:                -0.746
REMARK  Name = 
REMARK  8 active torsions:
REMARK  status: ('A' for Active; 'I' for Inactive)
REMARK    1  A    between atoms: C_1  and  C_2
REMARK    2  A    between atoms: C_2  and  C_3
REMARK    3  A    between atoms: C_2  and  N_4
REMARK    4  A    between atoms: C_2  and  C_5
REMARK    5  A    between atoms: C_5  and  C_6
REMARK    6  A    between atoms: C_9  and  C_10
REMARK    7  A    between atoms: C_10  and  N_11
REMARK    8  A    between atoms: C_16  and  C_17
REMARK                            x       y       z     vdW  Elec       q    Type
REMARK                         _______ _______ _______ _____ _____    ______ ____
ROOT
ATOM      1  C   UNL     1      49.009   6.955  17.912  0.00  0.00    +0.000 A 
ATOM      2  C   UNL     1      49.266   5.975  16.944  0.00  0.00    +0.000 A 
ATOM      3  C   UNL     1      49.107   6.255  15.582  0.00  0.00    +0.000 A 
ATOM      4  C   UNL     1      48.683   7.524  15.160  0.00  0.00    +0.000 A 
ATOM      5  C   UNL     1      48.383   8.477  16.135  0.00  0.00    +0.000 A 
ATOM      6  F   UNL     1      47.924   9.682  15.773  0.00  0.00    +0.000 F 
ATOM      7  C   UNL     1      48.544   8.207  17.493  0.00  0.00    +0.000 A 
ENDROOT
BRANCH   1   8
ATOM      8  C   UNL     1      49.281   6.685  19.376  0.00  0.00    +0.000 C 
BRANCH   8  10
ATOM      9  C   UNL     1      47.528   7.009  21.139  0.00  0.00    +0.000 C 
ATOM     10  C   UNL     1      48.163   5.977  20.190  0.00  0.00    +0.000 C 
ATOM     11  C   UNL     1      48.713   4.809  21.023  0.00  0.00    +0.000 C 
BRANCH  10  12
ATOM     12  N   UNL     1      47.097   5.479  19.306  0.00  0.00    +0.000 NA
ATOM     13  H   UNL     1      46.443   4.907  19.841  0.00  0.00    +0.000 HD
ATOM     14  H   UNL     1      47.503   4.856  18.607  0.00  0.00    +0.000 HD
ENDBRANCH  10  12
ENDBRANCH   8  10
ENDBRANCH   1   8
BRANCH   4  15
ATOM     15  C   UNL     1      48.575   7.859  13.699  0.00  0.00    +0.000 C 
BRANCH  15  16
ATOM     16  N   UNL     1      47.199   7.781  13.208  0.00  0.00    +0.000 N 
ATOM     17  C   UNL     1      46.475   8.869  12.776  0.00  0.00    +0.000 A 
ATOM     18  C   UNL     1      45.293   8.412  12.241  0.00  0.00    +0.000 A 
ATOM     19  C   UNL     1      45.290   6.996  12.342  0.00  0.00    +0.000 A 
ATOM     20  C   UNL     1      44.377   5.998  11.942  0.00  0.00    +0.000 A 
ATOM     21  C   UNL     1      44.677   4.649  12.183  0.00  0.00    +0.000 A 
ATOM     22  C   UNL     1      45.863   4.298  12.829  0.00  0.00    +0.000 A 
ATOM     23  C   UNL     1      46.782   5.273  13.232  0.00  0.00    +0.000 A 
ATOM     24  C   UNL     1      46.483   6.619  12.968  0.00  0.00    +0.000 A 
BRANCH  21  25
ATOM     25  C   UNL     1      43.765   3.628  11.753  0.00  0.00    +0.000 C 
ATOM     26  N   UNL     1      43.025   2.801  11.414  0.00  0.00    +0.000 NA
ENDBRANCH  21  25
ENDBRANCH  15  16
ENDBRANCH   4  15
TORSDOF 6
ENDMDL
MODEL 8
REMARK VINA RESULT:    -5.106      3.287      7.978
REMARK INTER + INTRA:          -7.494
REMARK INTER:                  -6.894
REMARK INTRA:                  -0.600
REMARK UNBOUND:                -0.746
REMARK  Name = 
REMARK  8 active torsions:
REMARK  status: ('A' for Active; 'I' for Inactive)
REMARK    1  A    between atoms: C_1  and  C_2
REMARK    2  A    between atoms: C_2  and  C_3
REMARK    3  A    between atoms: C_2  and  N_4
REMARK    4  A    between atoms: C_2  and  C_5
REMARK    5  A    between atoms: C_5  and  C_6
REMARK    6  A    between atoms: C_9  and  C_10
REMARK    7  A    between atoms: C_10  and  N_11
REMARK    8  A    between atoms: C_16  and  C_17
REMARK                            x       y       z     vdW  Elec       q    Type
REMARK                         _______ _______ _______ _____ _____    ______ ____
ROOT
ATOM      1  C   UNL     1      45.573   6.545  11.685  0.00  0.00    +0.000 A 
ATOM      2  C   UNL     1      45.235   7.426  12.721  0.00  0.00    +0.000 A 
ATOM      3  C   UNL     1      46.183   8.311  13.246  0.00  0.00    +0.000 A 
ATOM      4  C   UNL     1      47.493   8.330  12.747  0.00  0.00    +0.000 A 
ATOM      5  C   UNL     1      47.833   7.415  11.750  0.00  0.00    +0.000 A 
ATOM      6  F   UNL     1      49.089   7.366  11.286  0.00  0.00    +0.000 F 
ATOM      7  C   UNL     1      46.893   6.533  11.219  0.00  0.00    +0.000 A 
ENDROOT
BRANCH   1   8
ATOM      8  C   UNL     1      44.523   5.661  11.046  0.00  0.00    +0.000 C 
BRANCH   8  10
ATOM      9  C   UNL     1      43.074   4.841  12.920  0.00  0.00    +0.000 C 
ATOM     10  C   UNL     1      44.075   4.401  11.837  0.00  0.00    +0.000 C 
ATOM     11  C   UNL     1      45.261   3.696  12.512  0.00  0.00    +0.000 C 
BRANCH  10  12
ATOM     12  N   UNL     1      43.381   3.444  10.960  0.00  0.00    +0.000 NA
ATOM     13  H   UNL     1      42.534   3.107  11.418  0.00  0.00    +0.000 HD
ATOM     14  H   UNL     1      43.970   2.621  10.826  0.00  0.00    +0.000 HD
ENDBRANCH  10  12
ENDBRANCH   8  10
ENDBRANCH   1   8
BRANCH   4  15
ATOM     15  C   UNL     1      48.502   9.323  13.254  0.00  0.00    +0.000 C 
BRANCH  15  16
ATOM     16  N   UNL     1      49.694   8.678  13.802  0.00  0.00    +0.000 N 
ATOM     17  C   UNL     1      50.981   9.029  13.465  0.00  0.00    +0.000 A 
ATOM     18  C   UNL     1      51.844   8.333  14.280  0.00  0.00    +0.000 A 
ATOM     19  C   UNL     1      51.062   7.530  15.152  0.00  0.00    +0.000 A 
ATOM     20  C   UNL     1      51.384   6.646  16.202  0.00  0.00    +0.000 A 
ATOM     21  C   UNL     1      50.354   5.993  16.897  0.00  0.00    +0.000 A 
ATOM     22  C   UNL     1      49.023   6.204  16.539  0.00  0.00    +0.000 A 
ATOM     23  C   UNL     1      48.683   7.079  15.501  0.00  0.00    +0.000 A 
ATOM     24  C   UNL     1      49.719   7.743  14.825  0.00  0.00    +0.000 A 
BRANCH  21  25
ATOM     25  C   UNL     1      50.674   5.114  17.985  0.00  0.00    +0.000 C 
ATOM     26  N   UNL     1      50.934   4.396  18.859  0.00  0.00    +0.000 NA
ENDBRANCH  21  25
ENDBRANCH  15  16
ENDBRANCH   4  15
TORSDOF 6
ENDMDL
MODEL 9
REMARK VINA RESULT:    -5.027      2.690      7.208
REMARK INTER + INTRA:          -7.390
REMARK INTER:                  -6.509
REMARK INTRA:                  -0.881
REMARK UNBOUND:                -0.746
REMARK  Name = 
REMARK  8 active torsions:
REMARK  status: ('A' for Active; 'I' for Inactive)
REMARK    1  A    between atoms: C_1  and  C_2
REMARK    2  A    between atoms: C_2  and  C_3
REMARK    3  A    between atoms: C_2  and  N_4
REMARK    4  A    between atoms: C_2  and  C_5
REMARK    5  A    between atoms: C_5  and  C_6
REMARK    6  A    between atoms: C_9  and  C_10
REMARK    7  A    between atoms: C_10  and  N_11
REMARK    8  A    between atoms: C_16  and  C_17
REMARK                            x       y       z     vdW  Elec       q    Type
REMARK                         _______ _______ _______ _____ _____    ______ ____
ROOT
ATOM      1  C   UNL     1      45.650   5.821  12.588  0.00  0.00    +0.000 A 
ATOM      2  C   UNL     1      46.995   5.608  12.914  0.00  0.00    +0.000 A 
ATOM      3  C   UNL     1      47.829   6.680  13.249  0.00  0.00    +0.000 A 
ATOM      4  C   UNL     1      47.334   7.992  13.262  0.00  0.00    +0.000 A 
ATOM      5  C   UNL     1      46.005   8.198  12.888  0.00  0.00    +0.000 A 
ATOM      6  F   UNL     1      45.510   9.442  12.835  0.00  0.00    +0.000 F 
ATOM      7  C   UNL     1      45.167   7.135  12.557  0.00  0.00    +0.000 A 
ENDROOT
BRANCH   1   8
ATOM      8  C   UNL     1      44.722   4.654  12.328  0.00  0.00    +0.000 C 
BRANCH   8  10
ATOM      9  C   UNL     1      43.775   2.995  10.703  0.00  0.00    +0.000 C 
ATOM     10  C   UNL     1      44.207   4.463  10.874  0.00  0.00    +0.000 C 
ATOM     11  C   UNL     1      45.290   4.786   9.835  0.00  0.00    +0.000 C 
BRANCH  10  12
ATOM     12  N   UNL     1      43.025   5.301  10.616  0.00  0.00    +0.000 NA
ATOM     13  H   UNL     1      43.057   6.135  11.200  0.00  0.00    +0.000 HD
ATOM     14  H   UNL     1      42.185   4.795  10.901  0.00  0.00    +0.000 HD
ENDBRANCH  10  12
ENDBRANCH   8  10
ENDBRANCH   1   8
BRANCH   4  15
ATOM     15  C   UNL     1      48.200   9.144  13.687  0.00  0.00    +0.000 C 
BRANCH  15  16
ATOM     16  N   UNL     1      48.813   9.832  12.550  0.00  0.00    +0.000 N 
ATOM     17  C   UNL     1      48.366  11.031  12.046  0.00  0.00    +0.000 A 
ATOM     18  C   UNL     1      49.263  11.457  11.094  0.00  0.00    +0.000 A 
ATOM     19  C   UNL     1      50.300  10.492  11.014  0.00  0.00    +0.000 A 
ATOM     20  C   UNL     1      51.486  10.405  10.254  0.00  0.00    +0.000 A 
ATOM     21  C   UNL     1      52.331   9.296  10.415  0.00  0.00    +0.000 A 
ATOM     22  C   UNL     1      51.991   8.278  11.306  0.00  0.00    +0.000 A 
ATOM     23  C   UNL     1      50.821   8.347  12.071  0.00  0.00    +0.000 A 
ATOM     24  C   UNL     1      49.992   9.470  11.918  0.00  0.00    +0.000 A 
BRANCH  21  25
ATOM     25  C   UNL     1      53.552   9.216   9.666  0.00  0.00    +0.000 C 
ATOM     26  N   UNL     1      54.542   9.144   9.063  0.00  0.00    +0.000 NA
ENDBRANCH  21  25
ENDBRANCH  15  16
ENDBRANCH   4  15
TORSDOF 6
ENDMDL
