MODEL 1
REMARK VINA RESULT:    -7.723      0.000      0.000
REMARK INTER + INTRA:          -9.532
REMARK INTER:                  -9.077
REMARK INTRA:                  -0.454
REMARK UNBOUND:                -0.454
REMARK  Name = 
REMARK  3 active torsions:
REMARK  status: ('A' for Active; 'I' for Inactive)
REMARK    1  A    between atoms: C_2  and  C_4
REMARK    2  A    between atoms: N_8  and  C_9
REMARK    3  A    between atoms: C_9  and  C_10
REMARK                            x       y       z     vdW  Elec       q    Type
REMARK                         _______ _______ _______ _____ _____    ______ ____
ROOT
ATOM      1  C   UNL     1      46.471   2.913   7.391  0.00  0.00    +0.000 A 
ATOM      2  C   UNL     1      45.896   1.827   8.044  0.00  0.00    +0.000 A 
ATOM      3  C   UNL     1      45.154   2.052   9.203  0.00  0.00    +0.000 A 
ATOM      4  C   UNL     1      45.011   3.352   9.702  0.00  0.00    +0.000 A 
ATOM      5  N   UNL     1      44.230   3.509  10.873  0.00  0.00    +0.000 N 
ATOM      6  N   UNL     1      45.549   4.409   9.063  0.00  0.00    +0.000 NA
ATOM      7  C   UNL     1      46.281   4.171   7.941  0.00  0.00    +0.000 A 
ATOM      8  H   UNL     1      44.422   2.746  11.515  0.00  0.00    +0.000 HD
ENDROOT
BRANCH   1  10
ATOM      9  N   UNL     1      48.603   2.470   6.312  0.00  0.00    +0.000 N 
ATOM     10  C   UNL     1      47.279   2.773   6.162  0.00  0.00    +0.000 C 
ATOM     11  O   UNL     1      46.778   2.894   5.050  0.00  0.00    +0.000 OA
ATOM     12  H   UNL     1      49.121   2.279   5.462  0.00  0.00    +0.000 HD
ATOM     13  H   UNL     1      48.991   2.124   7.179  0.00  0.00    +0.000 HD
ENDBRANCH   1  10
BRANCH   5  14
ATOM     14  C   UNL     1      44.047   4.828  11.530  0.00  0.00    +0.000 C 
ATOM     15  C   UNL     1      42.607   5.107  11.943  0.00  0.00    +0.000 C 
ATOM     16  C   UNL     1      43.241   5.924  10.864  0.00  0.00    +0.000 C 
BRANCH  14  17
ATOM     17  C   UNL     1      45.145   5.287  12.502  0.00  0.00    +0.000 C 
ATOM     18  C   UNL     1      46.160   6.232  11.848  0.00  0.00    +0.000 C 
ATOM     19  C   UNL     1      47.248   6.623  12.835  0.00  0.00    +0.000 C 
ATOM     20  O   UNL     1      47.891   5.462  13.364  0.00  0.00    +0.000 OA
ATOM     21  C   UNL     1      46.984   4.624  14.076  0.00  0.00    +0.000 C 
ATOM     22  C   UNL     1      45.881   4.110  13.158  0.00  0.00    +0.000 C 
ENDBRANCH  14  17
ENDBRANCH   5  14
TORSDOF 3
ENDMDL
MODEL 2
REMARK VINA RESULT:    -6.412      2.532      6.117
REMARK INTER + INTRA:          -7.991
REMARK INTER:                  -7.814
REMARK INTRA:                  -0.177
REMARK UNBOUND:                -0.454
REMARK  Name = 
REMARK  3 active torsions:
REMARK  status: ('A' for Active; 'I' for Inactive)
REMARK    1  A    between atoms: C_2  and  C_4
REMARK    2  A    between atoms: N_8  and  C_9
REMARK    3  A    between atoms: C_9  and  C_10
REMARK                            x       y       z     vdW  Elec       q    Type
REMARK                         _______ _______ _______ _____ _____    ______ ____
ROOT
ATOM      1  C   UNL     1      48.257   6.916  13.446  0.00  0.00    +0.000 A 
ATOM      2  C   UNL     1      47.890   7.928  12.565  0.00  0.00    +0.000 A 
ATOM      3  C   UNL     1      46.752   7.756  11.777  0.00  0.00    +0.000 A 
ATOM      4  C   UNL     1      46.008   6.574  11.868  0.00  0.00    +0.000 A 
ATOM      5  N   UNL     1      44.855   6.475  11.052  0.00  0.00    +0.000 N 
ATOM      6  N   UNL     1      46.349   5.600  12.734  0.00  0.00    +0.000 NA
ATOM      7  C   UNL     1      47.469   5.776  13.485  0.00  0.00    +0.000 A 
ATOM      8  H   UNL     1      45.049   6.875  10.139  0.00  0.00    +0.000 HD
ENDROOT
BRANCH   1  10
ATOM      9  N   UNL     1      50.504   7.745  13.862  0.00  0.00    +0.000 N 
ATOM     10  C   UNL     1      49.450   7.003  14.315  0.00  0.00    +0.000 C 
ATOM     11  O   UNL     1      49.483   6.457  15.412  0.00  0.00    +0.000 OA
ATOM     12  H   UNL     1      51.272   7.877  14.509  0.00  0.00    +0.000 HD
ATOM     13  H   UNL     1      50.424   8.400  13.096  0.00  0.00    +0.000 HD
ENDBRANCH   1  10
BRANCH   5  14
ATOM     14  C   UNL     1      44.013   5.253  11.018  0.00  0.00    +0.000 C 
ATOM     15  C   UNL     1      42.569   5.497  11.436  0.00  0.00    +0.000 C 
ATOM     16  C   UNL     1      43.458   4.655  12.294  0.00  0.00    +0.000 C 
BRANCH  14  17
ATOM     17  C   UNL     1      44.239   4.278   9.852  0.00  0.00    +0.000 C 
ATOM     18  C   UNL     1      44.435   2.830  10.318  0.00  0.00    +0.000 C 
ATOM     19  C   UNL     1      44.696   1.912   9.134  0.00  0.00    +0.000 C 
ATOM     20  O   UNL     1      45.821   2.369   8.381  0.00  0.00    +0.000 OA
ATOM     21  C   UNL     1      45.613   3.671   7.841  0.00  0.00    +0.000 C 
ATOM     22  C   UNL     1      45.410   4.695   8.952  0.00  0.00    +0.000 C 
ENDBRANCH  14  17
ENDBRANCH   5  14
TORSDOF 3
ENDMDL
MODEL 3
REMARK VINA RESULT:    -5.313      2.227      3.385
REMARK INTER + INTRA:          -6.699
REMARK INTER:                  -6.306
REMARK INTRA:                  -0.393
REMARK UNBOUND:                -0.454
REMARK  Name = 
REMARK  3 active torsions:
REMARK  status: ('A' for Active; 'I' for Inactive)
REMARK    1  A    between atoms: C_2  and  C_4
REMARK    2  A    between atoms: N_8  and  C_9
REMARK    3  A    between atoms: C_9  and  C_10
REMARK                            x       y       z     vdW  Elec       q    Type
REMARK                         _______ _______ _______ _____ _____    ______ ____
ROOT
ATOM      1  C   UNL     1      44.716   3.900   9.662  0.00  0.00    +0.000 A 
ATOM      2  C   UNL     1      43.764   3.899  10.678  0.00  0.00    +0.000 A 
ATOM      3  C   UNL     1      43.713   4.982  11.555  0.00  0.00    +0.000 A 
ATOM      4  C   UNL     1      44.619   6.040  11.417  0.00  0.00    +0.000 A 
ATOM      5  N   UNL     1      44.498   7.115  12.330  0.00  0.00    +0.000 N 
ATOM      6  N   UNL     1      45.529   6.054  10.423  0.00  0.00    +0.000 NA
ATOM      7  C   UNL     1      45.576   4.984   9.585  0.00  0.00    +0.000 A 
ATOM      8  H   UNL     1      44.290   6.752  13.256  0.00  0.00    +0.000 HD
ENDROOT
BRANCH   1  10
ATOM      9  N   UNL     1      44.582   1.531   9.135  0.00  0.00    +0.000 N 
ATOM     10  C   UNL     1      44.852   2.795   8.691  0.00  0.00    +0.000 C 
ATOM     11  O   UNL     1      45.167   3.004   7.525  0.00  0.00    +0.000 OA
ATOM     12  H   UNL     1      44.582   0.798   8.435  0.00  0.00    +0.000 HD
ATOM     13  H   UNL     1      44.089   1.348   9.999  0.00  0.00    +0.000 HD
ENDBRANCH   1  10
BRANCH   5  14
ATOM     14  C   UNL     1      45.432   8.269  12.322  0.00  0.00    +0.000 C 
ATOM     15  C   UNL     1      44.748   9.606  12.578  0.00  0.00    +0.000 C 
ATOM     16  C   UNL     1      45.353   9.326  11.240  0.00  0.00    +0.000 C 
BRANCH  14  17
ATOM     17  C   UNL     1      46.809   8.062  12.972  0.00  0.00    +0.000 C 
ATOM     18  C   UNL     1      47.961   8.162  11.965  0.00  0.00    +0.000 C 
ATOM     19  C   UNL     1      49.297   7.909  12.645  0.00  0.00    +0.000 C 
ATOM     20  O   UNL     1      49.295   6.641  13.304  0.00  0.00    +0.000 OA
ATOM     21  C   UNL     1      48.303   6.568  14.325  0.00  0.00    +0.000 C 
ATOM     22  C   UNL     1      46.906   6.737  13.740  0.00  0.00    +0.000 C 
ENDBRANCH  14  17
ENDBRANCH   5  14
TORSDOF 3
ENDMDL
MODEL 4
REMARK VINA RESULT:    -5.119      3.866      5.736
REMARK INTER + INTRA:          -6.471
REMARK INTER:                  -5.977
REMARK INTRA:                  -0.494
REMARK UNBOUND:                -0.454
REMARK  Name = 
REMARK  3 active torsions:
REMARK  status: ('A' for Active; 'I' for Inactive)
REMARK    1  A    between atoms: C_2  and  C_4
REMARK    2  A    between atoms: N_8  and  C_9
REMARK    3  A    between atoms: C_9  and  C_10
REMARK                            x       y       z     vdW  Elec       q    Type
REMARK                         _______ _______ _______ _____ _____    ______ ____
ROOT
ATOM      1  C   UNL     1      44.737   5.031  11.936  0.00  0.00    +0.000 A 
ATOM      2  C   UNL     1      44.165   6.292  11.794  0.00  0.00    +0.000 A 
ATOM      3  C   UNL     1      44.984   7.418  11.881  0.00  0.00    +0.000 A 
ATOM      4  C   UNL     1      46.355   7.270  12.125  0.00  0.00    +0.000 A 
ATOM      5  N   UNL     1      47.129   8.454  12.183  0.00  0.00    +0.000 N 
ATOM      6  N   UNL     1      46.915   6.050  12.244  0.00  0.00    +0.000 NA
ATOM      7  C   UNL     1      46.100   4.964  12.171  0.00  0.00    +0.000 A 
ATOM      8  H   UNL     1      46.609   9.177  12.672  0.00  0.00    +0.000 HD
ENDROOT
BRANCH   1  10
ATOM      9  N   UNL     1      44.446   2.689  12.520  0.00  0.00    +0.000 N 
ATOM     10  C   UNL     1      43.949   3.782  11.867  0.00  0.00    +0.000 C 
ATOM     11  O   UNL     1      42.878   3.734  11.273  0.00  0.00    +0.000 OA
ATOM     12  H   UNL     1      43.848   1.872  12.548  0.00  0.00    +0.000 HD
ATOM     13  H   UNL     1      45.179   2.752  13.212  0.00  0.00    +0.000 HD
ENDBRANCH   1  10
BRANCH   5  14
ATOM     14  C   UNL     1      48.582   8.434  12.489  0.00  0.00    +0.000 C 
ATOM     15  C   UNL     1      49.415   9.283  11.536  0.00  0.00    +0.000 C 
ATOM     16  C   UNL     1      49.569   7.796  11.533  0.00  0.00    +0.000 C 
BRANCH  14  17
ATOM     17  C   UNL     1      48.989   8.459  13.970  0.00  0.00    +0.000 C 
ATOM     18  C   UNL     1      49.428   7.084  14.488  0.00  0.00    +0.000 C 
ATOM     19  C   UNL     1      49.779   7.150  15.966  0.00  0.00    +0.000 C 
ATOM     20  O   UNL     1      48.680   7.660  16.723  0.00  0.00    +0.000 OA
ATOM     21  C   UNL     1      48.328   8.985  16.333  0.00  0.00    +0.000 C 
ATOM     22  C   UNL     1      47.886   9.025  14.875  0.00  0.00    +0.000 C 
ENDBRANCH  14  17
ENDBRANCH   5  14
TORSDOF 3
ENDMDL
MODEL 5
REMARK VINA RESULT:    -4.800      6.063      9.089
REMARK INTER + INTRA:          -6.096
REMARK INTER:                  -5.871
REMARK INTRA:                  -0.225
REMARK UNBOUND:                -0.454
REMARK  Name = 
REMARK  3 active torsions:
REMARK  status: ('A' for Active; 'I' for Inactive)
REMARK    1  A    between atoms: C_2  and  C_4
REMARK    2  A    between atoms: N_8  and  C_9
REMARK    3  A    between atoms: C_9  and  C_10
REMARK                            x       y       z     vdW  Elec       q    Type
REMARK                         _______ _______ _______ _____ _____    ______ ____
ROOT
ATOM      1  C   UNL     1      52.222   1.846  17.646  0.00  0.00    +0.000 A 
ATOM      2  C   UNL     1      52.661   3.074  18.131  0.00  0.00    +0.000 A 
ATOM      3  C   UNL     1      51.773   4.149  18.150  0.00  0.00    +0.000 A 
ATOM      4  C   UNL     1      50.468   3.988  17.669  0.00  0.00    +0.000 A 
ATOM      5  N   UNL     1      49.614   5.116  17.735  0.00  0.00    +0.000 N 
ATOM      6  N   UNL     1      50.033   2.795  17.217  0.00  0.00    +0.000 NA
ATOM      7  C   UNL     1      50.916   1.761  17.192  0.00  0.00    +0.000 A 
ATOM      8  H   UNL     1      50.137   5.952  17.492  0.00  0.00    +0.000 HD
ENDROOT
BRANCH   1  10
ATOM      9  N   UNL     1      52.732  -0.430  18.330  0.00  0.00    +0.000 N 
ATOM     10  C   UNL     1      53.093   0.653  17.580  0.00  0.00    +0.000 C 
ATOM     11  O   UNL     1      54.083   0.624  16.858  0.00  0.00    +0.000 OA
ATOM     12  H   UNL     1      53.280  -1.272  18.198  0.00  0.00    +0.000 HD
ATOM     13  H   UNL     1      51.812  -0.535  18.734  0.00  0.00    +0.000 HD
ENDBRANCH   1  10
BRANCH   5  14
ATOM     14  C   UNL     1      48.226   5.088  17.209  0.00  0.00    +0.000 C 
ATOM     15  C   UNL     1      47.166   5.313  18.280  0.00  0.00    +0.000 C 
ATOM     16  C   UNL     1      47.267   3.984  17.602  0.00  0.00    +0.000 C 
BRANCH  14  17
ATOM     17  C   UNL     1      47.979   5.749  15.844  0.00  0.00    +0.000 C 
ATOM     18  C   UNL     1      47.474   4.758  14.787  0.00  0.00    +0.000 C 
ATOM     19  C   UNL     1      47.286   5.449  13.446  0.00  0.00    +0.000 C 
ATOM     20  O   UNL     1      48.499   6.076  13.027  0.00  0.00    +0.000 OA
ATOM     21  C   UNL     1      48.926   7.084  13.941  0.00  0.00    +0.000 C 
ATOM     22  C   UNL     1      49.216   6.487  15.313  0.00  0.00    +0.000 C 
ENDBRANCH  14  17
ENDBRANCH   5  14
TORSDOF 3
ENDMDL
MODEL 6
REMARK VINA RESULT:    -4.789      5.449      7.264
REMARK INTER + INTRA:          -6.084
REMARK INTER:                  -5.600
REMARK INTRA:                  -0.484
REMARK UNBOUND:                -0.454
REMARK  Name = 
REMARK  3 active torsions:
REMARK  status: ('A' for Active; 'I' for Inactive)
REMARK    1  A    between atoms: C_2  and  C_4
REMARK    2  A    between atoms: N_8  and  C_9
REMARK    3  A    between atoms: C_9  and  C_10
REMARK                            x       y       z     vdW  Elec       q    Type
REMARK                         _______ _______ _______ _____ _____    ______ ____
ROOT
ATOM      1  C   UNL     1      48.955   7.105  12.986  0.00  0.00    +0.000 A 
ATOM      2  C   UNL     1      47.862   6.256  12.845  0.00  0.00    +0.000 A 
ATOM      3  C   UNL     1      47.387   5.575  13.966  0.00  0.00    +0.000 A 
ATOM      4  C   UNL     1      48.020   5.738  15.205  0.00  0.00    +0.000 A 
ATOM      5  N   UNL     1      47.474   5.031  16.304  0.00  0.00    +0.000 N 
ATOM      6  N   UNL     1      49.066   6.575  15.349  0.00  0.00    +0.000 NA
ATOM      7  C   UNL     1      49.525   7.220  14.244  0.00  0.00    +0.000 A 
ATOM      8  H   UNL     1      47.193   4.102  16.004  0.00  0.00    +0.000 HD
ENDROOT
BRANCH   1  10
ATOM      9  N   UNL     1      50.716   7.414  11.338  0.00  0.00    +0.000 N 
ATOM     10  C   UNL     1      49.533   7.861  11.855  0.00  0.00    +0.000 C 
ATOM     11  O   UNL     1      48.960   8.835  11.379  0.00  0.00    +0.000 OA
ATOM     12  H   UNL     1      51.048   7.881  10.503  0.00  0.00    +0.000 HD
ATOM     13  H   UNL     1      51.085   6.493  11.533  0.00  0.00    +0.000 HD
ENDBRANCH   1  10
BRANCH   5  14
ATOM     14  C   UNL     1      48.085   5.079  17.656  0.00  0.00    +0.000 C 
ATOM     15  C   UNL     1      47.078   5.340  18.769  0.00  0.00    +0.000 C 
ATOM     16  C   UNL     1      48.116   6.368  18.451  0.00  0.00    +0.000 C 
BRANCH  14  17
ATOM     17  C   UNL     1      49.201   4.066  17.959  0.00  0.00    +0.000 C 
ATOM     18  C   UNL     1      50.597   4.701  17.950  0.00  0.00    +0.000 C 
ATOM     19  C   UNL     1      51.668   3.654  18.211  0.00  0.00    +0.000 C 
ATOM     20  O   UNL     1      51.577   2.592  17.260  0.00  0.00    +0.000 OA
ATOM     21  C   UNL     1      50.326   1.913  17.330  0.00  0.00    +0.000 C 
ATOM     22  C   UNL     1      49.174   2.859  17.011  0.00  0.00    +0.000 C 
ENDBRANCH  14  17
ENDBRANCH   5  14
TORSDOF 3
ENDMDL
MODEL 7
REMARK VINA RESULT:    -4.769      4.253      8.033
REMARK INTER + INTRA:          -6.059
REMARK INTER:                  -6.736
REMARK INTRA:                   0.677
REMARK UNBOUND:                -0.454
REMARK  Name = 
REMARK  3 active torsions:
REMARK  status: ('A' for Active; 'I' for Inactive)
REMARK    1  A    between atoms: C_2  and  C_4
REMARK    2  A    between atoms: N_8  and  C_9
REMARK    3  A    between atoms: C_9  and  C_10
REMARK                            x       y       z     vdW  Elec       q    Type
REMARK                         _______ _______ _______ _____ _____    ______ ____
ROOT
ATOM      1  C   UNL     1      48.545   4.240  18.032  0.00  0.00    +0.000 A 
ATOM      2  C   UNL     1      48.371   2.986  17.455  0.00  0.00    +0.000 A 
ATOM      3  C   UNL     1      47.875   2.905  16.154  0.00  0.00    +0.000 A 
ATOM      4  C   UNL     1      47.546   4.072  15.455  0.00  0.00    +0.000 A 
ATOM      5  N   UNL     1      47.066   3.916  14.132  0.00  0.00    +0.000 N 
ATOM      6  N   UNL     1      47.732   5.289  16.002  0.00  0.00    +0.000 NA
ATOM      7  C   UNL     1      48.203   5.350  17.277  0.00  0.00    +0.000 A 
ATOM      8  H   UNL     1      46.443   3.115  14.089  0.00  0.00    +0.000 HD
ENDROOT
BRANCH   1  10
ATOM      9  N   UNL     1      48.523   3.638  20.387  0.00  0.00    +0.000 N 
ATOM     10  C   UNL     1      49.056   4.426  19.406  0.00  0.00    +0.000 C 
ATOM     11  O   UNL     1      49.944   5.234  19.654  0.00  0.00    +0.000 OA
ATOM     12  H   UNL     1      48.952   3.706  21.302  0.00  0.00    +0.000 HD
ATOM     13  H   UNL     1      47.983   2.807  20.188  0.00  0.00    +0.000 HD
ENDBRANCH   1  10
BRANCH   5  14
ATOM     14  C   UNL     1      46.633   5.072  13.307  0.00  0.00    +0.000 C 
ATOM     15  C   UNL     1      47.792   5.889  12.751  0.00  0.00    +0.000 C 
ATOM     16  C   UNL     1      46.879   6.493  13.769  0.00  0.00    +0.000 C 
BRANCH  14  17
ATOM     17  C   UNL     1      45.429   4.858  12.376  0.00  0.00    +0.000 C 
ATOM     18  C   UNL     1      44.144   5.501  12.911  0.00  0.00    +0.000 C 
ATOM     19  C   UNL     1      42.974   5.227  11.979  0.00  0.00    +0.000 C 
ATOM     20  O   UNL     1      42.806   3.822  11.781  0.00  0.00    +0.000 OA
ATOM     21  C   UNL     1      43.950   3.224  11.177  0.00  0.00    +0.000 C 
ATOM     22  C   UNL     1      45.178   3.376  12.067  0.00  0.00    +0.000 C 
ENDBRANCH  14  17
ENDBRANCH   5  14
TORSDOF 3
ENDMDL
