MODEL 1
REMARK VINA RESULT:    -7.152      0.000      0.000
REMARK INTER + INTRA:         -11.412
REMARK INTER:                 -10.079
REMARK INTRA:                  -1.334
REMARK UNBOUND:                -1.334
REMARK  Name = 
REMARK  7 active torsions:
REMARK  status: ('A' for Active; 'I' for Inactive)
REMARK    1  A    between atoms: C_2  and  C_3
REMARK    2  A    between atoms: C_7  and  C_8
REMARK    3  A    between atoms: N_10  and  C_11
REMARK    4  A    between atoms: C_11  and  C_12
REMARK    5  A    between atoms: C_15  and  C_16
REMARK    6  A    between atoms: C_16  and  N_17
REMARK    7  A    between atoms: C_18  and  C_20
REMARK                            x       y       z     vdW  Elec       q    Type
REMARK                         _______ _______ _______ _____ _____    ______ ____
ROOT
ATOM      1  C   UNL     1      50.353   7.391  15.131  0.00  0.00    +0.000 A 
ATOM      2  C   UNL     1      49.038   6.926  15.266  0.00  0.00    +0.000 A 
ATOM      3  C   UNL     1      48.117   7.058  14.214  0.00  0.00    +0.000 A 
ATOM      4  C   UNL     1      48.483   7.654  12.995  0.00  0.00    +0.000 A 
ATOM      5  C   UNL     1      49.797   8.125  12.879  0.00  0.00    +0.000 A 
ATOM      6  F   UNL     1      50.211   8.728  11.756  0.00  0.00    +0.000 F 
ATOM      7  C   UNL     1      50.720   7.992  13.920  0.00  0.00    +0.000 A 
ENDROOT
BRANCH   1   8
ATOM      8  C   UNL     1      51.361   7.262  16.245  0.00  0.00    +0.000 C 
BRANCH   8  11
ATOM      9  C   UNL     1      50.924   5.502  17.897  0.00  0.00    +0.000 C 
ATOM     10  O   UNL     1      50.296   6.274  18.616  0.00  0.00    +0.000 OA
ATOM     11  N   UNL     1      51.503   5.896  16.710  0.00  0.00    +0.000 N 
ATOM     12  H   UNL     1      52.177   5.299  16.248  0.00  0.00    +0.000 HD
BRANCH   9  17
ATOM     13  C   UNL     1      50.361   3.104  17.268  0.00  0.00    +0.000 C 
ATOM     14  C   UNL     1      51.115   1.768  17.399  0.00  0.00    +0.000 C 
ATOM     15  C   UNL     1      52.508   2.090  17.951  0.00  0.00    +0.000 C 
ATOM     16  C   UNL     1      52.563   3.600  18.125  0.00  0.00    +0.000 C 
ATOM     17  C   UNL     1      51.101   4.033  18.253  0.00  0.00    +0.000 C 
BRANCH  13  19
ATOM     18  N   UNL     1      47.772   2.893  17.836  0.00  0.00    +0.000 NA
ATOM     19  C   UNL     1      48.898   2.981  17.605  0.00  0.00    +0.000 C 
ENDBRANCH  13  19
ENDBRANCH   9  17
ENDBRANCH   8  11
ENDBRANCH   1   8
BRANCH   4  20
ATOM     20  C   UNL     1      47.484   7.737  11.865  0.00  0.00    +0.000 C 
BRANCH  20  21
ATOM     21  N   UNL     1      46.747   6.512  11.661  0.00  0.00    +0.000 N 
ATOM     22  C   UNL     1      45.373   6.465  11.654  0.00  0.00    +0.000 C 
ATOM     23  O   UNL     1      44.664   7.459  11.768  0.00  0.00    +0.000 OA
ATOM     24  H   UNL     1      47.250   5.647  11.830  0.00  0.00    +0.000 HD
BRANCH  22  25
ATOM     25  C   UNL     1      44.800   5.136  11.403  0.00  0.00    +0.000 A 
ATOM     26  C   UNL     1      44.049   4.494  12.378  0.00  0.00    +0.000 A 
ATOM     27  S   UNL     1      43.457   2.971  11.882  0.00  0.00    +0.000 S 
ATOM     28  C   UNL     1      44.211   3.107  10.363  0.00  0.00    +0.000 A 
ATOM     29  N   UNL     1      44.128   2.109   9.443  0.00  0.00    +0.000 NA
ATOM     30  C   UNL     1      44.760   2.343   8.341  0.00  0.00    +0.000 A 
ATOM     31  N   UNL     1      45.465   3.488   8.072  0.00  0.00    +0.000 N 
ATOM     32  C   UNL     1      45.586   4.517   8.975  0.00  0.00    +0.000 A 
ATOM     33  O   UNL     1      46.224   5.529   8.705  0.00  0.00    +0.000 OA
ATOM     34  C   UNL     1      44.887   4.305  10.227  0.00  0.00    +0.000 A 
ATOM     35  H   UNL     1      45.935   3.614   7.188  0.00  0.00    +0.000 HD
ENDBRANCH  22  25
ENDBRANCH  20  21
ENDBRANCH   4  20
TORSDOF 7
ENDMDL
MODEL 2
REMARK VINA RESULT:    -6.920      1.483      2.064
REMARK INTER + INTRA:         -11.086
REMARK INTER:                  -9.758
REMARK INTRA:                  -1.328
REMARK UNBOUND:                -1.334
REMARK  Name = 
REMARK  7 active torsions:
REMARK  status: ('A' for Active; 'I' for Inactive)
REMARK    1  A    between atoms: C_2  and  C_3
REMARK    2  A    between atoms: C_7  and  C_8
REMARK    3  A    between atoms: N_10  and  C_11
REMARK    4  A    between atoms: C_11  and  C_12
REMARK    5  A    between atoms: C_15  and  C_16
REMARK    6  A    between atoms: C_16  and  N_17
REMARK    7  A    between atoms: C_18  and  C_20
REMARK                            x       y       z     vdW  Elec       q    Type
REMARK                         _______ _______ _______ _____ _____    ______ ____
ROOT
ATOM      1  C   UNL     1      49.941   7.796  15.596  0.00  0.00    +0.000 A 
ATOM      2  C   UNL     1      48.603   8.215  15.587  0.00  0.00    +0.000 A 
ATOM      3  C   UNL     1      47.937   8.471  14.377  0.00  0.00    +0.000 A 
ATOM      4  C   UNL     1      48.586   8.312  13.141  0.00  0.00    +0.000 A 
ATOM      5  C   UNL     1      49.926   7.905  13.166  0.00  0.00    +0.000 A 
ATOM      6  F   UNL     1      50.616   7.756  12.026  0.00  0.00    +0.000 F 
ATOM      7  C   UNL     1      50.592   7.643  14.365  0.00  0.00    +0.000 A 
ENDROOT
BRANCH   1   8
ATOM      8  C   UNL     1      50.678   7.515  16.880  0.00  0.00    +0.000 C 
BRANCH   8  11
ATOM      9  C   UNL     1      49.889   5.474  17.989  0.00  0.00    +0.000 C 
ATOM     10  O   UNL     1      48.977   6.078  18.546  0.00  0.00    +0.000 OA
ATOM     11  N   UNL     1      50.794   6.096  17.155  0.00  0.00    +0.000 N 
ATOM     12  H   UNL     1      51.642   5.620  16.878  0.00  0.00    +0.000 HD
BRANCH   9  17
ATOM     13  C   UNL     1      49.372   3.166  17.055  0.00  0.00    +0.000 C 
ATOM     14  C   UNL     1      50.145   1.834  17.029  0.00  0.00    +0.000 C 
ATOM     15  C   UNL     1      51.526   2.105  17.637  0.00  0.00    +0.000 C 
ATOM     16  C   UNL     1      51.555   3.581  18.000  0.00  0.00    +0.000 C 
ATOM     17  C   UNL     1      50.085   3.974  18.160  0.00  0.00    +0.000 C 
BRANCH  13  19
ATOM     18  N   UNL     1      46.782   2.833  17.554  0.00  0.00    +0.000 NA
ATOM     19  C   UNL     1      47.907   2.981  17.354  0.00  0.00    +0.000 C 
ENDBRANCH  13  19
ENDBRANCH   9  17
ENDBRANCH   8  11
ENDBRANCH   1   8
BRANCH   4  20
ATOM     20  C   UNL     1      47.828   8.548  11.855  0.00  0.00    +0.000 C 
BRANCH  20  21
ATOM     21  N   UNL     1      47.229   7.350  11.315  0.00  0.00    +0.000 N 
ATOM     22  C   UNL     1      45.883   7.084  11.412  0.00  0.00    +0.000 C 
ATOM     23  O   UNL     1      45.078   7.860  11.916  0.00  0.00    +0.000 OA
ATOM     24  H   UNL     1      47.854   6.570  11.139  0.00  0.00    +0.000 HD
BRANCH  22  25
ATOM     25  C   UNL     1      45.452   5.831  10.780  0.00  0.00    +0.000 A 
ATOM     26  C   UNL     1      45.732   5.579   9.444  0.00  0.00    +0.000 A 
ATOM     27  S   UNL     1      45.164   4.061   8.908  0.00  0.00    +0.000 S 
ATOM     28  C   UNL     1      44.498   3.706  10.433  0.00  0.00    +0.000 A 
ATOM     29  N   UNL     1      43.825   2.545  10.656  0.00  0.00    +0.000 NA
ATOM     30  C   UNL     1      43.363   2.417  11.856  0.00  0.00    +0.000 A 
ATOM     31  N   UNL     1      43.519   3.341  12.857  0.00  0.00    +0.000 N 
ATOM     32  C   UNL     1      44.181   4.530  12.675  0.00  0.00    +0.000 A 
ATOM     33  O   UNL     1      44.302   5.338  13.590  0.00  0.00    +0.000 OA
ATOM     34  C   UNL     1      44.724   4.721  11.345  0.00  0.00    +0.000 A 
ATOM     35  H   UNL     1      43.137   3.180  13.777  0.00  0.00    +0.000 HD
ENDBRANCH  22  25
ENDBRANCH  20  21
ENDBRANCH   4  20
TORSDOF 7
ENDMDL
MODEL 3
REMARK VINA RESULT:    -6.900      3.597      9.453
REMARK INTER + INTRA:         -11.057
REMARK INTER:                 -10.116
REMARK INTRA:                  -0.941
REMARK UNBOUND:                -1.334
REMARK  Name = 
REMARK  7 active torsions:
REMARK  status: ('A' for Active; 'I' for Inactive)
REMARK    1  A    between atoms: C_2  and  C_3
REMARK    2  A    between atoms: C_7  and  C_8
REMARK    3  A    between atoms: N_10  and  C_11
REMARK    4  A    between atoms: C_11  and  C_12
REMARK    5  A    between atoms: C_15  and  C_16
REMARK    6  A    between atoms: C_16  and  N_17
REMARK    7  A    between atoms: C_18  and  C_20
REMARK                            x       y       z     vdW  Elec       q    Type
REMARK                         _______ _______ _______ _____ _____    ______ ____
ROOT
ATOM      1  C   UNL     1      45.067   5.149  11.565  0.00  0.00    +0.000 A 
ATOM      2  C   UNL     1      45.652   6.417  11.438  0.00  0.00    +0.000 A 
ATOM      3  C   UNL     1      46.722   6.801  12.265  0.00  0.00    +0.000 A 
ATOM      4  C   UNL     1      47.240   5.929  13.238  0.00  0.00    +0.000 A 
ATOM      5  C   UNL     1      46.637   4.672  13.361  0.00  0.00    +0.000 A 
ATOM      6  F   UNL     1      47.061   3.797  14.284  0.00  0.00    +0.000 F 
ATOM      7  C   UNL     1      45.576   4.281  12.539  0.00  0.00    +0.000 A 
ENDROOT
BRANCH   1   8
ATOM      8  C   UNL     1      43.918   4.713  10.692  0.00  0.00    +0.000 C 
BRANCH   8  11
ATOM      9  C   UNL     1      45.071   3.834   8.713  0.00  0.00    +0.000 C 
ATOM     10  O   UNL     1      45.491   4.948   8.411  0.00  0.00    +0.000 OA
ATOM     11  N   UNL     1      44.273   3.614   9.815  0.00  0.00    +0.000 N 
ATOM     12  H   UNL     1      43.782   2.736   9.922  0.00  0.00    +0.000 HD
BRANCH   9  17
ATOM     13  C   UNL     1      46.839   2.666   7.308  0.00  0.00    +0.000 C 
ATOM     14  C   UNL     1      47.207   1.188   7.080  0.00  0.00    +0.000 C 
ATOM     15  C   UNL     1      46.318   0.356   8.011  0.00  0.00    +0.000 C 
ATOM     16  C   UNL     1      45.454   1.344   8.778  0.00  0.00    +0.000 C 
ATOM     17  C   UNL     1      45.415   2.596   7.899  0.00  0.00    +0.000 C 
BRANCH  13  19
ATOM     18  N   UNL     1      46.926   4.077   5.056  0.00  0.00    +0.000 NA
ATOM     19  C   UNL     1      46.878   3.477   6.039  0.00  0.00    +0.000 C 
ENDBRANCH  13  19
ENDBRANCH   9  17
ENDBRANCH   8  11
ENDBRANCH   1   8
BRANCH   4  20
ATOM     20  C   UNL     1      48.423   6.353  14.077  0.00  0.00    +0.000 C 
BRANCH  20  21
ATOM     21  N   UNL     1      48.094   6.557  15.468  0.00  0.00    +0.000 N 
ATOM     22  C   UNL     1      48.962   6.245  16.489  0.00  0.00    +0.000 C 
ATOM     23  O   UNL     1      50.097   5.820  16.302  0.00  0.00    +0.000 OA
ATOM     24  H   UNL     1      47.109   6.641  15.694  0.00  0.00    +0.000 HD
BRANCH  22  25
ATOM     25  C   UNL     1      48.466   6.547  17.837  0.00  0.00    +0.000 A 
ATOM     26  C   UNL     1      48.304   5.537  18.775  0.00  0.00    +0.000 A 
ATOM     27  S   UNL     1      47.738   6.098  20.285  0.00  0.00    +0.000 S 
ATOM     28  C   UNL     1      47.659   7.703  19.724  0.00  0.00    +0.000 A 
ATOM     29  N   UNL     1      47.214   8.708  20.524  0.00  0.00    +0.000 NA
ATOM     30  C   UNL     1      47.195   9.871  19.963  0.00  0.00    +0.000 A 
ATOM     31  N   UNL     1      47.587  10.122  18.673  0.00  0.00    +0.000 N 
ATOM     32  C   UNL     1      48.033   9.138  17.825  0.00  0.00    +0.000 A 
ATOM     33  O   UNL     1      48.377   9.394  16.676  0.00  0.00    +0.000 OA
ATOM     34  C   UNL     1      48.079   7.813  18.412  0.00  0.00    +0.000 A 
ATOM     35  H   UNL     1      47.554  11.056  18.292  0.00  0.00    +0.000 HD
ENDBRANCH  22  25
ENDBRANCH  20  21
ENDBRANCH   4  20
TORSDOF 7
ENDMDL
MODEL 4
REMARK VINA RESULT:    -6.888      3.099      9.283
REMARK INTER + INTRA:         -11.040
REMARK INTER:                 -10.342
REMARK INTRA:                  -0.698
REMARK UNBOUND:                -1.334
REMARK  Name = 
REMARK  7 active torsions:
REMARK  status: ('A' for Active; 'I' for Inactive)
REMARK    1  A    between atoms: C_2  and  C_3
REMARK    2  A    between atoms: C_7  and  C_8
REMARK    3  A    between atoms: N_10  and  C_11
REMARK    4  A    between atoms: C_11  and  C_12
REMARK    5  A    between atoms: C_15  and  C_16
REMARK    6  A    between atoms: C_16  and  N_17
REMARK    7  A    between atoms: C_18  and  C_20
REMARK                            x       y       z     vdW  Elec       q    Type
REMARK                         _______ _______ _______ _____ _____    ______ ____
ROOT
ATOM      1  C   UNL     1      44.984   5.053  11.482  0.00  0.00    +0.000 A 
ATOM      2  C   UNL     1      45.520   6.318  11.208  0.00  0.00    +0.000 A 
ATOM      3  C   UNL     1      46.588   6.827  11.968  0.00  0.00    +0.000 A 
ATOM      4  C   UNL     1      47.153   6.084  13.019  0.00  0.00    +0.000 A 
ATOM      5  C   UNL     1      46.598   4.827  13.288  0.00  0.00    +0.000 A 
ATOM      6  F   UNL     1      47.068   4.073  14.292  0.00  0.00    +0.000 F 
ATOM      7  C   UNL     1      45.540   4.313  12.534  0.00  0.00    +0.000 A 
ENDROOT
BRANCH   1   8
ATOM      8  C   UNL     1      43.838   4.485  10.684  0.00  0.00    +0.000 C 
BRANCH   8  11
ATOM      9  C   UNL     1      44.981   3.693   8.662  0.00  0.00    +0.000 C 
ATOM     10  O   UNL     1      45.282   4.837   8.334  0.00  0.00    +0.000 OA
ATOM     11  N   UNL     1      44.255   3.413   9.800  0.00  0.00    +0.000 N 
ATOM     12  H   UNL     1      43.852   2.495   9.935  0.00  0.00    +0.000 HD
BRANCH   9  17
ATOM     13  C   UNL     1      46.840   2.620   7.299  0.00  0.00    +0.000 C 
ATOM     14  C   UNL     1      47.276   1.162   7.063  0.00  0.00    +0.000 C 
ATOM     15  C   UNL     1      46.394   0.280   7.954  0.00  0.00    +0.000 C 
ATOM     16  C   UNL     1      45.465   1.220   8.706  0.00  0.00    +0.000 C 
ATOM     17  C   UNL     1      45.402   2.482   7.843  0.00  0.00    +0.000 C 
BRANCH  13  19
ATOM     18  N   UNL     1      46.899   4.103   5.093  0.00  0.00    +0.000 NA
ATOM     19  C   UNL     1      46.885   3.450   6.043  0.00  0.00    +0.000 C 
ENDBRANCH  13  19
ENDBRANCH   9  17
ENDBRANCH   8  11
ENDBRANCH   1   8
BRANCH   4  20
ATOM     20  C   UNL     1      48.332   6.638  13.784  0.00  0.00    +0.000 C 
BRANCH  20  21
ATOM     21  N   UNL     1      48.166   6.573  15.217  0.00  0.00    +0.000 N 
ATOM     22  C   UNL     1      48.934   7.310  16.087  0.00  0.00    +0.000 C 
ATOM     23  O   UNL     1      49.784   8.115  15.720  0.00  0.00    +0.000 OA
ATOM     24  H   UNL     1      47.690   5.755  15.582  0.00  0.00    +0.000 HD
BRANCH  22  25
ATOM     25  C   UNL     1      48.603   7.135  17.507  0.00  0.00    +0.000 A 
ATOM     26  C   UNL     1      48.108   8.195  18.254  0.00  0.00    +0.000 A 
ATOM     27  S   UNL     1      47.767   7.780  19.875  0.00  0.00    +0.000 S 
ATOM     28  C   UNL     1      48.300   6.181  19.639  0.00  0.00    +0.000 A 
ATOM     29  N   UNL     1      48.304   5.281  20.659  0.00  0.00    +0.000 NA
ATOM     30  C   UNL     1      48.747   4.111  20.338  0.00  0.00    +0.000 A 
ATOM     31  N   UNL     1      49.182   3.756  19.087  0.00  0.00    +0.000 N 
ATOM     32  C   UNL     1      49.206   4.633  18.030  0.00  0.00    +0.000 A 
ATOM     33  O   UNL     1      49.602   4.285  16.923  0.00  0.00    +0.000 OA
ATOM     34  C   UNL     1      48.712   5.960  18.338  0.00  0.00    +0.000 A 
ATOM     35  H   UNL     1      49.513   2.822  18.898  0.00  0.00    +0.000 HD
ENDBRANCH  22  25
ENDBRANCH  20  21
ENDBRANCH   4  20
TORSDOF 7
ENDMDL
MODEL 5
REMARK VINA RESULT:    -6.737      2.047      2.744
REMARK INTER + INTRA:         -10.828
REMARK INTER:                  -9.723
REMARK INTRA:                  -1.105
REMARK UNBOUND:                -1.334
REMARK  Name = 
REMARK  7 active torsions:
REMARK  status: ('A' for Active; 'I' for Inactive)
REMARK    1  A    between atoms: C_2  and  C_3
REMARK    2  A    between atoms: C_7  and  C_8
REMARK    3  A    between atoms: N_10  and  C_11
REMARK    4  A    between atoms: C_11  and  C_12
REMARK    5  A    between atoms: C_15  and  C_16
REMARK    6  A    between atoms: C_16  and  N_17
REMARK    7  A    between atoms: C_18  and  C_20
REMARK                            x       y       z     vdW  Elec       q    Type
REMARK                         _______ _______ _______ _____ _____    ______ ____
ROOT
ATOM      1  C   UNL     1      47.913   7.117  14.225  0.00  0.00    +0.000 A 
ATOM      2  C   UNL     1      47.545   5.827  13.817  0.00  0.00    +0.000 A 
ATOM      3  C   UNL     1      46.703   5.636  12.709  0.00  0.00    +0.000 A 
ATOM      4  C   UNL     1      46.208   6.726  11.973  0.00  0.00    +0.000 A 
ATOM      5  C   UNL     1      46.573   8.009  12.401  0.00  0.00    +0.000 A 
ATOM      6  F   UNL     1      46.119   9.097  11.763  0.00  0.00    +0.000 F 
ATOM      7  C   UNL     1      47.415   8.206  13.499  0.00  0.00    +0.000 A 
ENDROOT
BRANCH   1   8
ATOM      8  C   UNL     1      48.813   7.349  15.412  0.00  0.00    +0.000 C 
BRANCH   8  11
ATOM      9  C   UNL     1      49.342   5.997  17.390  0.00  0.00    +0.000 C 
ATOM     10  O   UNL     1      49.065   6.922  18.148  0.00  0.00    +0.000 OA
ATOM     11  N   UNL     1      49.264   6.111  16.018  0.00  0.00    +0.000 N 
ATOM     12  H   UNL     1      49.687   5.411  15.422  0.00  0.00    +0.000 HD
BRANCH   9  17
ATOM     13  C   UNL     1      49.264   3.483  17.017  0.00  0.00    +0.000 C 
ATOM     14  C   UNL     1      50.251   2.337  17.306  0.00  0.00    +0.000 C 
ATOM     15  C   UNL     1      51.538   2.976  17.840  0.00  0.00    +0.000 C 
ATOM     16  C   UNL     1      51.301   4.478  17.849  0.00  0.00    +0.000 C 
ATOM     17  C   UNL     1      49.780   4.635  17.906  0.00  0.00    +0.000 C 
BRANCH  13  19
ATOM     18  N   UNL     1      46.742   2.846  17.566  0.00  0.00    +0.000 NA
ATOM     19  C   UNL     1      47.840   3.119  17.343  0.00  0.00    +0.000 C 
ENDBRANCH  13  19
ENDBRANCH   9  17
ENDBRANCH   8  11
ENDBRANCH   1   8
BRANCH   4  20
ATOM     20  C   UNL     1      45.345   6.486  10.757  0.00  0.00    +0.000 C 
BRANCH  20  21
ATOM     21  N   UNL     1      45.596   5.215  10.118  0.00  0.00    +0.000 N 
ATOM     22  C   UNL     1      44.585   4.393   9.680  0.00  0.00    +0.000 C 
ATOM     23  O   UNL     1      43.397   4.690   9.748  0.00  0.00    +0.000 OA
ATOM     24  H   UNL     1      46.509   4.801  10.275  0.00  0.00    +0.000 HD
BRANCH  22  25
ATOM     25  C   UNL     1      45.032   3.154   9.030  0.00  0.00    +0.000 A 
ATOM     26  C   UNL     1      44.449   1.936   9.350  0.00  0.00    +0.000 A 
ATOM     27  S   UNL     1      45.095   0.623   8.470  0.00  0.00    +0.000 S 
ATOM     28  C   UNL     1      46.197   1.635   7.658  0.00  0.00    +0.000 A 
ATOM     29  N   UNL     1      47.089   1.132   6.763  0.00  0.00    +0.000 NA
ATOM     30  C   UNL     1      47.872   2.013   6.235  0.00  0.00    +0.000 A 
ATOM     31  N   UNL     1      47.841   3.355   6.515  0.00  0.00    +0.000 N 
ATOM     32  C   UNL     1      46.966   3.906   7.419  0.00  0.00    +0.000 A 
ATOM     33  O   UNL     1      46.963   5.111   7.649  0.00  0.00    +0.000 OA
ATOM     34  C   UNL     1      46.060   2.958   8.036  0.00  0.00    +0.000 A 
ATOM     35  H   UNL     1      48.477   3.995   6.064  0.00  0.00    +0.000 HD
ENDBRANCH  22  25
ENDBRANCH  20  21
ENDBRANCH   4  20
TORSDOF 7
ENDMDL
MODEL 6
REMARK VINA RESULT:    -6.333      5.100      8.317
REMARK INTER + INTRA:         -10.258
REMARK INTER:                  -8.992
REMARK INTRA:                  -1.266
REMARK UNBOUND:                -1.334
REMARK  Name = 
REMARK  7 active torsions:
REMARK  status: ('A' for Active; 'I' for Inactive)
REMARK    1  A    between atoms: C_2  and  C_3
REMARK    2  A    between atoms: C_7  and  C_8
REMARK    3  A    between atoms: N_10  and  C_11
REMARK    4  A    between atoms: C_11  and  C_12
REMARK    5  A    between atoms: C_15  and  C_16
REMARK    6  A    between atoms: C_16  and  N_17
REMARK    7  A    between atoms: C_18  and  C_20
REMARK                            x       y       z     vdW  Elec       q    Type
REMARK                         _______ _______ _______ _____ _____    ______ ____
ROOT
ATOM      1  C   UNL     1      47.444   8.423  12.558  0.00  0.00    +0.000 A 
ATOM      2  C   UNL     1      48.278   7.303  12.687  0.00  0.00    +0.000 A 
ATOM      3  C   UNL     1      49.641   7.380  12.356  0.00  0.00    +0.000 A 
ATOM      4  C   UNL     1      50.212   8.576  11.890  0.00  0.00    +0.000 A 
ATOM      5  C   UNL     1      49.364   9.682  11.754  0.00  0.00    +0.000 A 
ATOM      6  F   UNL     1      49.832  10.850  11.292  0.00  0.00    +0.000 F 
ATOM      7  C   UNL     1      48.008   9.615  12.087  0.00  0.00    +0.000 A 
ENDROOT
BRANCH   1   8
ATOM      8  C   UNL     1      45.978   8.367  12.905  0.00  0.00    +0.000 C 
BRANCH   8  11
ATOM      9  C   UNL     1      44.403   6.962  11.655  0.00  0.00    +0.000 C 
ATOM     10  O   UNL     1      43.970   7.927  11.032  0.00  0.00    +0.000 OA
ATOM     11  N   UNL     1      45.387   7.076  12.614  0.00  0.00    +0.000 N 
ATOM     12  H   UNL     1      45.576   6.308  13.245  0.00  0.00    +0.000 HD
BRANCH   9  17
ATOM     13  C   UNL     1      45.034   4.589  10.994  0.00  0.00    +0.000 C 
ATOM     14  C   UNL     1      44.487   3.201  11.375  0.00  0.00    +0.000 C 
ATOM     15  C   UNL     1      43.409   3.420  12.442  0.00  0.00    +0.000 C 
ATOM     16  C   UNL     1      43.342   4.919  12.684  0.00  0.00    +0.000 C 
ATOM     17  C   UNL     1      43.897   5.549  11.405  0.00  0.00    +0.000 C 
BRANCH  13  19
ATOM     18  N   UNL     1      45.582   4.789   8.400  0.00  0.00    +0.000 NA
ATOM     19  C   UNL     1      45.361   4.703   9.528  0.00  0.00    +0.000 C 
ENDBRANCH  13  19
ENDBRANCH   9  17
ENDBRANCH   8  11
ENDBRANCH   1   8
BRANCH   4  20
ATOM     20  C   UNL     1      51.691   8.640  11.589  0.00  0.00    +0.000 C 
BRANCH  20  21
ATOM     21  N   UNL     1      52.021   8.227  10.245  0.00  0.00    +0.000 N 
ATOM     22  C   UNL     1      53.135   8.682   9.581  0.00  0.00    +0.000 C 
ATOM     23  O   UNL     1      53.963   9.431  10.090  0.00  0.00    +0.000 OA
ATOM     24  H   UNL     1      51.263   7.842   9.691  0.00  0.00    +0.000 HD
BRANCH  22  25
ATOM     25  C   UNL     1      53.321   8.131   8.234  0.00  0.00    +0.000 A 
ATOM     26  C   UNL     1      53.289   8.958   7.119  0.00  0.00    +0.000 A 
ATOM     27  S   UNL     1      53.547   8.127   5.650  0.00  0.00    +0.000 S 
ATOM     28  C   UNL     1      53.678   6.632   6.452  0.00  0.00    +0.000 A 
ATOM     29  N   UNL     1      53.875   5.477   5.762  0.00  0.00    +0.000 NA
ATOM     30  C   UNL     1      53.941   4.418   6.499  0.00  0.00    +0.000 A 
ATOM     31  N   UNL     1      53.834   4.409   7.866  0.00  0.00    +0.000 N 
ATOM     32  C   UNL     1      53.624   5.548   8.604  0.00  0.00    +0.000 A 
ATOM     33  O   UNL     1      53.532   5.508   9.826  0.00  0.00    +0.000 OA
ATOM     34  C   UNL     1      53.548   6.767   7.822  0.00  0.00    +0.000 A 
ATOM     35  H   UNL     1      53.899   3.547   8.387  0.00  0.00    +0.000 HD
ENDBRANCH  22  25
ENDBRANCH  20  21
ENDBRANCH   4  20
TORSDOF 7
ENDMDL
MODEL 7
REMARK VINA RESULT:    -6.198      4.171      5.544
REMARK INTER + INTRA:         -10.068
REMARK INTER:                  -9.303
REMARK INTRA:                  -0.765
REMARK UNBOUND:                -1.334
REMARK  Name = 
REMARK  7 active torsions:
REMARK  status: ('A' for Active; 'I' for Inactive)
REMARK    1  A    between atoms: C_2  and  C_3
REMARK    2  A    between atoms: C_7  and  C_8
REMARK    3  A    between atoms: N_10  and  C_11
REMARK    4  A    between atoms: C_11  and  C_12
REMARK    5  A    between atoms: C_15  and  C_16
REMARK    6  A    between atoms: C_16  and  N_17
REMARK    7  A    between atoms: C_18  and  C_20
REMARK                            x       y       z     vdW  Elec       q    Type
REMARK                         _______ _______ _______ _____ _____    ______ ____
ROOT
ATOM      1  C   UNL     1      50.680   8.389  12.730  0.00  0.00    +0.000 A 
ATOM      2  C   UNL     1      50.034   8.914  13.858  0.00  0.00    +0.000 A 
ATOM      3  C   UNL     1      48.641   8.806  14.004  0.00  0.00    +0.000 A 
ATOM      4  C   UNL     1      47.853   8.167  13.031  0.00  0.00    +0.000 A 
ATOM      5  C   UNL     1      48.512   7.659  11.904  0.00  0.00    +0.000 A 
ATOM      6  F   UNL     1      47.823   7.059  10.923  0.00  0.00    +0.000 F 
ATOM      7  C   UNL     1      49.898   7.758  11.755  0.00  0.00    +0.000 A 
ENDROOT
BRANCH   1   8
ATOM      8  C   UNL     1      52.173   8.493  12.548  0.00  0.00    +0.000 C 
BRANCH   8  11
ATOM      9  C   UNL     1      53.416   8.373  10.437  0.00  0.00    +0.000 C 
ATOM     10  O   UNL     1      53.716   9.561  10.496  0.00  0.00    +0.000 OA
ATOM     11  N   UNL     1      52.645   7.751  11.395  0.00  0.00    +0.000 N 
ATOM     12  H   UNL     1      52.249   6.837  11.218  0.00  0.00    +0.000 HD
BRANCH   9  17
ATOM     13  C   UNL     1      53.534   5.996   9.542  0.00  0.00    +0.000 C 
ATOM     14  C   UNL     1      53.526   5.394   8.124  0.00  0.00    +0.000 C 
ATOM     15  C   UNL     1      53.305   6.554   7.146  0.00  0.00    +0.000 C 
ATOM     16  C   UNL     1      53.176   7.811   7.991  0.00  0.00    +0.000 C 
ATOM     17  C   UNL     1      53.892   7.478   9.302  0.00  0.00    +0.000 C 
BRANCH  13  19
ATOM     18  N   UNL     1      55.265   4.800  11.168  0.00  0.00    +0.000 NA
ATOM     19  C   UNL     1      54.527   5.321  10.452  0.00  0.00    +0.000 C 
ENDBRANCH  13  19
ENDBRANCH   9  17
ENDBRANCH   8  11
ENDBRANCH   1   8
BRANCH   4  20
ATOM     20  C   UNL     1      46.364   8.023  13.241  0.00  0.00    +0.000 C 
BRANCH  20  21
ATOM     21  N   UNL     1      45.850   6.736  12.835  0.00  0.00    +0.000 N 
ATOM     22  C   UNL     1      44.844   6.598  11.908  0.00  0.00    +0.000 C 
ATOM     23  O   UNL     1      44.338   7.545  11.316  0.00  0.00    +0.000 OA
ATOM     24  H   UNL     1      46.026   5.959  13.463  0.00  0.00    +0.000 HD
BRANCH  22  25
ATOM     25  C   UNL     1      44.471   5.212  11.601  0.00  0.00    +0.000 A 
ATOM     26  C   UNL     1      43.720   4.464  12.497  0.00  0.00    +0.000 A 
ATOM     27  S   UNL     1      43.377   2.886  11.944  0.00  0.00    +0.000 S 
ATOM     28  C   UNL     1      44.247   3.140  10.503  0.00  0.00    +0.000 A 
ATOM     29  N   UNL     1      44.379   2.153   9.576  0.00  0.00    +0.000 NA
ATOM     30  C   UNL     1      45.077   2.482   8.540  0.00  0.00    +0.000 A 
ATOM     31  N   UNL     1      45.651   3.712   8.343  0.00  0.00    +0.000 N 
ATOM     32  C   UNL     1      45.554   4.734   9.256  0.00  0.00    +0.000 A 
ATOM     33  O   UNL     1      46.080   5.823   9.051  0.00  0.00    +0.000 OA
ATOM     34  C   UNL     1      44.774   4.416  10.435  0.00  0.00    +0.000 A 
ATOM     35  H   UNL     1      46.182   3.910   7.508  0.00  0.00    +0.000 HD
ENDBRANCH  22  25
ENDBRANCH  20  21
ENDBRANCH   4  20
TORSDOF 7
ENDMDL
MODEL 8
REMARK VINA RESULT:    -6.122      4.338      6.630
REMARK INTER + INTRA:          -9.961
REMARK INTER:                  -9.151
REMARK INTRA:                  -0.810
REMARK UNBOUND:                -1.334
REMARK  Name = 
REMARK  7 active torsions:
REMARK  status: ('A' for Active; 'I' for Inactive)
REMARK    1  A    between atoms: C_2  and  C_3
REMARK    2  A    between atoms: C_7  and  C_8
REMARK    3  A    between atoms: N_10  and  C_11
REMARK    4  A    between atoms: C_11  and  C_12
REMARK    5  A    between atoms: C_15  and  C_16
REMARK    6  A    between atoms: C_16  and  N_17
REMARK    7  A    between atoms: C_18  and  C_20
REMARK                            x       y       z     vdW  Elec       q    Type
REMARK                         _______ _______ _______ _____ _____    ______ ____
ROOT
ATOM      1  C   UNL     1      50.702   8.734  11.397  0.00  0.00    +0.000 A 
ATOM      2  C   UNL     1      49.739   9.752  11.378  0.00  0.00    +0.000 A 
ATOM      3  C   UNL     1      48.436   9.518  11.848  0.00  0.00    +0.000 A 
ATOM      4  C   UNL     1      48.058   8.264  12.356  0.00  0.00    +0.000 A 
ATOM      5  C   UNL     1      49.028   7.253  12.357  0.00  0.00    +0.000 A 
ATOM      6  F   UNL     1      48.734   6.024  12.804  0.00  0.00    +0.000 F 
ATOM      7  C   UNL     1      50.328   7.480  11.896  0.00  0.00    +0.000 A 
ENDROOT
BRANCH   1   8
ATOM      8  C   UNL     1      52.107   8.958  10.897  0.00  0.00    +0.000 C 
BRANCH   8  11
ATOM      9  C   UNL     1      53.091   7.341   9.336  0.00  0.00    +0.000 C 
ATOM     10  O   UNL     1      53.669   6.752  10.245  0.00  0.00    +0.000 OA
ATOM     11  N   UNL     1      52.304   8.452   9.552  0.00  0.00    +0.000 N 
ATOM     12  H   UNL     1      52.011   9.029   8.774  0.00  0.00    +0.000 HD
BRANCH   9  17
ATOM     13  C   UNL     1      54.356   7.540   7.139  0.00  0.00    +0.000 C 
ATOM     14  C   UNL     1      54.649   6.557   5.991  0.00  0.00    +0.000 C 
ATOM     15  C   UNL     1      54.095   5.192   6.416  0.00  0.00    +0.000 C 
ATOM     16  C   UNL     1      53.498   5.383   7.801  0.00  0.00    +0.000 C 
ATOM     17  C   UNL     1      53.181   6.878   7.890  0.00  0.00    +0.000 C 
BRANCH  13  19
ATOM     18  N   UNL     1      53.747   9.984   6.285  0.00  0.00    +0.000 NA
ATOM     19  C   UNL     1      53.998   8.918   6.647  0.00  0.00    +0.000 C 
ENDBRANCH  13  19
ENDBRANCH   9  17
ENDBRANCH   8  11
ENDBRANCH   1   8
BRANCH   4  20
ATOM     20  C   UNL     1      46.664   8.058  12.901  0.00  0.00    +0.000 C 
BRANCH  20  21
ATOM     21  N   UNL     1      46.100   6.774  12.560  0.00  0.00    +0.000 N 
ATOM     22  C   UNL     1      45.002   6.639  11.743  0.00  0.00    +0.000 C 
ATOM     23  O   UNL     1      44.446   7.587  11.200  0.00  0.00    +0.000 OA
ATOM     24  H   UNL     1      46.332   5.999  13.173  0.00  0.00    +0.000 HD
BRANCH  22  25
ATOM     25  C   UNL     1      44.587   5.254  11.486  0.00  0.00    +0.000 A 
ATOM     26  C   UNL     1      43.835   4.555  12.420  0.00  0.00    +0.000 A 
ATOM     27  S   UNL     1      43.439   2.970  11.922  0.00  0.00    +0.000 S 
ATOM     28  C   UNL     1      44.287   3.156  10.459  0.00  0.00    +0.000 A 
ATOM     29  N   UNL     1      44.375   2.139   9.560  0.00  0.00    +0.000 NA
ATOM     30  C   UNL     1      45.060   2.417   8.502  0.00  0.00    +0.000 A 
ATOM     31  N   UNL     1      45.663   3.624   8.256  0.00  0.00    +0.000 N 
ATOM     32  C   UNL     1      45.611   4.675   9.137  0.00  0.00    +0.000 A 
ATOM     33  O   UNL     1      46.161   5.743   8.889  0.00  0.00    +0.000 OA
ATOM     34  C   UNL     1      44.846   4.415  10.341  0.00  0.00    +0.000 A 
ATOM     35  H   UNL     1      46.182   3.782   7.405  0.00  0.00    +0.000 HD
ENDBRANCH  22  25
ENDBRANCH  20  21
ENDBRANCH   4  20
TORSDOF 7
ENDMDL
MODEL 9
REMARK VINA RESULT:    -5.933      2.968      9.369
REMARK INTER + INTRA:          -9.695
REMARK INTER:                  -9.284
REMARK INTRA:                  -0.411
REMARK UNBOUND:                -1.334
REMARK  Name = 
REMARK  7 active torsions:
REMARK  status: ('A' for Active; 'I' for Inactive)
REMARK    1  A    between atoms: C_2  and  C_3
REMARK    2  A    between atoms: C_7  and  C_8
REMARK    3  A    between atoms: N_10  and  C_11
REMARK    4  A    between atoms: C_11  and  C_12
REMARK    5  A    between atoms: C_15  and  C_16
REMARK    6  A    between atoms: C_16  and  N_17
REMARK    7  A    between atoms: C_18  and  C_20
REMARK                            x       y       z     vdW  Elec       q    Type
REMARK                         _______ _______ _______ _____ _____    ______ ____
ROOT
ATOM      1  C   UNL     1      44.766   4.334  11.678  0.00  0.00    +0.000 A 
ATOM      2  C   UNL     1      44.971   5.675  11.324  0.00  0.00    +0.000 A 
ATOM      3  C   UNL     1      45.898   6.469  12.020  0.00  0.00    +0.000 A 
ATOM      4  C   UNL     1      46.650   5.946  13.086  0.00  0.00    +0.000 A 
ATOM      5  C   UNL     1      46.425   4.609  13.436  0.00  0.00    +0.000 A 
ATOM      6  F   UNL     1      47.087   4.049  14.458  0.00  0.00    +0.000 F 
ATOM      7  C   UNL     1      45.509   3.812  12.744  0.00  0.00    +0.000 A 
ENDROOT
BRANCH   1   8
ATOM      8  C   UNL     1      43.777   3.461  10.948  0.00  0.00    +0.000 C 
BRANCH   8  11
ATOM      9  C   UNL     1      44.666   3.063   8.697  0.00  0.00    +0.000 C 
ATOM     10  O   UNL     1      44.354   4.192   8.328  0.00  0.00    +0.000 OA
ATOM     11  N   UNL     1      44.412   2.600   9.970  0.00  0.00    +0.000 N 
ATOM     12  H   UNL     1      44.494   1.614  10.180  0.00  0.00    +0.000 HD
BRANCH   9  17
ATOM     13  C   UNL     1      46.810   2.553   7.429  0.00  0.00    +0.000 C 
ATOM     14  C   UNL     1      47.535   1.247   7.052  0.00  0.00    +0.000 C 
ATOM     15  C   UNL     1      46.759   0.098   7.707  0.00  0.00    +0.000 C 
ATOM     16  C   UNL     1      45.605   0.735   8.464  0.00  0.00    +0.000 C 
ATOM     17  C   UNL     1      45.382   2.084   7.778  0.00  0.00    +0.000 C 
BRANCH  13  19
ATOM     18  N   UNL     1      46.833   4.317   5.441  0.00  0.00    +0.000 NA
ATOM     19  C   UNL     1      46.812   3.561   6.310  0.00  0.00    +0.000 C 
ENDBRANCH  13  19
ENDBRANCH   9  17
ENDBRANCH   8  11
ENDBRANCH   1   8
BRANCH   4  20
ATOM     20  C   UNL     1      47.674   6.811  13.782  0.00  0.00    +0.000 C 
BRANCH  20  21
ATOM     21  N   UNL     1      48.271   6.177  14.935  0.00  0.00    +0.000 N 
ATOM     22  C   UNL     1      48.816   6.892  15.975  0.00  0.00    +0.000 C 
ATOM     23  O   UNL     1      48.797   8.117  16.034  0.00  0.00    +0.000 OA
ATOM     24  H   UNL     1      48.556   5.210  14.824  0.00  0.00    +0.000 HD
BRANCH  22  25
ATOM     25  C   UNL     1      49.351   6.077  17.073  0.00  0.00    +0.000 A 
ATOM     26  C   UNL     1      48.499   5.486  17.996  0.00  0.00    +0.000 A 
ATOM     27  S   UNL     1      49.316   4.565  19.179  0.00  0.00    +0.000 S 
ATOM     28  C   UNL     1      50.834   4.953  18.516  0.00  0.00    +0.000 A 
ATOM     29  N   UNL     1      51.987   4.502  19.081  0.00  0.00    +0.000 NA
ATOM     30  C   UNL     1      53.063   4.887  18.480  0.00  0.00    +0.000 A 
ATOM     31  N   UNL     1      53.094   5.678  17.360  0.00  0.00    +0.000 N 
ATOM     32  C   UNL     1      51.957   6.165  16.762  0.00  0.00    +0.000 A 
ATOM     33  O   UNL     1      52.017   6.871  15.761  0.00  0.00    +0.000 OA
ATOM     34  C   UNL     1      50.720   5.756  17.397  0.00  0.00    +0.000 A 
ATOM     35  H   UNL     1      53.969   5.940  16.933  0.00  0.00    +0.000 HD
ENDBRANCH  22  25
ENDBRANCH  20  21
ENDBRANCH   4  20
TORSDOF 7
ENDMDL
