MODEL 1
REMARK VINA RESULT:    -7.421      0.000      0.000
REMARK INTER + INTRA:         -11.282
REMARK INTER:                 -10.241
REMARK INTRA:                  -1.041
REMARK UNBOUND:                -1.041
REMARK  Name = 
REMARK  7 active torsions:
REMARK  status: ('A' for Active; 'I' for Inactive)
REMARK    1  A    between atoms: C_2  and  C_21
REMARK    2  A    between atoms: N_3  and  C_4
REMARK    3  A    between atoms: C_4  and  C_5
REMARK    4  A    between atoms: C_8  and  C_9
REMARK    5  A    between atoms: C_9  and  N_10
REMARK    6  A    between atoms: C_11  and  C_13
REMARK    7  A    between atoms: C_16  and  O_17
REMARK                            x       y       z     vdW  Elec       q    Type
REMARK                         _______ _______ _______ _____ _____    ______ ____
ROOT
ATOM      1  C   UNL     1      48.667   3.609  17.044  0.00  0.00    +0.000 A 
ATOM      2  C   UNL     1      49.568   2.536  17.090  0.00  0.00    +0.000 A 
ATOM      3  C   UNL     1      50.906   2.738  17.453  0.00  0.00    +0.000 A 
ATOM      4  C   UNL     1      51.367   4.016  17.800  0.00  0.00    +0.000 A 
ATOM      5  C   UNL     1      50.460   5.084  17.773  0.00  0.00    +0.000 A 
ATOM      6  C   UNL     1      49.123   4.882  17.409  0.00  0.00    +0.000 A 
ENDROOT
BRANCH   1   7
ATOM      7  C   UNL     1      47.242   3.395  16.602  0.00  0.00    +0.000 C 
BRANCH   7  10
ATOM      8  O   UNL     1      47.220   3.160  13.851  0.00  0.00    +0.000 OA
ATOM      9  C   UNL     1      46.752   4.185  14.344  0.00  0.00    +0.000 C 
ATOM     10  N   UNL     1      46.782   4.419  15.699  0.00  0.00    +0.000 N 
ATOM     11  H   UNL     1      46.206   5.157  16.090  0.00  0.00    +0.000 HD
BRANCH   9  12
ATOM     12  C   UNL     1      46.165   5.235  13.500  0.00  0.00    +0.000 A 
ATOM     13  C   UNL     1      46.893   6.387  13.228  0.00  0.00    +0.000 A 
ATOM     14  S   UNL     1      46.060   7.504  12.243  0.00  0.00    +0.000 S 
ATOM     15  C   UNL     1      44.719   6.469  12.107  0.00  0.00    +0.000 A 
ATOM     16  N   UNL     1      43.640   6.813  11.352  0.00  0.00    +0.000 NA
ATOM     17  C   UNL     1      42.715   5.916  11.304  0.00  0.00    +0.000 A 
ATOM     18  N   UNL     1      42.761   4.712  11.952  0.00  0.00    +0.000 N 
ATOM     19  C   UNL     1      43.814   4.330  12.756  0.00  0.00    +0.000 A 
ATOM     20  O   UNL     1      43.803   3.266  13.363  0.00  0.00    +0.000 OA
ATOM     21  C   UNL     1      44.893   5.296  12.823  0.00  0.00    +0.000 A 
ATOM     22  H   UNL     1      41.995   4.054  11.889  0.00  0.00    +0.000 HD
ENDBRANCH   9  12
ENDBRANCH   7  10
ENDBRANCH   1   7
BRANCH   4  23
ATOM     23  C   UNL     1      52.808   4.243  18.184  0.00  0.00    +0.000 C 
BRANCH  23  24
ATOM     24  N   UNL     1      53.642   3.100  17.895  0.00  0.00    +0.000 N 
ATOM     25  C   UNL     1      54.188   2.344  18.904  0.00  0.00    +0.000 C 
ATOM     26  O   UNL     1      53.959   2.563  20.092  0.00  0.00    +0.000 OA
ATOM     27  H   UNL     1      54.050   3.020  16.963  0.00  0.00    +0.000 HD
BRANCH  25  28
ATOM     28  C   UNL     1      55.060   1.162  18.474  0.00  0.00    +0.000 C 
ATOM     29  C   UNL     1      55.323   0.185  19.632  0.00  0.00    +0.000 C 
ATOM     30  C   UNL     1      54.921  -1.196  19.118  0.00  0.00    +0.000 C 
ATOM     31  C   UNL     1      53.880  -0.904  18.048  0.00  0.00    +0.000 C 
ATOM     32  C   UNL     1      54.449   0.320  17.342  0.00  0.00    +0.000 C 
BRANCH  31  33
ATOM     33  O   UNL     1      52.635  -0.549  18.645  0.00  0.00    +0.000 OA
ATOM     34  H   UNL     1      52.098  -1.358  18.727  0.00  0.00    +0.000 HD
ENDBRANCH  31  33
ENDBRANCH  25  28
ENDBRANCH  23  24
ENDBRANCH   4  23
TORSDOF 7
ENDMDL
MODEL 2
REMARK VINA RESULT:    -7.317      1.793      2.632
REMARK INTER + INTRA:         -11.139
REMARK INTER:                  -9.950
REMARK INTRA:                  -1.189
REMARK UNBOUND:                -1.041
REMARK  Name = 
REMARK  7 active torsions:
REMARK  status: ('A' for Active; 'I' for Inactive)
REMARK    1  A    between atoms: C_2  and  C_21
REMARK    2  A    between atoms: N_3  and  C_4
REMARK    3  A    between atoms: C_4  and  C_5
REMARK    4  A    between atoms: C_8  and  C_9
REMARK    5  A    between atoms: C_9  and  N_10
REMARK    6  A    between atoms: C_11  and  C_13
REMARK    7  A    between atoms: C_16  and  O_17
REMARK                            x       y       z     vdW  Elec       q    Type
REMARK                         _______ _______ _______ _____ _____    ______ ____
ROOT
ATOM      1  C   UNL     1      48.742   6.439  15.632  0.00  0.00    +0.000 A 
ATOM      2  C   UNL     1      47.929   5.339  15.938  0.00  0.00    +0.000 A 
ATOM      3  C   UNL     1      48.376   4.337  16.810  0.00  0.00    +0.000 A 
ATOM      4  C   UNL     1      49.638   4.426  17.413  0.00  0.00    +0.000 A 
ATOM      5  C   UNL     1      50.441   5.537  17.122  0.00  0.00    +0.000 A 
ATOM      6  C   UNL     1      49.995   6.537  16.250  0.00  0.00    +0.000 A 
ENDROOT
BRANCH   1   7
ATOM      7  C   UNL     1      48.277   7.487  14.653  0.00  0.00    +0.000 C 
BRANCH   7  10
ATOM      8  O   UNL     1      47.989   6.541  12.076  0.00  0.00    +0.000 OA
ATOM      9  C   UNL     1      46.978   6.630  12.772  0.00  0.00    +0.000 C 
ATOM     10  N   UNL     1      47.016   7.153  14.043  0.00  0.00    +0.000 N 
ATOM     11  H   UNL     1      46.223   7.015  14.661  0.00  0.00    +0.000 HD
BRANCH   9  12
ATOM     12  C   UNL     1      45.666   6.208  12.263  0.00  0.00    +0.000 A 
ATOM     13  C   UNL     1      44.830   7.141  11.661  0.00  0.00    +0.000 A 
ATOM     14  S   UNL     1      43.344   6.488  11.136  0.00  0.00    +0.000 S 
ATOM     15  C   UNL     1      43.784   4.929  11.652  0.00  0.00    +0.000 A 
ATOM     16  N   UNL     1      42.954   3.867  11.463  0.00  0.00    +0.000 NA
ATOM     17  C   UNL     1      43.433   2.738  11.864  0.00  0.00    +0.000 A 
ATOM     18  N   UNL     1      44.659   2.575  12.450  0.00  0.00    +0.000 N 
ATOM     19  C   UNL     1      45.521   3.622  12.694  0.00  0.00    +0.000 A 
ATOM     20  O   UNL     1      46.591   3.449  13.265  0.00  0.00    +0.000 OA
ATOM     21  C   UNL     1      45.038   4.911  12.238  0.00  0.00    +0.000 A 
ATOM     22  H   UNL     1      44.973   1.664  12.759  0.00  0.00    +0.000 HD
ENDBRANCH   9  12
ENDBRANCH   7  10
ENDBRANCH   1   7
BRANCH   4  23
ATOM     23  C   UNL     1      50.130   3.347  18.346  0.00  0.00    +0.000 C 
BRANCH  23  24
ATOM     24  N   UNL     1      51.533   3.060  18.165  0.00  0.00    +0.000 N 
ATOM     25  C   UNL     1      51.954   1.839  17.696  0.00  0.00    +0.000 C 
ATOM     26  O   UNL     1      51.171   0.953  17.361  0.00  0.00    +0.000 OA
ATOM     27  H   UNL     1      52.215   3.650  18.641  0.00  0.00    +0.000 HD
BRANCH  25  28
ATOM     28  C   UNL     1      53.467   1.650  17.554  0.00  0.00    +0.000 C 
ATOM     29  C   UNL     1      54.188   1.712  18.910  0.00  0.00    +0.000 C 
ATOM     30  C   UNL     1      55.031   0.442  18.998  0.00  0.00    +0.000 C 
ATOM     31  C   UNL     1      54.299  -0.551  18.109  0.00  0.00    +0.000 C 
ATOM     32  C   UNL     1      53.866   0.305  16.925  0.00  0.00    +0.000 C 
BRANCH  31  33
ATOM     33  O   UNL     1      53.133  -1.045  18.765  0.00  0.00    +0.000 OA
ATOM     34  H   UNL     1      52.415  -0.399  18.632  0.00  0.00    +0.000 HD
ENDBRANCH  31  33
ENDBRANCH  25  28
ENDBRANCH  23  24
ENDBRANCH   4  23
TORSDOF 7
ENDMDL
MODEL 3
REMARK VINA RESULT:    -7.313      2.999     10.051
REMARK INTER + INTRA:         -11.133
REMARK INTER:                  -9.987
REMARK INTRA:                  -1.145
REMARK UNBOUND:                -1.041
REMARK  Name = 
REMARK  7 active torsions:
REMARK  status: ('A' for Active; 'I' for Inactive)
REMARK    1  A    between atoms: C_2  and  C_21
REMARK    2  A    between atoms: N_3  and  C_4
REMARK    3  A    between atoms: C_4  and  C_5
REMARK    4  A    between atoms: C_8  and  C_9
REMARK    5  A    between atoms: C_9  and  N_10
REMARK    6  A    between atoms: C_11  and  C_13
REMARK    7  A    between atoms: C_16  and  O_17
REMARK                            x       y       z     vdW  Elec       q    Type
REMARK                         _______ _______ _______ _____ _____    ______ ____
ROOT
ATOM      1  C   UNL     1      48.075   5.130  16.017  0.00  0.00    +0.000 A 
ATOM      2  C   UNL     1      48.616   6.315  15.499  0.00  0.00    +0.000 A 
ATOM      3  C   UNL     1      48.271   6.760  14.216  0.00  0.00    +0.000 A 
ATOM      4  C   UNL     1      47.358   6.042  13.432  0.00  0.00    +0.000 A 
ATOM      5  C   UNL     1      46.802   4.869  13.960  0.00  0.00    +0.000 A 
ATOM      6  C   UNL     1      47.148   4.423  15.242  0.00  0.00    +0.000 A 
ENDROOT
BRANCH   1   7
ATOM      7  C   UNL     1      48.490   4.629  17.377  0.00  0.00    +0.000 C 
BRANCH   7  10
ATOM      8  O   UNL     1      50.132   4.853  19.585  0.00  0.00    +0.000 OA
ATOM      9  C   UNL     1      50.589   4.306  18.582  0.00  0.00    +0.000 C 
ATOM     10  N   UNL     1      49.867   4.210  17.415  0.00  0.00    +0.000 N 
ATOM     11  H   UNL     1      50.179   3.575  16.688  0.00  0.00    +0.000 HD
BRANCH   9  12
ATOM     12  C   UNL     1      51.950   3.754  18.571  0.00  0.00    +0.000 A 
ATOM     13  C   UNL     1      52.989   4.473  19.150  0.00  0.00    +0.000 A 
ATOM     14  S   UNL     1      54.503   3.694  19.041  0.00  0.00    +0.000 S 
ATOM     15  C   UNL     1      53.816   2.349  18.260  0.00  0.00    +0.000 A 
ATOM     16  N   UNL     1      54.577   1.275  17.911  0.00  0.00    +0.000 NA
ATOM     17  C   UNL     1      53.919   0.310  17.365  0.00  0.00    +0.000 A 
ATOM     18  N   UNL     1      52.572   0.324  17.121  0.00  0.00    +0.000 N 
ATOM     19  C   UNL     1      51.764   1.399  17.422  0.00  0.00    +0.000 A 
ATOM     20  O   UNL     1      50.571   1.400  17.145  0.00  0.00    +0.000 OA
ATOM     21  C   UNL     1      52.454   2.502  18.062  0.00  0.00    +0.000 A 
ATOM     22  H   UNL     1      52.115  -0.459  16.672  0.00  0.00    +0.000 HD
ENDBRANCH   9  12
ENDBRANCH   7  10
ENDBRANCH   1   7
BRANCH   4  23
ATOM     23  C   UNL     1      46.988   6.511  12.046  0.00  0.00    +0.000 C 
BRANCH  23  24
ATOM     24  N   UNL     1      46.027   5.642  11.410  0.00  0.00    +0.000 N 
ATOM     25  C   UNL     1      44.705   6.000  11.303  0.00  0.00    +0.000 C 
ATOM     26  O   UNL     1      44.281   7.088  11.690  0.00  0.00    +0.000 OA
ATOM     27  H   UNL     1      46.265   4.656  11.293  0.00  0.00    +0.000 HD
BRANCH  25  28
ATOM     28  C   UNL     1      43.779   4.993  10.616  0.00  0.00    +0.000 C 
ATOM     29  C   UNL     1      44.549   4.042   9.684  0.00  0.00    +0.000 C 
ATOM     30  C   UNL     1      44.152   2.628  10.103  0.00  0.00    +0.000 C 
ATOM     31  C   UNL     1      43.766   2.771  11.568  0.00  0.00    +0.000 C 
ATOM     32  C   UNL     1      43.008   4.092  11.594  0.00  0.00    +0.000 C 
BRANCH  31  33
ATOM     33  O   UNL     1      44.930   2.896  12.382  0.00  0.00    +0.000 OA
ATOM     34  H   UNL     1      44.653   2.837  13.315  0.00  0.00    +0.000 HD
ENDBRANCH  31  33
ENDBRANCH  25  28
ENDBRANCH  23  24
ENDBRANCH   4  23
TORSDOF 7
ENDMDL
MODEL 4
REMARK VINA RESULT:    -7.200      4.511      9.772
REMARK INTER + INTRA:         -10.976
REMARK INTER:                  -9.667
REMARK INTRA:                  -1.309
REMARK UNBOUND:                -1.041
REMARK  Name = 
REMARK  7 active torsions:
REMARK  status: ('A' for Active; 'I' for Inactive)
REMARK    1  A    between atoms: C_2  and  C_21
REMARK    2  A    between atoms: N_3  and  C_4
REMARK    3  A    between atoms: C_4  and  C_5
REMARK    4  A    between atoms: C_8  and  C_9
REMARK    5  A    between atoms: C_9  and  N_10
REMARK    6  A    between atoms: C_11  and  C_13
REMARK    7  A    between atoms: C_16  and  O_17
REMARK                            x       y       z     vdW  Elec       q    Type
REMARK                         _______ _______ _______ _____ _____    ______ ____
ROOT
ATOM      1  C   UNL     1      46.446   7.369  12.808  0.00  0.00    +0.000 A 
ATOM      2  C   UNL     1      45.299   7.880  12.185  0.00  0.00    +0.000 A 
ATOM      3  C   UNL     1      44.511   7.069  11.356  0.00  0.00    +0.000 A 
ATOM      4  C   UNL     1      44.841   5.723  11.151  0.00  0.00    +0.000 A 
ATOM      5  C   UNL     1      45.977   5.208  11.791  0.00  0.00    +0.000 A 
ATOM      6  C   UNL     1      46.765   6.019  12.618  0.00  0.00    +0.000 A 
ENDROOT
BRANCH   1   7
ATOM      7  C   UNL     1      47.318   8.259  13.655  0.00  0.00    +0.000 C 
BRANCH   7  10
ATOM      8  O   UNL     1      49.881   7.371  14.170  0.00  0.00    +0.000 OA
ATOM      9  C   UNL     1      49.047   7.271  15.068  0.00  0.00    +0.000 C 
ATOM     10  N   UNL     1      47.731   7.624  14.880  0.00  0.00    +0.000 N 
ATOM     11  H   UNL     1      47.126   7.734  15.687  0.00  0.00    +0.000 HD
BRANCH   9  12
ATOM     12  C   UNL     1      49.411   6.733  16.387  0.00  0.00    +0.000 A 
ATOM     13  C   UNL     1      50.254   7.461  17.218  0.00  0.00    +0.000 A 
ATOM     14  S   UNL     1      50.581   6.689  18.704  0.00  0.00    +0.000 S 
ATOM     15  C   UNL     1      49.572   5.379  18.309  0.00  0.00    +0.000 A 
ATOM     16  N   UNL     1      49.375   4.356  19.184  0.00  0.00    +0.000 NA
ATOM     17  C   UNL     1      48.553   3.452  18.771  0.00  0.00    +0.000 A 
ATOM     18  N   UNL     1      47.921   3.468  17.557  0.00  0.00    +0.000 N 
ATOM     19  C   UNL     1      48.114   4.461  16.622  0.00  0.00    +0.000 A 
ATOM     20  O   UNL     1      47.571   4.420  15.524  0.00  0.00    +0.000 OA
ATOM     21  C   UNL     1      49.012   5.517  17.049  0.00  0.00    +0.000 A 
ATOM     22  H   UNL     1      47.298   2.719  17.283  0.00  0.00    +0.000 HD
ENDBRANCH   9  12
ENDBRANCH   7  10
ENDBRANCH   1   7
BRANCH   4  23
ATOM     23  C   UNL     1      44.003   4.846  10.254  0.00  0.00    +0.000 C 
BRANCH  23  24
ATOM     24  N   UNL     1      44.590   4.675   8.947  0.00  0.00    +0.000 N 
ATOM     25  C   UNL     1      45.251   3.518   8.609  0.00  0.00    +0.000 C 
ATOM     26  O   UNL     1      45.333   2.557   9.372  0.00  0.00    +0.000 OA
ATOM     27  H   UNL     1      44.759   5.505   8.377  0.00  0.00    +0.000 HD
BRANCH  25  28
ATOM     28  C   UNL     1      45.839   3.457   7.197  0.00  0.00    +0.000 C 
ATOM     29  C   UNL     1      47.352   3.728   7.188  0.00  0.00    +0.000 C 
ATOM     30  C   UNL     1      47.986   2.558   6.439  0.00  0.00    +0.000 C 
ATOM     31  C   UNL     1      47.006   1.414   6.642  0.00  0.00    +0.000 C 
ATOM     32  C   UNL     1      45.650   2.097   6.506  0.00  0.00    +0.000 C 
BRANCH  31  33
ATOM     33  O   UNL     1      47.120   0.885   7.961  0.00  0.00    +0.000 OA
ATOM     34  H   UNL     1      46.228   0.857   8.354  0.00  0.00    +0.000 HD
ENDBRANCH  31  33
ENDBRANCH  25  28
ENDBRANCH  23  24
ENDBRANCH   4  23
TORSDOF 7
ENDMDL
MODEL 5
REMARK VINA RESULT:    -7.184      3.096      9.870
REMARK INTER + INTRA:         -10.955
REMARK INTER:                  -9.865
REMARK INTRA:                  -1.090
REMARK UNBOUND:                -1.041
REMARK  Name = 
REMARK  7 active torsions:
REMARK  status: ('A' for Active; 'I' for Inactive)
REMARK    1  A    between atoms: C_2  and  C_21
REMARK    2  A    between atoms: N_3  and  C_4
REMARK    3  A    between atoms: C_4  and  C_5
REMARK    4  A    between atoms: C_8  and  C_9
REMARK    5  A    between atoms: C_9  and  N_10
REMARK    6  A    between atoms: C_11  and  C_13
REMARK    7  A    between atoms: C_16  and  O_17
REMARK                            x       y       z     vdW  Elec       q    Type
REMARK                         _______ _______ _______ _____ _____    ______ ____
ROOT
ATOM      1  C   UNL     1      47.915   4.267  16.527  0.00  0.00    +0.000 A 
ATOM      2  C   UNL     1      47.163   3.656  15.514  0.00  0.00    +0.000 A 
ATOM      3  C   UNL     1      46.917   4.320  14.305  0.00  0.00    +0.000 A 
ATOM      4  C   UNL     1      47.437   5.600  14.073  0.00  0.00    +0.000 A 
ATOM      5  C   UNL     1      48.207   6.201  15.079  0.00  0.00    +0.000 A 
ATOM      6  C   UNL     1      48.452   5.538  16.289  0.00  0.00    +0.000 A 
ENDROOT
BRANCH   1   7
ATOM      7  C   UNL     1      48.132   3.570  17.846  0.00  0.00    +0.000 C 
BRANCH   7  10
ATOM      8  O   UNL     1      49.637   1.717  16.458  0.00  0.00    +0.000 OA
ATOM      9  C   UNL     1      50.205   2.393  17.316  0.00  0.00    +0.000 C 
ATOM     10  N   UNL     1      49.522   3.291  18.102  0.00  0.00    +0.000 N 
ATOM     11  H   UNL     1      50.042   3.977  18.639  0.00  0.00    +0.000 HD
BRANCH   9  12
ATOM     12  C   UNL     1      51.645   2.247  17.567  0.00  0.00    +0.000 A 
ATOM     13  C   UNL     1      52.203   0.978  17.664  0.00  0.00    +0.000 A 
ATOM     14  S   UNL     1      53.881   0.990  17.967  0.00  0.00    +0.000 S 
ATOM     15  C   UNL     1      53.931   2.689  17.931  0.00  0.00    +0.000 A 
ATOM     16  N   UNL     1      55.105   3.360  18.089  0.00  0.00    +0.000 NA
ATOM     17  C   UNL     1      55.002   4.643  17.997  0.00  0.00    +0.000 A 
ATOM     18  N   UNL     1      53.832   5.317  17.776  0.00  0.00    +0.000 N 
ATOM     19  C   UNL     1      52.614   4.688  17.644  0.00  0.00    +0.000 A 
ATOM     20  O   UNL     1      51.578   5.324  17.496  0.00  0.00    +0.000 OA
ATOM     21  C   UNL     1      52.679   3.241  17.715  0.00  0.00    +0.000 A 
ATOM     22  H   UNL     1      53.813   6.328  17.730  0.00  0.00    +0.000 HD
ENDBRANCH   9  12
ENDBRANCH   7  10
ENDBRANCH   1   7
BRANCH   4  23
ATOM     23  C   UNL     1      47.170   6.324  12.777  0.00  0.00    +0.000 C 
BRANCH  23  24
ATOM     24  N   UNL     1      46.238   5.615  11.932  0.00  0.00    +0.000 N 
ATOM     25  C   UNL     1      44.963   6.084  11.729  0.00  0.00    +0.000 C 
ATOM     26  O   UNL     1      44.565   7.145  12.205  0.00  0.00    +0.000 OA
ATOM     27  H   UNL     1      46.428   4.636  11.715  0.00  0.00    +0.000 HD
BRANCH  25  28
ATOM     28  C   UNL     1      44.064   5.241  10.820  0.00  0.00    +0.000 C 
ATOM     29  C   UNL     1      44.875   4.283   9.933  0.00  0.00    +0.000 C 
ATOM     30  C   UNL     1      44.278   2.895  10.156  0.00  0.00    +0.000 C 
ATOM     31  C   UNL     1      43.679   2.970  11.551  0.00  0.00    +0.000 C 
ATOM     32  C   UNL     1      43.061   4.362  11.584  0.00  0.00    +0.000 C 
BRANCH  31  33
ATOM     33  O   UNL     1      44.704   2.902  12.541  0.00  0.00    +0.000 OA
ATOM     34  H   UNL     1      44.725   3.755  13.013  0.00  0.00    +0.000 HD
ENDBRANCH  31  33
ENDBRANCH  25  28
ENDBRANCH  23  24
ENDBRANCH   4  23
TORSDOF 7
ENDMDL
MODEL 6
REMARK VINA RESULT:    -6.954      7.332      8.317
REMARK INTER + INTRA:         -10.638
REMARK INTER:                  -9.451
REMARK INTRA:                  -1.187
REMARK UNBOUND:                -1.041
REMARK  Name = 
REMARK  7 active torsions:
REMARK  status: ('A' for Active; 'I' for Inactive)
REMARK    1  A    between atoms: C_2  and  C_21
REMARK    2  A    between atoms: N_3  and  C_4
REMARK    3  A    between atoms: C_4  and  C_5
REMARK    4  A    between atoms: C_8  and  C_9
REMARK    5  A    between atoms: C_9  and  N_10
REMARK    6  A    between atoms: C_11  and  C_13
REMARK    7  A    between atoms: C_16  and  O_17
REMARK                            x       y       z     vdW  Elec       q    Type
REMARK                         _______ _______ _______ _____ _____    ______ ____
ROOT
ATOM      1  C   UNL     1      47.833   8.472  12.073  0.00  0.00    +0.000 A 
ATOM      2  C   UNL     1      48.307   9.762  11.799  0.00  0.00    +0.000 A 
ATOM      3  C   UNL     1      49.658   9.982  11.501  0.00  0.00    +0.000 A 
ATOM      4  C   UNL     1      50.562   8.912  11.450  0.00  0.00    +0.000 A 
ATOM      5  C   UNL     1      50.082   7.620  11.705  0.00  0.00    +0.000 A 
ATOM      6  C   UNL     1      48.731   7.401  12.003  0.00  0.00    +0.000 A 
ENDROOT
BRANCH   1   7
ATOM      7  C   UNL     1      46.389   8.249  12.444  0.00  0.00    +0.000 C 
BRANCH   7  10
ATOM      8  O   UNL     1      43.995   7.505  11.286  0.00  0.00    +0.000 OA
ATOM      9  C   UNL     1      44.785   6.614  11.598  0.00  0.00    +0.000 C 
ATOM     10  N   UNL     1      45.970   6.886  12.240  0.00  0.00    +0.000 N 
ATOM     11  H   UNL     1      46.686   6.169  12.288  0.00  0.00    +0.000 HD
BRANCH   9  12
ATOM     12  C   UNL     1      44.482   5.202  11.327  0.00  0.00    +0.000 A 
ATOM     13  C   UNL     1      43.681   4.488  12.210  0.00  0.00    +0.000 A 
ATOM     14  S   UNL     1      43.439   2.863  11.752  0.00  0.00    +0.000 S 
ATOM     15  C   UNL     1      44.355   3.068  10.335  0.00  0.00    +0.000 A 
ATOM     16  N   UNL     1      44.519   2.047   9.450  0.00  0.00    +0.000 NA
ATOM     17  C   UNL     1      45.200   2.355   8.400  0.00  0.00    +0.000 A 
ATOM     18  N   UNL     1      45.747   3.586   8.158  0.00  0.00    +0.000 N 
ATOM     19  C   UNL     1      45.640   4.642   9.037  0.00  0.00    +0.000 A 
ATOM     20  O   UNL     1      46.184   5.717   8.814  0.00  0.00    +0.000 OA
ATOM     21  C   UNL     1      44.860   4.353  10.225  0.00  0.00    +0.000 A 
ATOM     22  H   UNL     1      46.287   3.762   7.321  0.00  0.00    +0.000 HD
ENDBRANCH   9  12
ENDBRANCH   7  10
ENDBRANCH   1   7
BRANCH   4  23
ATOM     23  C   UNL     1      52.020   9.141  11.139  0.00  0.00    +0.000 C 
BRANCH  23  24
ATOM     24  N   UNL     1      52.340   8.858   9.760  0.00  0.00    +0.000 N 
ATOM     25  C   UNL     1      53.095   7.764   9.415  0.00  0.00    +0.000 C 
ATOM     26  O   UNL     1      53.492   6.947  10.243  0.00  0.00    +0.000 OA
ATOM     27  H   UNL     1      52.246   9.610   9.075  0.00  0.00    +0.000 HD
BRANCH  25  28
ATOM     28  C   UNL     1      53.375   7.573   7.922  0.00  0.00    +0.000 C 
ATOM     29  C   UNL     1      54.860   7.288   7.643  0.00  0.00    +0.000 C 
ATOM     30  C   UNL     1      54.894   6.011   6.807  0.00  0.00    +0.000 C 
ATOM     31  C   UNL     1      53.617   5.281   7.192  0.00  0.00    +0.000 C 
ATOM     32  C   UNL     1      52.596   6.408   7.290  0.00  0.00    +0.000 C 
BRANCH  31  33
ATOM     33  O   UNL     1      53.753   4.676   8.476  0.00  0.00    +0.000 OA
ATOM     34  H   UNL     1      54.098   3.773   8.349  0.00  0.00    +0.000 HD
ENDBRANCH  31  33
ENDBRANCH  25  28
ENDBRANCH  23  24
ENDBRANCH   4  23
TORSDOF 7
ENDMDL
MODEL 7
REMARK VINA RESULT:    -6.901      4.432      9.382
REMARK INTER + INTRA:         -10.565
REMARK INTER:                  -9.136
REMARK INTRA:                  -1.429
REMARK UNBOUND:                -1.041
REMARK  Name = 
REMARK  7 active torsions:
REMARK  status: ('A' for Active; 'I' for Inactive)
REMARK    1  A    between atoms: C_2  and  C_21
REMARK    2  A    between atoms: N_3  and  C_4
REMARK    3  A    between atoms: C_4  and  C_5
REMARK    4  A    between atoms: C_8  and  C_9
REMARK    5  A    between atoms: C_9  and  N_10
REMARK    6  A    between atoms: C_11  and  C_13
REMARK    7  A    between atoms: C_16  and  O_17
REMARK                            x       y       z     vdW  Elec       q    Type
REMARK                         _______ _______ _______ _____ _____    ______ ____
ROOT
ATOM      1  C   UNL     1      48.615   8.044  13.037  0.00  0.00    +0.000 A 
ATOM      2  C   UNL     1      48.106   6.963  12.303  0.00  0.00    +0.000 A 
ATOM      3  C   UNL     1      46.803   6.995  11.788  0.00  0.00    +0.000 A 
ATOM      4  C   UNL     1      45.988   8.119  11.978  0.00  0.00    +0.000 A 
ATOM      5  C   UNL     1      46.505   9.207  12.694  0.00  0.00    +0.000 A 
ATOM      6  C   UNL     1      47.807   9.174  13.209  0.00  0.00    +0.000 A 
ENDROOT
BRANCH   1   7
ATOM      7  C   UNL     1      49.998   7.982  13.632  0.00  0.00    +0.000 C 
BRANCH   7  10
ATOM      8  O   UNL     1      49.479   8.496  16.295  0.00  0.00    +0.000 OA
ATOM      9  C   UNL     1      49.764   7.342  15.977  0.00  0.00    +0.000 C 
ATOM     10  N   UNL     1      50.103   7.007  14.687  0.00  0.00    +0.000 N 
ATOM     11  H   UNL     1      50.120   6.029  14.415  0.00  0.00    +0.000 HD
BRANCH   9  12
ATOM     12  C   UNL     1      49.789   6.263  16.974  0.00  0.00    +0.000 A 
ATOM     13  C   UNL     1      50.674   6.333  18.043  0.00  0.00    +0.000 A 
ATOM     14  S   UNL     1      50.579   4.997  19.099  0.00  0.00    +0.000 S 
ATOM     15  C   UNL     1      49.320   4.301  18.193  0.00  0.00    +0.000 A 
ATOM     16  N   UNL     1      48.740   3.132  18.580  0.00  0.00    +0.000 NA
ATOM     17  C   UNL     1      47.770   2.742  17.824  0.00  0.00    +0.000 A 
ATOM     18  N   UNL     1      47.337   3.405  16.707  0.00  0.00    +0.000 N 
ATOM     19  C   UNL     1      47.913   4.572  16.254  0.00  0.00    +0.000 A 
ATOM     20  O   UNL     1      47.533   5.114  15.223  0.00  0.00    +0.000 OA
ATOM     21  C   UNL     1      48.993   5.066  17.085  0.00  0.00    +0.000 A 
ATOM     22  H   UNL     1      46.580   3.039  16.144  0.00  0.00    +0.000 HD
ENDBRANCH   9  12
ENDBRANCH   7  10
ENDBRANCH   1   7
BRANCH   4  23
ATOM     23  C   UNL     1      44.581   8.158  11.434  0.00  0.00    +0.000 C 
BRANCH  23  24
ATOM     24  N   UNL     1      44.201   6.918  10.801  0.00  0.00    +0.000 N 
ATOM     25  C   UNL     1      43.698   5.870  11.533  0.00  0.00    +0.000 C 
ATOM     26  O   UNL     1      43.496   5.947  12.744  0.00  0.00    +0.000 OA
ATOM     27  H   UNL     1      44.561   6.718   9.867  0.00  0.00    +0.000 HD
BRANCH  25  28
ATOM     28  C   UNL     1      43.338   4.604  10.752  0.00  0.00    +0.000 C 
ATOM     29  C   UNL     1      44.391   4.264   9.685  0.00  0.00    +0.000 C 
ATOM     30  C   UNL     1      44.790   2.811   9.933  0.00  0.00    +0.000 C 
ATOM     31  C   UNL     1      44.518   2.601  11.415  0.00  0.00    +0.000 C 
ATOM     32  C   UNL     1      43.209   3.349  11.631  0.00  0.00    +0.000 C 
BRANCH  31  33
ATOM     33  O   UNL     1      45.533   3.218  12.203  0.00  0.00    +0.000 OA
ATOM     34  H   UNL     1      45.257   4.135  12.387  0.00  0.00    +0.000 HD
ENDBRANCH  31  33
ENDBRANCH  25  28
ENDBRANCH  23  24
ENDBRANCH   4  23
TORSDOF 7
ENDMDL
MODEL 8
REMARK VINA RESULT:    -6.840      7.029     10.628
REMARK INTER + INTRA:         -10.480
REMARK INTER:                  -9.239
REMARK INTRA:                  -1.241
REMARK UNBOUND:                -1.041
REMARK  Name = 
REMARK  7 active torsions:
REMARK  status: ('A' for Active; 'I' for Inactive)
REMARK    1  A    between atoms: C_2  and  C_21
REMARK    2  A    between atoms: N_3  and  C_4
REMARK    3  A    between atoms: C_4  and  C_5
REMARK    4  A    between atoms: C_8  and  C_9
REMARK    5  A    between atoms: C_9  and  N_10
REMARK    6  A    between atoms: C_11  and  C_13
REMARK    7  A    between atoms: C_16  and  O_17
REMARK                            x       y       z     vdW  Elec       q    Type
REMARK                         _______ _______ _______ _____ _____    ______ ____
ROOT
ATOM      1  C   UNL     1      49.980   8.366  11.968  0.00  0.00    +0.000 A 
ATOM      2  C   UNL     1      49.165   9.481  11.728  0.00  0.00    +0.000 A 
ATOM      3  C   UNL     1      47.784   9.422  11.957  0.00  0.00    +0.000 A 
ATOM      4  C   UNL     1      47.191   8.253  12.453  0.00  0.00    +0.000 A 
ATOM      5  C   UNL     1      48.011   7.146  12.712  0.00  0.00    +0.000 A 
ATOM      6  C   UNL     1      49.391   7.205  12.482  0.00  0.00    +0.000 A 
ENDROOT
BRANCH   1   7
ATOM      7  C   UNL     1      51.457   8.418  11.670  0.00  0.00    +0.000 C 
BRANCH   7  10
ATOM      8  O   UNL     1      53.492   9.514  10.160  0.00  0.00    +0.000 OA
ATOM      9  C   UNL     1      52.835   8.600   9.663  0.00  0.00    +0.000 C 
ATOM     10  N   UNL     1      51.761   8.040  10.314  0.00  0.00    +0.000 N 
ATOM     11  H   UNL     1      51.382   7.160   9.981  0.00  0.00    +0.000 HD
BRANCH   9  12
ATOM     12  C   UNL     1      53.148   8.080   8.324  0.00  0.00    +0.000 A 
ATOM     13  C   UNL     1      53.173   8.947   7.238  0.00  0.00    +0.000 A 
ATOM     14  S   UNL     1      53.543   8.179   5.760  0.00  0.00    +0.000 S 
ATOM     15  C   UNL     1      53.730   6.673   6.526  0.00  0.00    +0.000 A 
ATOM     16  N   UNL     1      54.090   5.566   5.820  0.00  0.00    +0.000 NA
ATOM     17  C   UNL     1      54.237   4.502   6.535  0.00  0.00    +0.000 A 
ATOM     18  N   UNL     1      54.043   4.439   7.888  0.00  0.00    +0.000 N 
ATOM     19  C   UNL     1      53.645   5.521   8.643  0.00  0.00    +0.000 A 
ATOM     20  O   UNL     1      53.431   5.419   9.845  0.00  0.00    +0.000 OA
ATOM     21  C   UNL     1      53.490   6.749   7.888  0.00  0.00    +0.000 A 
ATOM     22  H   UNL     1      54.158   3.569   8.392  0.00  0.00    +0.000 HD
ENDBRANCH   9  12
ENDBRANCH   7  10
ENDBRANCH   1   7
BRANCH   4  23
ATOM     23  C   UNL     1      45.703   8.180  12.695  0.00  0.00    +0.000 C 
BRANCH  23  24
ATOM     24  N   UNL     1      45.034   7.317  11.750  0.00  0.00    +0.000 N 
ATOM     25  C   UNL     1      44.568   6.080  12.122  0.00  0.00    +0.000 C 
ATOM     26  O   UNL     1      44.646   5.664  13.276  0.00  0.00    +0.000 OA
ATOM     27  H   UNL     1      45.154   7.503  10.753  0.00  0.00    +0.000 HD
BRANCH  25  28
ATOM     28  C   UNL     1      43.883   5.253  11.030  0.00  0.00    +0.000 C 
ATOM     29  C   UNL     1      44.897   4.508  10.147  0.00  0.00    +0.000 C 
ATOM     30  C   UNL     1      44.464   3.044  10.151  0.00  0.00    +0.000 C 
ATOM     31  C   UNL     1      43.720   2.882  11.467  0.00  0.00    +0.000 C 
ATOM     32  C   UNL     1      42.928   4.179  11.574  0.00  0.00    +0.000 C 
BRANCH  31  33
ATOM     33  O   UNL     1      44.637   2.816  12.557  0.00  0.00    +0.000 OA
ATOM     34  H   UNL     1      44.163   2.457  13.329  0.00  0.00    +0.000 HD
ENDBRANCH  31  33
ENDBRANCH  25  28
ENDBRANCH  23  24
ENDBRANCH   4  23
TORSDOF 7
ENDMDL
MODEL 9
REMARK VINA RESULT:    -6.739      1.602      2.428
REMARK INTER + INTRA:         -10.340
REMARK INTER:                  -8.990
REMARK INTRA:                  -1.350
REMARK UNBOUND:                -1.041
REMARK  Name = 
REMARK  7 active torsions:
REMARK  status: ('A' for Active; 'I' for Inactive)
REMARK    1  A    between atoms: C_2  and  C_21
REMARK    2  A    between atoms: N_3  and  C_4
REMARK    3  A    between atoms: C_4  and  C_5
REMARK    4  A    between atoms: C_8  and  C_9
REMARK    5  A    between atoms: C_9  and  N_10
REMARK    6  A    between atoms: C_11  and  C_13
REMARK    7  A    between atoms: C_16  and  O_17
REMARK                            x       y       z     vdW  Elec       q    Type
REMARK                         _______ _______ _______ _____ _____    ______ ____
ROOT
ATOM      1  C   UNL     1      48.964   3.396  17.387  0.00  0.00    +0.000 A 
ATOM      2  C   UNL     1      49.802   2.294  17.165  0.00  0.00    +0.000 A 
ATOM      3  C   UNL     1      51.184   2.389  17.379  0.00  0.00    +0.000 A 
ATOM      4  C   UNL     1      51.755   3.582  17.841  0.00  0.00    +0.000 A 
ATOM      5  C   UNL     1      50.913   4.677  18.082  0.00  0.00    +0.000 A 
ATOM      6  C   UNL     1      49.532   4.582  17.867  0.00  0.00    +0.000 A 
ENDROOT
BRANCH   1   7
ATOM      7  C   UNL     1      47.486   3.303  17.106  0.00  0.00    +0.000 C 
BRANCH   7  10
ATOM      8  O   UNL     1      47.449   2.920  14.372  0.00  0.00    +0.000 OA
ATOM      9  C   UNL     1      47.003   3.980  14.810  0.00  0.00    +0.000 C 
ATOM     10  N   UNL     1      47.043   4.286  16.150  0.00  0.00    +0.000 N 
ATOM     11  H   UNL     1      46.482   5.055  16.502  0.00  0.00    +0.000 HD
BRANCH   9  12
ATOM     12  C   UNL     1      46.432   4.994  13.912  0.00  0.00    +0.000 A 
ATOM     13  C   UNL     1      45.167   4.799  13.370  0.00  0.00    +0.000 A 
ATOM     14  S   UNL     1      44.661   6.064  12.344  0.00  0.00    +0.000 S 
ATOM     15  C   UNL     1      46.092   6.938  12.625  0.00  0.00    +0.000 A 
ATOM     16  N   UNL     1      46.290   8.160  12.060  0.00  0.00    +0.000 NA
ATOM     17  C   UNL     1      47.400   8.728  12.393  0.00  0.00    +0.000 A 
ATOM     18  N   UNL     1      48.337   8.180  13.226  0.00  0.00    +0.000 N 
ATOM     19  C   UNL     1      48.200   6.932  13.795  0.00  0.00    +0.000 A 
ATOM     20  O   UNL     1      49.080   6.450  14.497  0.00  0.00    +0.000 OA
ATOM     21  C   UNL     1      46.956   6.262  13.471  0.00  0.00    +0.000 A 
ATOM     22  H   UNL     1      49.198   8.668  13.437  0.00  0.00    +0.000 HD
ENDBRANCH   9  12
ENDBRANCH   7  10
ENDBRANCH   1   7
BRANCH   4  23
ATOM     23  C   UNL     1      53.243   3.695  18.065  0.00  0.00    +0.000 C 
BRANCH  23  24
ATOM     24  N   UNL     1      53.916   2.424  17.942  0.00  0.00    +0.000 N 
ATOM     25  C   UNL     1      54.819   2.002  18.887  0.00  0.00    +0.000 C 
ATOM     26  O   UNL     1      55.063   2.650  19.904  0.00  0.00    +0.000 OA
ATOM     27  H   UNL     1      53.934   1.970  17.028  0.00  0.00    +0.000 HD
BRANCH  25  28
ATOM     28  C   UNL     1      55.474   0.640  18.644  0.00  0.00    +0.000 C 
ATOM     29  C   UNL     1      55.391  -0.271  19.880  0.00  0.00    +0.000 C 
ATOM     30  C   UNL     1      54.777  -1.583  19.395  0.00  0.00    +0.000 C 
ATOM     31  C   UNL     1      53.953  -1.181  18.183  0.00  0.00    +0.000 C 
ATOM     32  C   UNL     1      54.842  -0.155  17.491  0.00  0.00    +0.000 C 
BRANCH  31  33
ATOM     33  O   UNL     1      52.746  -0.540  18.588  0.00  0.00    +0.000 OA
ATOM     34  H   UNL     1      52.966   0.110  19.280  0.00  0.00    +0.000 HD
ENDBRANCH  31  33
ENDBRANCH  25  28
ENDBRANCH  23  24
ENDBRANCH   4  23
TORSDOF 7
ENDMDL
