MODEL 1
REMARK VINA RESULT:    -7.578      0.000      0.000
REMARK INTER + INTRA:         -11.357
REMARK INTER:                 -10.236
REMARK INTRA:                  -1.121
REMARK UNBOUND:                -1.121
REMARK  Name = 
REMARK  7 active torsions:
REMARK  status: ('A' for Active; 'I' for Inactive)
REMARK    1  A    between atoms: C_1  and  C_2
REMARK    2  A    between atoms: C_2  and  N_3
REMARK    3  A    between atoms: C_2  and  C_16
REMARK    4  A    between atoms: C_4  and  C_6
REMARK    5  A    between atoms: C_19  and  C_20
REMARK    6  A    between atoms: C_20  and  S_21
REMARK    7  A    between atoms: S_21  and  C_22
REMARK                            x       y       z     vdW  Elec       q    Type
REMARK                         _______ _______ _______ _____ _____    ______ ____
ROOT
ATOM      1  C   UNL     1      47.136   4.652  18.374  0.00  0.00    +0.000 C 
ATOM      2  C   UNL     1      47.789   3.883  17.223  0.00  0.00    +0.000 C 
ENDROOT
BRANCH   2   3
ATOM      3  C   UNL     1      47.676   4.634  15.900  0.00  0.00    +0.000 A 
ATOM      4  C   UNL     1      48.365   5.831  15.723  0.00  0.00    +0.000 A 
ATOM      5  C   UNL     1      48.238   6.518  14.515  0.00  0.00    +0.000 A 
ATOM      6  C   UNL     1      47.430   6.004  13.497  0.00  0.00    +0.000 A 
ATOM      7  C   UNL     1      46.756   4.820  13.774  0.00  0.00    +0.000 A 
ATOM      8  N   UNL     1      46.853   4.135  14.939  0.00  0.00    +0.000 NA
BRANCH   6   9
ATOM      9  C   UNL     1      47.263   6.698  12.167  0.00  0.00    +0.000 C 
BRANCH   9  10
ATOM     10  S   UNL     1      45.516   6.921  11.736  0.00  0.00    +0.000 S 
BRANCH  10  11
ATOM     11  C   UNL     1      45.349   5.764  10.425  0.00  0.00    +0.000 C 
ATOM     12  O   UNL     1      46.167   5.733   9.513  0.00  0.00    +0.000 OA
ATOM     13  N   UNL     1      44.266   4.899  10.513  0.00  0.00    +0.000 N 
ATOM     14  C   UNL     1      43.267   4.831  11.590  0.00  0.00    +0.000 C 
ATOM     15  C   UNL     1      43.361   3.473  12.293  0.00  0.00    +0.000 C 
ATOM     16  O   UNL     1      43.184   2.401  11.352  0.00  0.00    +0.000 OA
ATOM     17  C   UNL     1      44.184   2.451  10.317  0.00  0.00    +0.000 C 
ATOM     18  C   UNL     1      44.143   3.789   9.565  0.00  0.00    +0.000 C 
ENDBRANCH  10  11
ENDBRANCH   9  10
ENDBRANCH   6   9
ENDBRANCH   2   3
BRANCH   2  19
ATOM     19  N   UNL     1      49.184   3.591  17.522  0.00  0.00    +0.000 N 
ATOM     20  C   UNL     1      49.850   2.525  16.974  0.00  0.00    +0.000 C 
ATOM     21  O   UNL     1      49.300   1.777  16.169  0.00  0.00    +0.000 OA
ATOM     22  H   UNL     1      49.619   4.172  18.233  0.00  0.00    +0.000 HD
BRANCH  20  23
ATOM     23  C   UNL     1      51.250   2.307  17.376  0.00  0.00    +0.000 A 
ATOM     24  C   UNL     1      51.728   1.005  17.478  0.00  0.00    +0.000 A 
ATOM     25  S   UNL     1      53.357   0.901  17.967  0.00  0.00    +0.000 S 
ATOM     26  C   UNL     1      53.487   2.592  18.075  0.00  0.00    +0.000 A 
ATOM     27  N   UNL     1      54.649   3.172  18.480  0.00  0.00    +0.000 NA
ATOM     28  C   UNL     1      54.612   4.462  18.529  0.00  0.00    +0.000 A 
ATOM     29  N   UNL     1      53.525   5.222  18.195  0.00  0.00    +0.000 N 
ATOM     30  C   UNL     1      52.340   4.681  17.754  0.00  0.00    +0.000 A 
ATOM     31  O   UNL     1      51.403   5.400  17.425  0.00  0.00    +0.000 OA
ATOM     32  C   UNL     1      52.312   3.231  17.716  0.00  0.00    +0.000 A 
ATOM     33  H   UNL     1      53.562   6.230  18.239  0.00  0.00    +0.000 HD
ENDBRANCH  20  23
ENDBRANCH   2  19
TORSDOF 6
ENDMDL
MODEL 2
REMARK VINA RESULT:    -7.181      2.990      4.824
REMARK INTER + INTRA:         -10.821
REMARK INTER:                  -9.862
REMARK INTRA:                  -0.959
REMARK UNBOUND:                -1.121
REMARK  Name = 
REMARK  7 active torsions:
REMARK  status: ('A' for Active; 'I' for Inactive)
REMARK    1  A    between atoms: C_1  and  C_2
REMARK    2  A    between atoms: C_2  and  N_3
REMARK    3  A    between atoms: C_2  and  C_16
REMARK    4  A    between atoms: C_4  and  C_6
REMARK    5  A    between atoms: C_19  and  C_20
REMARK    6  A    between atoms: C_20  and  S_21
REMARK    7  A    between atoms: S_21  and  C_22
REMARK                            x       y       z     vdW  Elec       q    Type
REMARK                         _______ _______ _______ _____ _____    ______ ____
ROOT
ATOM      1  C   UNL     1      47.997   8.969  12.757  0.00  0.00    +0.000 C 
ATOM      2  C   UNL     1      47.273   7.978  13.673  0.00  0.00    +0.000 C 
ENDROOT
BRANCH   2   3
ATOM      3  C   UNL     1      46.351   7.049  12.891  0.00  0.00    +0.000 A 
ATOM      4  C   UNL     1      46.427   5.672  13.090  0.00  0.00    +0.000 A 
ATOM      5  C   UNL     1      45.591   4.831  12.354  0.00  0.00    +0.000 A 
ATOM      6  C   UNL     1      44.688   5.369  11.432  0.00  0.00    +0.000 A 
ATOM      7  C   UNL     1      44.705   6.751  11.279  0.00  0.00    +0.000 A 
ATOM      8  N   UNL     1      45.510   7.592  11.971  0.00  0.00    +0.000 NA
BRANCH   6   9
ATOM      9  C   UNL     1      43.753   4.509  10.617  0.00  0.00    +0.000 C 
BRANCH   9  10
ATOM     10  S   UNL     1      44.591   3.047   9.947  0.00  0.00    +0.000 S 
BRANCH  10  11
ATOM     11  C   UNL     1      45.403   3.743   8.553  0.00  0.00    +0.000 C 
ATOM     12  O   UNL     1      45.555   4.955   8.463  0.00  0.00    +0.000 OA
ATOM     13  N   UNL     1      45.864   2.839   7.606  0.00  0.00    +0.000 N 
ATOM     14  C   UNL     1      45.769   1.372   7.655  0.00  0.00    +0.000 C 
ATOM     15  C   UNL     1      47.176   0.768   7.718  0.00  0.00    +0.000 C 
ATOM     16  O   UNL     1      47.964   1.200   6.596  0.00  0.00    +0.000 OA
ATOM     17  C   UNL     1      48.083   2.635   6.569  0.00  0.00    +0.000 C 
ATOM     18  C   UNL     1      46.704   3.308   6.501  0.00  0.00    +0.000 C 
ENDBRANCH  10  11
ENDBRANCH   9  10
ENDBRANCH   6   9
ENDBRANCH   2   3
BRANCH   2  19
ATOM     19  N   UNL     1      48.228   7.205  14.454  0.00  0.00    +0.000 N 
ATOM     20  C   UNL     1      48.691   7.621  15.676  0.00  0.00    +0.000 C 
ATOM     21  O   UNL     1      48.291   8.663  16.188  0.00  0.00    +0.000 OA
ATOM     22  H   UNL     1      48.605   6.376  14.004  0.00  0.00    +0.000 HD
BRANCH  20  23
ATOM     23  C   UNL     1      49.683   6.773  16.361  0.00  0.00    +0.000 A 
ATOM     24  C   UNL     1      50.944   7.294  16.631  0.00  0.00    +0.000 A 
ATOM     25  S   UNL     1      51.993   6.201  17.411  0.00  0.00    +0.000 S 
ATOM     26  C   UNL     1      50.808   4.982  17.409  0.00  0.00    +0.000 A 
ATOM     27  N   UNL     1      51.081   3.751  17.920  0.00  0.00    +0.000 NA
ATOM     28  C   UNL     1      50.100   2.914  17.848  0.00  0.00    +0.000 A 
ATOM     29  N   UNL     1      48.868   3.203  17.327  0.00  0.00    +0.000 N 
ATOM     30  C   UNL     1      48.539   4.440  16.826  0.00  0.00    +0.000 A 
ATOM     31  O   UNL     1      47.410   4.669  16.405  0.00  0.00    +0.000 OA
ATOM     32  C   UNL     1      49.618   5.410  16.846  0.00  0.00    +0.000 A 
ATOM     33  H   UNL     1      48.136   2.509  17.312  0.00  0.00    +0.000 HD
ENDBRANCH  20  23
ENDBRANCH   2  19
TORSDOF 6
ENDMDL
MODEL 3
REMARK VINA RESULT:    -6.829      1.693      2.862
REMARK INTER + INTRA:         -10.345
REMARK INTER:                  -9.234
REMARK INTRA:                  -1.111
REMARK UNBOUND:                -1.121
REMARK  Name = 
REMARK  7 active torsions:
REMARK  status: ('A' for Active; 'I' for Inactive)
REMARK    1  A    between atoms: C_1  and  C_2
REMARK    2  A    between atoms: C_2  and  N_3
REMARK    3  A    between atoms: C_2  and  C_16
REMARK    4  A    between atoms: C_4  and  C_6
REMARK    5  A    between atoms: C_19  and  C_20
REMARK    6  A    between atoms: C_20  and  S_21
REMARK    7  A    between atoms: S_21  and  C_22
REMARK                            x       y       z     vdW  Elec       q    Type
REMARK                         _______ _______ _______ _____ _____    ______ ____
ROOT
ATOM      1  C   UNL     1      50.752   7.878  15.540  0.00  0.00    +0.000 C 
ATOM      2  C   UNL     1      49.939   6.823  16.296  0.00  0.00    +0.000 C 
ENDROOT
BRANCH   2   3
ATOM      3  C   UNL     1      48.810   6.254  15.442  0.00  0.00    +0.000 A 
ATOM      4  C   UNL     1      48.402   6.933  14.296  0.00  0.00    +0.000 A 
ATOM      5  C   UNL     1      47.355   6.413  13.534  0.00  0.00    +0.000 A 
ATOM      6  C   UNL     1      46.729   5.224  13.919  0.00  0.00    +0.000 A 
ATOM      7  C   UNL     1      47.183   4.633  15.093  0.00  0.00    +0.000 A 
ATOM      8  N   UNL     1      48.190   5.118  15.858  0.00  0.00    +0.000 NA
BRANCH   6   9
ATOM      9  C   UNL     1      45.600   4.609  13.128  0.00  0.00    +0.000 C 
BRANCH   9  10
ATOM     10  S   UNL     1      44.699   5.851  12.160  0.00  0.00    +0.000 S 
BRANCH  10  11
ATOM     11  C   UNL     1      45.379   5.581  10.563  0.00  0.00    +0.000 C 
ATOM     12  O   UNL     1      46.329   6.247  10.171  0.00  0.00    +0.000 OA
ATOM     13  N   UNL     1      44.789   4.571   9.815  0.00  0.00    +0.000 N 
ATOM     14  C   UNL     1      43.683   3.691  10.223  0.00  0.00    +0.000 C 
ATOM     15  C   UNL     1      44.173   2.241  10.279  0.00  0.00    +0.000 C 
ATOM     16  O   UNL     1      44.716   1.839   9.010  0.00  0.00    +0.000 OA
ATOM     17  C   UNL     1      45.820   2.681   8.629  0.00  0.00    +0.000 C 
ATOM     18  C   UNL     1      45.397   4.155   8.548  0.00  0.00    +0.000 C 
ENDBRANCH  10  11
ENDBRANCH   9  10
ENDBRANCH   6   9
ENDBRANCH   2   3
BRANCH   2  19
ATOM     19  N   UNL     1      50.801   5.752  16.774  0.00  0.00    +0.000 N 
ATOM     20  C   UNL     1      51.197   5.651  18.083  0.00  0.00    +0.000 C 
ATOM     21  O   UNL     1      50.811   6.454  18.929  0.00  0.00    +0.000 OA
ATOM     22  H   UNL     1      51.170   5.125  16.065  0.00  0.00    +0.000 HD
BRANCH  20  23
ATOM     23  C   UNL     1      52.099   4.544  18.446  0.00  0.00    +0.000 A 
ATOM     24  C   UNL     1      53.212   4.812  19.237  0.00  0.00    +0.000 A 
ATOM     25  S   UNL     1      54.174   3.445  19.566  0.00  0.00    +0.000 S 
ATOM     26  C   UNL     1      53.150   2.441  18.654  0.00  0.00    +0.000 A 
ATOM     27  N   UNL     1      53.431   1.118  18.506  0.00  0.00    +0.000 NA
ATOM     28  C   UNL     1      52.581   0.470  17.782  0.00  0.00    +0.000 A 
ATOM     29  N   UNL     1      51.468   1.022  17.208  0.00  0.00    +0.000 N 
ATOM     30  C   UNL     1      51.129   2.346  17.355  0.00  0.00    +0.000 A 
ATOM     31  O   UNL     1      50.100   2.792  16.858  0.00  0.00    +0.000 OA
ATOM     32  C   UNL     1      52.072   3.132  18.128  0.00  0.00    +0.000 A 
ATOM     33  H   UNL     1      50.831   0.459  16.664  0.00  0.00    +0.000 HD
ENDBRANCH  20  23
ENDBRANCH   2  19
TORSDOF 6
ENDMDL
MODEL 4
REMARK VINA RESULT:    -6.604      2.890      4.506
REMARK INTER + INTRA:         -10.041
REMARK INTER:                  -9.126
REMARK INTRA:                  -0.915
REMARK UNBOUND:                -1.121
REMARK  Name = 
REMARK  7 active torsions:
REMARK  status: ('A' for Active; 'I' for Inactive)
REMARK    1  A    between atoms: C_1  and  C_2
REMARK    2  A    between atoms: C_2  and  N_3
REMARK    3  A    between atoms: C_2  and  C_16
REMARK    4  A    between atoms: C_4  and  C_6
REMARK    5  A    between atoms: C_19  and  C_20
REMARK    6  A    between atoms: C_20  and  S_21
REMARK    7  A    between atoms: S_21  and  C_22
REMARK                            x       y       z     vdW  Elec       q    Type
REMARK                         _______ _______ _______ _____ _____    ______ ____
ROOT
ATOM      1  C   UNL     1      49.175   7.427  12.682  0.00  0.00    +0.000 C 
ATOM      2  C   UNL     1      47.957   7.064  13.536  0.00  0.00    +0.000 C 
ENDROOT
BRANCH   2   3
ATOM      3  C   UNL     1      46.903   6.308  12.733  0.00  0.00    +0.000 A 
ATOM      4  C   UNL     1      46.696   6.628  11.393  0.00  0.00    +0.000 A 
ATOM      5  C   UNL     1      45.716   5.943  10.673  0.00  0.00    +0.000 A 
ATOM      6  C   UNL     1      44.956   4.947  11.295  0.00  0.00    +0.000 A 
ATOM      7  C   UNL     1      45.211   4.719  12.642  0.00  0.00    +0.000 A 
ATOM      8  N   UNL     1      46.149   5.373  13.368  0.00  0.00    +0.000 NA
BRANCH   6   9
ATOM      9  C   UNL     1      43.890   4.167  10.564  0.00  0.00    +0.000 C 
BRANCH   9  10
ATOM     10  S   UNL     1      44.244   4.039   8.790  0.00  0.00    +0.000 S 
BRANCH  10  11
ATOM     11  C   UNL     1      45.054   2.482   8.727  0.00  0.00    +0.000 C 
ATOM     12  O   UNL     1      44.544   1.493   9.241  0.00  0.00    +0.000 OA
ATOM     13  N   UNL     1      46.266   2.455   8.050  0.00  0.00    +0.000 N 
ATOM     14  C   UNL     1      46.927   3.575   7.364  0.00  0.00    +0.000 C 
ATOM     15  C   UNL     1      47.019   3.277   5.864  0.00  0.00    +0.000 C 
ATOM     16  O   UNL     1      47.719   2.042   5.635  0.00  0.00    +0.000 OA
ATOM     17  C   UNL     1      47.051   0.941   6.280  0.00  0.00    +0.000 C 
ATOM     18  C   UNL     1      46.928   1.173   7.793  0.00  0.00    +0.000 C 
ENDBRANCH  10  11
ENDBRANCH   9  10
ENDBRANCH   6   9
ENDBRANCH   2   3
BRANCH   2  19
ATOM     19  N   UNL     1      48.356   6.289  14.703  0.00  0.00    +0.000 N 
ATOM     20  C   UNL     1      48.714   6.874  15.890  0.00  0.00    +0.000 C 
ATOM     21  O   UNL     1      48.683   8.094  16.034  0.00  0.00    +0.000 OA
ATOM     22  H   UNL     1      48.441   5.286  14.565  0.00  0.00    +0.000 HD
BRANCH  20  23
ATOM     23  C   UNL     1      49.134   5.992  16.993  0.00  0.00    +0.000 A 
ATOM     24  C   UNL     1      48.159   5.380  17.775  0.00  0.00    +0.000 A 
ATOM     25  S   UNL     1      48.784   4.401  19.021  0.00  0.00    +0.000 S 
ATOM     26  C   UNL     1      50.383   4.763  18.574  0.00  0.00    +0.000 A 
ATOM     27  N   UNL     1      51.431   4.251  19.276  0.00  0.00    +0.000 NA
ATOM     28  C   UNL     1      52.591   4.611  18.840  0.00  0.00    +0.000 A 
ATOM     29  N   UNL     1      52.798   5.423  17.758  0.00  0.00    +0.000 N 
ATOM     30  C   UNL     1      51.772   5.940  17.003  0.00  0.00    +0.000 A 
ATOM     31  O   UNL     1      52.002   6.630  16.016  0.00  0.00    +0.000 OA
ATOM     32  C   UNL     1      50.442   5.598  17.471  0.00  0.00    +0.000 A 
ATOM     33  H   UNL     1      53.732   5.657  17.456  0.00  0.00    +0.000 HD
ENDBRANCH  20  23
ENDBRANCH   2  19
TORSDOF 6
ENDMDL
MODEL 5
REMARK VINA RESULT:    -6.525      3.115      8.447
REMARK INTER + INTRA:          -9.935
REMARK INTER:                  -9.203
REMARK INTRA:                  -0.732
REMARK UNBOUND:                -1.121
REMARK  Name = 
REMARK  7 active torsions:
REMARK  status: ('A' for Active; 'I' for Inactive)
REMARK    1  A    between atoms: C_1  and  C_2
REMARK    2  A    between atoms: C_2  and  N_3
REMARK    3  A    between atoms: C_2  and  C_16
REMARK    4  A    between atoms: C_4  and  C_6
REMARK    5  A    between atoms: C_19  and  C_20
REMARK    6  A    between atoms: C_20  and  S_21
REMARK    7  A    between atoms: S_21  and  C_22
REMARK                            x       y       z     vdW  Elec       q    Type
REMARK                         _______ _______ _______ _____ _____    ______ ____
ROOT
ATOM      1  C   UNL     1      50.230   8.622  11.980  0.00  0.00    +0.000 C 
ATOM      2  C   UNL     1      49.601   7.538  12.859  0.00  0.00    +0.000 C 
ENDROOT
BRANCH   2   3
ATOM      3  C   UNL     1      49.606   7.925  14.334  0.00  0.00    +0.000 A 
ATOM      4  C   UNL     1      48.749   8.925  14.788  0.00  0.00    +0.000 A 
ATOM      5  C   UNL     1      48.777   9.284  16.136  0.00  0.00    +0.000 A 
ATOM      6  C   UNL     1      49.654   8.643  17.016  0.00  0.00    +0.000 A 
ATOM      7  C   UNL     1      50.493   7.679  16.467  0.00  0.00    +0.000 A 
ATOM      8  N   UNL     1      50.495   7.316  15.162  0.00  0.00    +0.000 NA
BRANCH   6   9
ATOM      9  C   UNL     1      49.720   8.982  18.486  0.00  0.00    +0.000 C 
BRANCH   9  10
ATOM     10  S   UNL     1      49.792   7.493  19.519  0.00  0.00    +0.000 S 
BRANCH  10  11
ATOM     11  C   UNL     1      48.306   6.687  19.040  0.00  0.00    +0.000 C 
ATOM     12  O   UNL     1      47.249   7.304  19.000  0.00  0.00    +0.000 OA
ATOM     13  N   UNL     1      48.426   5.346  18.700  0.00  0.00    +0.000 N 
ATOM     14  C   UNL     1      49.657   4.541  18.672  0.00  0.00    +0.000 C 
ATOM     15  C   UNL     1      49.940   4.085  17.237  0.00  0.00    +0.000 C 
ATOM     16  O   UNL     1      48.824   3.347  16.710  0.00  0.00    +0.000 OA
ATOM     17  C   UNL     1      47.628   4.148  16.708  0.00  0.00    +0.000 C 
ATOM     18  C   UNL     1      47.281   4.638  18.121  0.00  0.00    +0.000 C 
ENDBRANCH  10  11
ENDBRANCH   9  10
ENDBRANCH   6   9
ENDBRANCH   2   3
BRANCH   2  19
ATOM     19  N   UNL     1      48.246   7.238  12.418  0.00  0.00    +0.000 N 
ATOM     20  C   UNL     1      47.537   6.162  12.890  0.00  0.00    +0.000 C 
ATOM     21  O   UNL     1      48.008   5.413  13.741  0.00  0.00    +0.000 OA
ATOM     22  H   UNL     1      47.881   7.820  11.670  0.00  0.00    +0.000 HD
BRANCH  20  23
ATOM     23  C   UNL     1      46.186   5.938  12.346  0.00  0.00    +0.000 A 
ATOM     24  C   UNL     1      45.500   7.008  11.780  0.00  0.00    +0.000 A 
ATOM     25  S   UNL     1      43.946   6.610  11.207  0.00  0.00    +0.000 S 
ATOM     26  C   UNL     1      44.121   4.993  11.701  0.00  0.00    +0.000 A 
ATOM     27  N   UNL     1      43.109   4.101  11.522  0.00  0.00    +0.000 NA
ATOM     28  C   UNL     1      43.366   2.911  11.951  0.00  0.00    +0.000 A 
ATOM     29  N   UNL     1      44.547   2.529  12.526  0.00  0.00    +0.000 N 
ATOM     30  C   UNL     1      45.606   3.388  12.701  0.00  0.00    +0.000 A 
ATOM     31  O   UNL     1      46.663   2.995  13.184  0.00  0.00    +0.000 OA
ATOM     32  C   UNL     1      45.360   4.752  12.272  0.00  0.00    +0.000 A 
ATOM     33  H   UNL     1      44.694   1.577  12.828  0.00  0.00    +0.000 HD
ENDBRANCH  20  23
ENDBRANCH   2  19
TORSDOF 6
ENDMDL
MODEL 6
REMARK VINA RESULT:    -6.522      2.887      4.586
REMARK INTER + INTRA:          -9.931
REMARK INTER:                  -8.591
REMARK INTRA:                  -1.340
REMARK UNBOUND:                -1.121
REMARK  Name = 
REMARK  7 active torsions:
REMARK  status: ('A' for Active; 'I' for Inactive)
REMARK    1  A    between atoms: C_1  and  C_2
REMARK    2  A    between atoms: C_2  and  N_3
REMARK    3  A    between atoms: C_2  and  C_16
REMARK    4  A    between atoms: C_4  and  C_6
REMARK    5  A    between atoms: C_19  and  C_20
REMARK    6  A    between atoms: C_20  and  S_21
REMARK    7  A    between atoms: S_21  and  C_22
REMARK                            x       y       z     vdW  Elec       q    Type
REMARK                         _______ _______ _______ _____ _____    ______ ____
ROOT
ATOM      1  C   UNL     1      49.718   7.373  12.059  0.00  0.00    +0.000 C 
ATOM      2  C   UNL     1      48.829   7.833  13.218  0.00  0.00    +0.000 C 
ENDROOT
BRANCH   2   3
ATOM      3  C   UNL     1      47.445   7.195  13.162  0.00  0.00    +0.000 A 
ATOM      4  C   UNL     1      47.304   5.828  13.392  0.00  0.00    +0.000 A 
ATOM      5  C   UNL     1      46.035   5.253  13.318  0.00  0.00    +0.000 A 
ATOM      6  C   UNL     1      44.922   6.043  13.021  0.00  0.00    +0.000 A 
ATOM      7  C   UNL     1      45.162   7.391  12.776  0.00  0.00    +0.000 A 
ATOM      8  N   UNL     1      46.382   7.976  12.831  0.00  0.00    +0.000 NA
BRANCH   6   9
ATOM      9  C   UNL     1      43.524   5.478  12.939  0.00  0.00    +0.000 C 
BRANCH   9  10
ATOM     10  S   UNL     1      42.998   5.225  11.222  0.00  0.00    +0.000 S 
BRANCH  10  11
ATOM     11  C   UNL     1      43.602   3.602  10.927  0.00  0.00    +0.000 C 
ATOM     12  O   UNL     1      42.979   2.624  11.323  0.00  0.00    +0.000 OA
ATOM     13  N   UNL     1      44.790   3.517  10.213  0.00  0.00    +0.000 N 
ATOM     14  C   UNL     1      45.576   4.629   9.659  0.00  0.00    +0.000 C 
ATOM     15  C   UNL     1      45.605   4.527   8.130  0.00  0.00    +0.000 C 
ATOM     16  O   UNL     1      46.137   3.257   7.717  0.00  0.00    +0.000 OA
ATOM     17  C   UNL     1      45.346   2.171   8.234  0.00  0.00    +0.000 C 
ATOM     18  C   UNL     1      45.278   2.209   9.767  0.00  0.00    +0.000 C 
ENDBRANCH  10  11
ENDBRANCH   9  10
ENDBRANCH   6   9
ENDBRANCH   2   3
BRANCH   2  19
ATOM     19  N   UNL     1      49.464   7.555  14.498  0.00  0.00    +0.000 N 
ATOM     20  C   UNL     1      49.193   8.280  15.630  0.00  0.00    +0.000 C 
ATOM     21  O   UNL     1      48.367   9.189  15.622  0.00  0.00    +0.000 OA
ATOM     22  H   UNL     1      50.191   6.845  14.491  0.00  0.00    +0.000 HD
BRANCH  20  23
ATOM     23  C   UNL     1      49.922   7.930  16.862  0.00  0.00    +0.000 A 
ATOM     24  C   UNL     1      50.559   8.938  17.578  0.00  0.00    +0.000 A 
ATOM     25  S   UNL     1      51.375   8.390  18.970  0.00  0.00    +0.000 S 
ATOM     26  C   UNL     1      50.920   6.781  18.666  0.00  0.00    +0.000 A 
ATOM     27  N   UNL     1      51.329   5.779  19.491  0.00  0.00    +0.000 NA
ATOM     28  C   UNL     1      50.925   4.603  19.143  0.00  0.00    +0.000 A 
ATOM     29  N   UNL     1      50.136   4.342  18.055  0.00  0.00    +0.000 N 
ATOM     30  C   UNL     1      49.676   5.325  17.211  0.00  0.00    +0.000 A 
ATOM     31  O   UNL     1      48.938   5.054  16.271  0.00  0.00    +0.000 OA
ATOM     32  C   UNL     1      50.133   6.665  17.533  0.00  0.00    +0.000 A 
ATOM     33  H   UNL     1      49.839   3.401  17.843  0.00  0.00    +0.000 HD
ENDBRANCH  20  23
ENDBRANCH   2  19
TORSDOF 6
ENDMDL
MODEL 7
REMARK VINA RESULT:    -6.498      2.945      8.898
REMARK INTER + INTRA:          -9.899
REMARK INTER:                  -9.605
REMARK INTRA:                  -0.293
REMARK UNBOUND:                -1.121
REMARK  Name = 
REMARK  7 active torsions:
REMARK  status: ('A' for Active; 'I' for Inactive)
REMARK    1  A    between atoms: C_1  and  C_2
REMARK    2  A    between atoms: C_2  and  N_3
REMARK    3  A    between atoms: C_2  and  C_16
REMARK    4  A    between atoms: C_4  and  C_6
REMARK    5  A    between atoms: C_19  and  C_20
REMARK    6  A    between atoms: C_20  and  S_21
REMARK    7  A    between atoms: S_21  and  C_22
REMARK                            x       y       z     vdW  Elec       q    Type
REMARK                         _______ _______ _______ _____ _____    ______ ____
ROOT
ATOM      1  C   UNL     1      46.703   9.067  12.122  0.00  0.00    +0.000 C 
ATOM      2  C   UNL     1      47.568   7.825  12.358  0.00  0.00    +0.000 C 
ENDROOT
BRANCH   2   3
ATOM      3  C   UNL     1      48.027   7.717  13.808  0.00  0.00    +0.000 A 
ATOM      4  C   UNL     1      47.896   8.814  14.657  0.00  0.00    +0.000 A 
ATOM      5  C   UNL     1      48.338   8.709  15.977  0.00  0.00    +0.000 A 
ATOM      6  C   UNL     1      48.901   7.515  16.436  0.00  0.00    +0.000 A 
ATOM      7  C   UNL     1      49.019   6.485  15.509  0.00  0.00    +0.000 A 
ATOM      8  N   UNL     1      48.608   6.560  14.221  0.00  0.00    +0.000 NA
BRANCH   6   9
ATOM      9  C   UNL     1      49.385   7.340  17.855  0.00  0.00    +0.000 C 
BRANCH   9  10
ATOM     10  S   UNL     1      48.034   6.892  18.980  0.00  0.00    +0.000 S 
BRANCH  10  11
ATOM     11  C   UNL     1      47.722   5.238  18.477  0.00  0.00    +0.000 C 
ATOM     12  O   UNL     1      46.676   4.947  17.909  0.00  0.00    +0.000 OA
ATOM     13  N   UNL     1      48.730   4.322  18.744  0.00  0.00    +0.000 N 
ATOM     14  C   UNL     1      50.032   4.589  19.374  0.00  0.00    +0.000 C 
ATOM     15  C   UNL     1      51.156   4.297  18.374  0.00  0.00    +0.000 C 
ATOM     16  O   UNL     1      51.076   2.941  17.903  0.00  0.00    +0.000 OA
ATOM     17  C   UNL     1      49.813   2.691  17.258  0.00  0.00    +0.000 C 
ATOM     18  C   UNL     1      48.637   2.961  18.208  0.00  0.00    +0.000 C 
ENDBRANCH  10  11
ENDBRANCH   9  10
ENDBRANCH   6   9
ENDBRANCH   2   3
BRANCH   2  19
ATOM     19  N   UNL     1      46.858   6.618  11.960  0.00  0.00    +0.000 N 
ATOM     20  C   UNL     1      45.546   6.390  12.289  0.00  0.00    +0.000 C 
ATOM     21  O   UNL     1      44.894   7.220  12.917  0.00  0.00    +0.000 OA
ATOM     22  H   UNL     1      47.414   5.906  11.495  0.00  0.00    +0.000 HD
BRANCH  20  23
ATOM     23  C   UNL     1      44.941   5.116  11.861  0.00  0.00    +0.000 A 
ATOM     24  C   UNL     1      44.208   4.375  12.783  0.00  0.00    +0.000 A 
ATOM     25  S   UNL     1      43.580   2.920  12.158  0.00  0.00    +0.000 S 
ATOM     26  C   UNL     1      44.272   3.215  10.634  0.00  0.00    +0.000 A 
ATOM     27  N   UNL     1      44.129   2.315   9.623  0.00  0.00    +0.000 NA
ATOM     28  C   UNL     1      44.711   2.653   8.522  0.00  0.00    +0.000 A 
ATOM     29  N   UNL     1      45.407   3.817   8.335  0.00  0.00    +0.000 N 
ATOM     30  C   UNL     1      45.552   4.768   9.318  0.00  0.00    +0.000 A 
ATOM     31  O   UNL     1      46.149   5.816   9.097  0.00  0.00    +0.000 OA
ATOM     32  C   UNL     1      44.950   4.421  10.592  0.00  0.00    +0.000 A 
ATOM     33  H   UNL     1      45.828   4.033   7.444  0.00  0.00    +0.000 HD
ENDBRANCH  20  23
ENDBRANCH   2  19
TORSDOF 6
ENDMDL
MODEL 8
REMARK VINA RESULT:    -6.482      2.834      8.432
REMARK INTER + INTRA:          -9.876
REMARK INTER:                  -8.768
REMARK INTRA:                  -1.108
REMARK UNBOUND:                -1.121
REMARK  Name = 
REMARK  7 active torsions:
REMARK  status: ('A' for Active; 'I' for Inactive)
REMARK    1  A    between atoms: C_1  and  C_2
REMARK    2  A    between atoms: C_2  and  N_3
REMARK    3  A    between atoms: C_2  and  C_16
REMARK    4  A    between atoms: C_4  and  C_6
REMARK    5  A    between atoms: C_19  and  C_20
REMARK    6  A    between atoms: C_20  and  S_21
REMARK    7  A    between atoms: S_21  and  C_22
REMARK                            x       y       z     vdW  Elec       q    Type
REMARK                         _______ _______ _______ _____ _____    ______ ____
ROOT
ATOM      1  C   UNL     1      48.819  10.500  13.969  0.00  0.00    +0.000 C 
ATOM      2  C   UNL     1      48.926   8.977  14.091  0.00  0.00    +0.000 C 
ENDROOT
BRANCH   2   3
ATOM      3  C   UNL     1      49.171   8.537  15.531  0.00  0.00    +0.000 A 
ATOM      4  C   UNL     1      50.412   8.018  15.892  0.00  0.00    +0.000 A 
ATOM      5  C   UNL     1      50.618   7.601  17.208  0.00  0.00    +0.000 A 
ATOM      6  C   UNL     1      49.589   7.708  18.148  0.00  0.00    +0.000 A 
ATOM      7  C   UNL     1      48.376   8.209  17.689  0.00  0.00    +0.000 A 
ATOM      8  N   UNL     1      48.144   8.614  16.417  0.00  0.00    +0.000 NA
BRANCH   6   9
ATOM      9  C   UNL     1      49.759   7.283  19.587  0.00  0.00    +0.000 C 
BRANCH   9  10
ATOM     10  S   UNL     1      49.159   5.595  19.867  0.00  0.00    +0.000 S 
BRANCH  10  11
ATOM     11  C   UNL     1      50.495   4.658  19.218  0.00  0.00    +0.000 C 
ATOM     12  O   UNL     1      51.517   4.493  19.875  0.00  0.00    +0.000 OA
ATOM     13  N   UNL     1      50.300   4.117  17.954  0.00  0.00    +0.000 N 
ATOM     14  C   UNL     1      49.095   4.222  17.118  0.00  0.00    +0.000 C 
ATOM     15  C   UNL     1      48.492   2.829  16.910  0.00  0.00    +0.000 C 
ATOM     16  O   UNL     1      49.457   1.941  16.321  0.00  0.00    +0.000 OA
ATOM     17  C   UNL     1      50.622   1.814  17.158  0.00  0.00    +0.000 C 
ATOM     18  C   UNL     1      51.283   3.178  17.405  0.00  0.00    +0.000 C 
ENDBRANCH  10  11
ENDBRANCH   9  10
ENDBRANCH   6   9
ENDBRANCH   2   3
BRANCH   2  19
ATOM     19  N   UNL     1      47.734   8.331  13.560  0.00  0.00    +0.000 N 
ATOM     20  C   UNL     1      47.741   7.044  13.085  0.00  0.00    +0.000 C 
ATOM     21  O   UNL     1      48.760   6.359  13.116  0.00  0.00    +0.000 OA
ATOM     22  H   UNL     1      46.908   8.917  13.477  0.00  0.00    +0.000 HD
BRANCH  20  23
ATOM     23  C   UNL     1      46.482   6.507  12.539  0.00  0.00    +0.000 A 
ATOM     24  C   UNL     1      45.606   7.370  11.889  0.00  0.00    +0.000 A 
ATOM     25  S   UNL     1      44.186   6.618  11.323  0.00  0.00    +0.000 S 
ATOM     26  C   UNL     1      44.678   5.110  11.933  0.00  0.00    +0.000 A 
ATOM     27  N   UNL     1      43.879   4.016  11.803  0.00  0.00    +0.000 NA
ATOM     28  C   UNL     1      44.365   2.937  12.318  0.00  0.00    +0.000 A 
ATOM     29  N   UNL     1      45.583   2.850  12.936  0.00  0.00    +0.000 N 
ATOM     30  C   UNL     1      46.435   3.921  13.065  0.00  0.00    +0.000 A 
ATOM     31  O   UNL     1      47.536   3.791  13.589  0.00  0.00    +0.000 OA
ATOM     32  C   UNL     1      45.923   5.172  12.537  0.00  0.00    +0.000 A 
ATOM     33  H   UNL     1      45.915   1.972  13.307  0.00  0.00    +0.000 HD
ENDBRANCH  20  23
ENDBRANCH   2  19
TORSDOF 6
ENDMDL
MODEL 9
REMARK VINA RESULT:    -6.212      3.229      8.830
REMARK INTER + INTRA:          -9.512
REMARK INTER:                  -9.107
REMARK INTRA:                  -0.405
REMARK UNBOUND:                -1.121
REMARK  Name = 
REMARK  7 active torsions:
REMARK  status: ('A' for Active; 'I' for Inactive)
REMARK    1  A    between atoms: C_1  and  C_2
REMARK    2  A    between atoms: C_2  and  N_3
REMARK    3  A    between atoms: C_2  and  C_16
REMARK    4  A    between atoms: C_4  and  C_6
REMARK    5  A    between atoms: C_19  and  C_20
REMARK    6  A    between atoms: C_20  and  S_21
REMARK    7  A    between atoms: S_21  and  C_22
REMARK                            x       y       z     vdW  Elec       q    Type
REMARK                         _______ _______ _______ _____ _____    ______ ____
ROOT
ATOM      1  C   UNL     1      48.348   2.594  16.107  0.00  0.00    +0.000 C 
ATOM      2  C   UNL     1      47.344   3.551  16.756  0.00  0.00    +0.000 C 
ENDROOT
BRANCH   2   3
ATOM      3  C   UNL     1      47.971   4.348  17.895  0.00  0.00    +0.000 A 
ATOM      4  C   UNL     1      49.302   4.126  18.242  0.00  0.00    +0.000 A 
ATOM      5  C   UNL     1      49.859   4.849  19.299  0.00  0.00    +0.000 A 
ATOM      6  C   UNL     1      49.087   5.784  19.994  0.00  0.00    +0.000 A 
ATOM      7  C   UNL     1      47.761   5.916  19.596  0.00  0.00    +0.000 A 
ATOM      8  N   UNL     1      47.190   5.224  18.581  0.00  0.00    +0.000 NA
BRANCH   6   9
ATOM      9  C   UNL     1      49.639   6.602  21.136  0.00  0.00    +0.000 C 
BRANCH   9  10
ATOM     10  S   UNL     1      49.966   8.316  20.644  0.00  0.00    +0.000 S 
BRANCH  10  11
ATOM     11  C   UNL     1      51.243   8.081  19.461  0.00  0.00    +0.000 C 
ATOM     12  O   UNL     1      52.350   7.688  19.809  0.00  0.00    +0.000 OA
ATOM     13  N   UNL     1      50.903   8.345  18.140  0.00  0.00    +0.000 N 
ATOM     14  C   UNL     1      49.593   8.771  17.627  0.00  0.00    +0.000 C 
ATOM     15  C   UNL     1      49.029   7.692  16.697  0.00  0.00    +0.000 C 
ATOM     16  O   UNL     1      49.945   7.420  15.622  0.00  0.00    +0.000 OA
ATOM     17  C   UNL     1      51.217   6.970  16.127  0.00  0.00    +0.000 C 
ATOM     18  C   UNL     1      51.843   8.011  17.067  0.00  0.00    +0.000 C 
ENDBRANCH  10  11
ENDBRANCH   9  10
ENDBRANCH   6   9
ENDBRANCH   2   3
BRANCH   2  19
ATOM     19  N   UNL     1      46.770   4.449  15.764  0.00  0.00    +0.000 N 
ATOM     20  C   UNL     1      46.740   4.149  14.426  0.00  0.00    +0.000 C 
ATOM     21  O   UNL     1      47.172   3.080  14.003  0.00  0.00    +0.000 OA
ATOM     22  H   UNL     1      46.470   5.358  16.105  0.00  0.00    +0.000 HD
BRANCH  20  23
ATOM     23  C   UNL     1      46.165   5.150  13.510  0.00  0.00    +0.000 A 
ATOM     24  C   UNL     1      46.898   6.295  13.217  0.00  0.00    +0.000 A 
ATOM     25  S   UNL     1      46.108   7.372  12.159  0.00  0.00    +0.000 S 
ATOM     26  C   UNL     1      44.748   6.357  12.058  0.00  0.00    +0.000 A 
ATOM     27  N   UNL     1      43.669   6.718  11.312  0.00  0.00    +0.000 NA
ATOM     28  C   UNL     1      42.700   5.864  11.328  0.00  0.00    +0.000 A 
ATOM     29  N   UNL     1      42.721   4.677  12.008  0.00  0.00    +0.000 N 
ATOM     30  C   UNL     1      43.800   4.258  12.750  0.00  0.00    +0.000 A 
ATOM     31  O   UNL     1      43.794   3.167  13.310  0.00  0.00    +0.000 OA
ATOM     32  C   UNL     1      44.905   5.198  12.799  0.00  0.00    +0.000 A 
ATOM     33  H   UNL     1      41.937   4.043  11.969  0.00  0.00    +0.000 HD
ENDBRANCH  20  23
ENDBRANCH   2  19
TORSDOF 6
ENDMDL
