MODEL 1
REMARK VINA RESULT:    -7.863      0.000      0.000
REMARK INTER + INTRA:         -13.925
REMARK INTER:                 -12.460
REMARK INTRA:                  -1.465
REMARK UNBOUND:                -1.465
REMARK  Name = 
REMARK  11 active torsions:
REMARK  status: ('A' for Active; 'I' for Inactive)
REMARK    1  A    between atoms: N_1  and  C_2
REMARK    2  A    between atoms: C_2  and  C_3
REMARK    3  A    between atoms: C_3  and  N_4
REMARK    4  A    between atoms: C_3  and  C_20
REMARK    5  A    between atoms: C_5  and  C_7
REMARK    6  A    between atoms: N_13  and  C_14
REMARK    7  A    between atoms: C_14  and  C_15
REMARK    8  A    between atoms: C_15  and  O_16
REMARK    9  A    between atoms: C_23  and  O_24
REMARK   10  A    between atoms: O_24  and  C_25
REMARK   11  A    between atoms: C_25  and  C_26
REMARK                            x       y       z     vdW  Elec       q    Type
REMARK                         _______ _______ _______ _____ _____    ______ ____
ROOT
ATOM      1  C   UNL     1      46.657   7.747  13.173  0.00  0.00    +0.000 C 
ENDROOT
BRANCH   1   2
ATOM      2  C   UNL     1      46.064   6.524  12.476  0.00  0.00    +0.000 A 
ATOM      3  C   UNL     1      45.464   6.626  11.211  0.00  0.00    +0.000 A 
ATOM      4  C   UNL     1      45.026   5.477  10.540  0.00  0.00    +0.000 A 
ATOM      5  C   UNL     1      45.173   4.219  11.128  0.00  0.00    +0.000 A 
ATOM      6  C   UNL     1      45.647   4.125  12.431  0.00  0.00    +0.000 A 
ATOM      7  C   UNL     1      46.080   5.266  13.098  0.00  0.00    +0.000 A 
BRANCH   5   8
ATOM      8  O   UNL     1      44.849   3.130  10.355  0.00  0.00    +0.000 OA
BRANCH   8   9
ATOM      9  C   UNL     1      44.723   3.431   8.962  0.00  0.00    +0.000 C 
BRANCH   9  10
ATOM     10  C   UNL     1      45.794   2.711   8.192  0.00  0.00    +0.000 A 
ATOM     11  C   UNL     1      46.699   3.430   7.407  0.00  0.00    +0.000 A 
ATOM     12  C   UNL     1      47.690   2.735   6.737  0.00  0.00    +0.000 A 
ATOM     13  N   UNL     1      47.844   1.395   6.802  0.00  0.00    +0.000 NA
ATOM     14  C   UNL     1      46.965   0.721   7.573  0.00  0.00    +0.000 A 
ATOM     15  C   UNL     1      45.939   1.326   8.283  0.00  0.00    +0.000 A 
ENDBRANCH   9  10
ENDBRANCH   8   9
ENDBRANCH   5   8
ENDBRANCH   1   2
BRANCH   1  16
ATOM     16  N   UNL     1      47.856   7.321  13.872  0.00  0.00    +0.000 N 
ATOM     17  C   UNL     1      48.506   8.069  14.815  0.00  0.00    +0.000 C 
ATOM     18  O   UNL     1      48.065   9.132  15.240  0.00  0.00    +0.000 OA
ATOM     19  H   UNL     1      48.348   6.557  13.430  0.00  0.00    +0.000 HD
BRANCH  17  20
ATOM     20  C   UNL     1      49.751   7.485  15.332  0.00  0.00    +0.000 A 
ATOM     21  C   UNL     1      50.981   8.009  14.964  0.00  0.00    +0.000 A 
ATOM     22  S   UNL     1      52.296   7.276  15.772  0.00  0.00    +0.000 S 
ATOM     23  C   UNL     1      51.265   6.201  16.596  0.00  0.00    +0.000 A 
ATOM     24  N   UNL     1      51.751   5.301  17.489  0.00  0.00    +0.000 NA
ATOM     25  C   UNL     1      50.848   4.572  18.063  0.00  0.00    +0.000 A 
ATOM     26  N   UNL     1      49.492   4.623  17.803  0.00  0.00    +0.000 N 
ATOM     27  C   UNL     1      48.983   5.459  16.821  0.00  0.00    +0.000 A 
ATOM     28  O   UNL     1      47.806   5.429  16.471  0.00  0.00    +0.000 OA
ATOM     29  C   UNL     1      49.946   6.375  16.237  0.00  0.00    +0.000 A 
BRANCH  26  30
ATOM     30  C   UNL     1      48.565   3.739  18.505  0.00  0.00    +0.000 C 
BRANCH  30  31
ATOM     31  C   UNL     1      47.886   2.742  17.567  0.00  0.00    +0.000 C 
BRANCH  31  32
ATOM     32  O   UNL     1      46.470   2.885  17.637  0.00  0.00    +0.000 OA
ATOM     33  H   UNL     1      46.111   2.064  18.016  0.00  0.00    +0.000 HD
ENDBRANCH  31  32
ENDBRANCH  30  31
ENDBRANCH  26  30
ENDBRANCH  17  20
ENDBRANCH   1  16
BRANCH   1  34
ATOM     34  C   UNL     1      46.953   8.931  12.193  0.00  0.00    +0.000 C 
BRANCH  34  35
ATOM     35  N   UNL     1      46.406  10.223  12.624  0.00  0.00    +0.000 NA
ATOM     36  H   UNL     1      46.369  10.857  11.828  0.00  0.00    +0.000 HD
ATOM     37  H   UNL     1      47.043  10.644  13.300  0.00  0.00    +0.000 HD
ENDBRANCH  34  35
ENDBRANCH   1  34
TORSDOF 11
ENDMDL
MODEL 2
REMARK VINA RESULT:    -7.747      1.870      2.238
REMARK INTER + INTRA:         -13.741
REMARK INTER:                 -12.095
REMARK INTRA:                  -1.646
REMARK UNBOUND:                -1.465
REMARK  Name = 
REMARK  11 active torsions:
REMARK  status: ('A' for Active; 'I' for Inactive)
REMARK    1  A    between atoms: N_1  and  C_2
REMARK    2  A    between atoms: C_2  and  C_3
REMARK    3  A    between atoms: C_3  and  N_4
REMARK    4  A    between atoms: C_3  and  C_20
REMARK    5  A    between atoms: C_5  and  C_7
REMARK    6  A    between atoms: N_13  and  C_14
REMARK    7  A    between atoms: C_14  and  C_15
REMARK    8  A    between atoms: C_15  and  O_16
REMARK    9  A    between atoms: C_23  and  O_24
REMARK   10  A    between atoms: O_24  and  C_25
REMARK   11  A    between atoms: C_25  and  C_26
REMARK                            x       y       z     vdW  Elec       q    Type
REMARK                         _______ _______ _______ _____ _____    ______ ____
ROOT
ATOM      1  C   UNL     1      47.618   8.001  13.264  0.00  0.00    +0.000 C 
ENDROOT
BRANCH   1   2
ATOM      2  C   UNL     1      46.712   6.898  12.720  0.00  0.00    +0.000 A 
ATOM      3  C   UNL     1      46.099   7.013  11.462  0.00  0.00    +0.000 A 
ATOM      4  C   UNL     1      45.362   5.945  10.933  0.00  0.00    +0.000 A 
ATOM      5  C   UNL     1      45.223   4.759  11.657  0.00  0.00    +0.000 A 
ATOM      6  C   UNL     1      45.719   4.687  12.954  0.00  0.00    +0.000 A 
ATOM      7  C   UNL     1      46.448   5.748  13.479  0.00  0.00    +0.000 A 
BRANCH   5   8
ATOM      8  O   UNL     1      44.607   3.710  11.017  0.00  0.00    +0.000 OA
BRANCH   8   9
ATOM      9  C   UNL     1      44.285   3.980   9.650  0.00  0.00    +0.000 C 
BRANCH   9  10
ATOM     10  C   UNL     1      45.248   3.254   8.753  0.00  0.00    +0.000 A 
ATOM     11  C   UNL     1      46.024   3.965   7.834  0.00  0.00    +0.000 A 
ATOM     12  C   UNL     1      46.922   3.266   7.046  0.00  0.00    +0.000 A 
ATOM     13  N   UNL     1      47.103   1.930   7.118  0.00  0.00    +0.000 NA
ATOM     14  C   UNL     1      46.350   1.264   8.019  0.00  0.00    +0.000 A 
ATOM     15  C   UNL     1      45.425   1.873   8.852  0.00  0.00    +0.000 A 
ENDBRANCH   9  10
ENDBRANCH   8   9
ENDBRANCH   5   8
ENDBRANCH   1   2
BRANCH   1  16
ATOM     16  N   UNL     1      47.665   7.865  14.708  0.00  0.00    +0.000 N 
ATOM     17  C   UNL     1      48.295   8.743  15.546  0.00  0.00    +0.000 C 
ATOM     18  O   UNL     1      48.789   9.796  15.156  0.00  0.00    +0.000 OA
ATOM     19  H   UNL     1      47.442   6.940  15.048  0.00  0.00    +0.000 HD
BRANCH  17  20
ATOM     20  C   UNL     1      48.296   8.367  16.966  0.00  0.00    +0.000 A 
ATOM     21  C   UNL     1      47.858   9.260  17.932  0.00  0.00    +0.000 A 
ATOM     22  S   UNL     1      47.813   8.589  19.502  0.00  0.00    +0.000 S 
ATOM     23  C   UNL     1      48.429   7.102  18.946  0.00  0.00    +0.000 A 
ATOM     24  N   UNL     1      48.614   6.054  19.789  0.00  0.00    +0.000 NA
ATOM     25  C   UNL     1      49.056   4.978  19.221  0.00  0.00    +0.000 A 
ATOM     26  N   UNL     1      49.376   4.852  17.884  0.00  0.00    +0.000 N 
ATOM     27  C   UNL     1      49.297   5.937  17.023  0.00  0.00    +0.000 A 
ATOM     28  O   UNL     1      49.703   5.895  15.865  0.00  0.00    +0.000 OA
ATOM     29  C   UNL     1      48.695   7.128  17.594  0.00  0.00    +0.000 A 
BRANCH  26  30
ATOM     30  C   UNL     1      49.882   3.588  17.355  0.00  0.00    +0.000 C 
BRANCH  30  31
ATOM     31  C   UNL     1      48.763   2.677  16.850  0.00  0.00    +0.000 C 
BRANCH  31  32
ATOM     32  O   UNL     1      49.278   1.737  15.912  0.00  0.00    +0.000 OA
ATOM     33  H   UNL     1      48.530   1.200  15.595  0.00  0.00    +0.000 HD
ENDBRANCH  31  32
ENDBRANCH  30  31
ENDBRANCH  26  30
ENDBRANCH  17  20
ENDBRANCH   1  16
BRANCH   1  34
ATOM     34  C   UNL     1      49.054   7.983  12.639  0.00  0.00    +0.000 C 
BRANCH  34  35
ATOM     35  N   UNL     1      49.784   6.726  12.844  0.00  0.00    +0.000 NA
ATOM     36  H   UNL     1      49.864   6.233  11.957  0.00  0.00    +0.000 HD
ATOM     37  H   UNL     1      49.241   6.124  13.463  0.00  0.00    +0.000 HD
ENDBRANCH  34  35
ENDBRANCH   1  34
TORSDOF 11
ENDMDL
MODEL 3
REMARK VINA RESULT:    -7.133      2.500      3.631
REMARK INTER + INTRA:         -12.768
REMARK INTER:                 -10.929
REMARK INTRA:                  -1.839
REMARK UNBOUND:                -1.465
REMARK  Name = 
REMARK  11 active torsions:
REMARK  status: ('A' for Active; 'I' for Inactive)
REMARK    1  A    between atoms: N_1  and  C_2
REMARK    2  A    between atoms: C_2  and  C_3
REMARK    3  A    between atoms: C_3  and  N_4
REMARK    4  A    between atoms: C_3  and  C_20
REMARK    5  A    between atoms: C_5  and  C_7
REMARK    6  A    between atoms: N_13  and  C_14
REMARK    7  A    between atoms: C_14  and  C_15
REMARK    8  A    between atoms: C_15  and  O_16
REMARK    9  A    between atoms: C_23  and  O_24
REMARK   10  A    between atoms: O_24  and  C_25
REMARK   11  A    between atoms: C_25  and  C_26
REMARK                            x       y       z     vdW  Elec       q    Type
REMARK                         _______ _______ _______ _____ _____    ______ ____
ROOT
ATOM      1  C   UNL     1      47.427   4.970  14.129  0.00  0.00    +0.000 C 
ENDROOT
BRANCH   1   2
ATOM      2  C   UNL     1      46.439   4.704  12.994  0.00  0.00    +0.000 A 
ATOM      3  C   UNL     1      46.145   5.690  12.039  0.00  0.00    +0.000 A 
ATOM      4  C   UNL     1      45.322   5.392  10.944  0.00  0.00    +0.000 A 
ATOM      5  C   UNL     1      44.780   4.113  10.799  0.00  0.00    +0.000 A 
ATOM      6  C   UNL     1      44.963   3.174  11.807  0.00  0.00    +0.000 A 
ATOM      7  C   UNL     1      45.777   3.470  12.894  0.00  0.00    +0.000 A 
BRANCH   5   8
ATOM      8  O   UNL     1      44.100   3.856   9.633  0.00  0.00    +0.000 OA
BRANCH   8   9
ATOM      9  C   UNL     1      44.792   4.286   8.457  0.00  0.00    +0.000 C 
BRANCH   9  10
ATOM     10  C   UNL     1      45.717   3.197   7.990  0.00  0.00    +0.000 A 
ATOM     11  C   UNL     1      46.811   3.504   7.177  0.00  0.00    +0.000 A 
ATOM     12  C   UNL     1      47.658   2.480   6.792  0.00  0.00    +0.000 A 
ATOM     13  N   UNL     1      47.497   1.192   7.166  0.00  0.00    +0.000 NA
ATOM     14  C   UNL     1      46.440   0.919   7.959  0.00  0.00    +0.000 A 
ATOM     15  C   UNL     1      45.536   1.874   8.397  0.00  0.00    +0.000 A 
ENDBRANCH   9  10
ENDBRANCH   8   9
ENDBRANCH   5   8
ENDBRANCH   1   2
BRANCH   1  16
ATOM     16  N   UNL     1      47.668   6.400  14.181  0.00  0.00    +0.000 N 
ATOM     17  C   UNL     1      48.692   7.035  13.534  0.00  0.00    +0.000 C 
ATOM     18  O   UNL     1      49.441   6.460  12.751  0.00  0.00    +0.000 OA
ATOM     19  H   UNL     1      47.204   6.874  14.944  0.00  0.00    +0.000 HD
BRANCH  17  20
ATOM     20  C   UNL     1      48.804   8.476  13.796  0.00  0.00    +0.000 A 
ATOM     21  C   UNL     1      48.839   9.383  12.747  0.00  0.00    +0.000 A 
ATOM     22  S   UNL     1      48.839  11.011  13.263  0.00  0.00    +0.000 S 
ATOM     23  C   UNL     1      48.848  10.553  14.902  0.00  0.00    +0.000 A 
ATOM     24  N   UNL     1      48.822  11.479  15.895  0.00  0.00    +0.000 NA
ATOM     25  C   UNL     1      48.797  10.984  17.091  0.00  0.00    +0.000 A 
ATOM     26  N   UNL     1      48.837   9.639  17.403  0.00  0.00    +0.000 N 
ATOM     27  C   UNL     1      48.970   8.678  16.412  0.00  0.00    +0.000 A 
ATOM     28  O   UNL     1      49.145   7.489  16.662  0.00  0.00    +0.000 OA
ATOM     29  C   UNL     1      48.882   9.184  15.054  0.00  0.00    +0.000 A 
BRANCH  26  30
ATOM     30  C   UNL     1      48.818   9.196  18.795  0.00  0.00    +0.000 C 
BRANCH  30  31
ATOM     31  C   UNL     1      47.412   8.829  19.271  0.00  0.00    +0.000 C 
BRANCH  31  32
ATOM     32  O   UNL     1      47.041   7.547  18.773  0.00  0.00    +0.000 OA
ATOM     33  H   UNL     1      47.855   7.019  18.687  0.00  0.00    +0.000 HD
ENDBRANCH  31  32
ENDBRANCH  30  31
ENDBRANCH  26  30
ENDBRANCH  17  20
ENDBRANCH   1  16
BRANCH   1  34
ATOM     34  C   UNL     1      46.940   4.418  15.511  0.00  0.00    +0.000 C 
BRANCH  34  35
ATOM     35  N   UNL     1      47.406   5.193  16.667  0.00  0.00    +0.000 NA
ATOM     36  H   UNL     1      48.238   4.753  17.056  0.00  0.00    +0.000 HD
ATOM     37  H   UNL     1      46.693   5.161  17.396  0.00  0.00    +0.000 HD
ENDBRANCH  34  35
ENDBRANCH   1  34
TORSDOF 11
ENDMDL
MODEL 4
REMARK VINA RESULT:    -7.126      4.583      8.052
REMARK INTER + INTRA:         -12.757
REMARK INTER:                 -10.976
REMARK INTRA:                  -1.781
REMARK UNBOUND:                -1.465
REMARK  Name = 
REMARK  11 active torsions:
REMARK  status: ('A' for Active; 'I' for Inactive)
REMARK    1  A    between atoms: N_1  and  C_2
REMARK    2  A    between atoms: C_2  and  C_3
REMARK    3  A    between atoms: C_3  and  N_4
REMARK    4  A    between atoms: C_3  and  C_20
REMARK    5  A    between atoms: C_5  and  C_7
REMARK    6  A    between atoms: N_13  and  C_14
REMARK    7  A    between atoms: C_14  and  C_15
REMARK    8  A    between atoms: C_15  and  O_16
REMARK    9  A    between atoms: C_23  and  O_24
REMARK   10  A    between atoms: O_24  and  C_25
REMARK   11  A    between atoms: C_25  and  C_26
REMARK                            x       y       z     vdW  Elec       q    Type
REMARK                         _______ _______ _______ _____ _____    ______ ____
ROOT
ATOM      1  C   UNL     1      46.296   8.412  11.757  0.00  0.00    +0.000 C 
ENDROOT
BRANCH   1   2
ATOM      2  C   UNL     1      47.823   8.456  11.753  0.00  0.00    +0.000 A 
ATOM      3  C   UNL     1      48.516   9.647  11.485  0.00  0.00    +0.000 A 
ATOM      4  C   UNL     1      49.912   9.694  11.594  0.00  0.00    +0.000 A 
ATOM      5  C   UNL     1      50.628   8.552  11.963  0.00  0.00    +0.000 A 
ATOM      6  C   UNL     1      49.960   7.341  12.102  0.00  0.00    +0.000 A 
ATOM      7  C   UNL     1      48.574   7.295  11.992  0.00  0.00    +0.000 A 
BRANCH   5   8
ATOM      8  O   UNL     1      51.975   8.709  12.184  0.00  0.00    +0.000 OA
BRANCH   8   9
ATOM      9  C   UNL     1      52.706   9.110  11.022  0.00  0.00    +0.000 C 
BRANCH   9  10
ATOM     10  C   UNL     1      53.006   7.905  10.175  0.00  0.00    +0.000 A 
ATOM     11  C   UNL     1      52.727   7.922   8.806  0.00  0.00    +0.000 A 
ATOM     12  C   UNL     1      53.045   6.805   8.052  0.00  0.00    +0.000 A 
ATOM     13  N   UNL     1      53.623   5.696   8.560  0.00  0.00    +0.000 NA
ATOM     14  C   UNL     1      53.892   5.704   9.883  0.00  0.00    +0.000 A 
ATOM     15  C   UNL     1      53.612   6.772  10.721  0.00  0.00    +0.000 A 
ENDBRANCH   9  10
ENDBRANCH   8   9
ENDBRANCH   5   8
ENDBRANCH   1   2
BRANCH   1  16
ATOM     16  N   UNL     1      45.891   7.034  11.548  0.00  0.00    +0.000 N 
ATOM     17  C   UNL     1      44.607   6.636  11.294  0.00  0.00    +0.000 C 
ATOM     18  O   UNL     1      43.691   7.430  11.109  0.00  0.00    +0.000 OA
ATOM     19  H   UNL     1      46.560   6.348  11.872  0.00  0.00    +0.000 HD
BRANCH  17  20
ATOM     20  C   UNL     1      44.405   5.184  11.203  0.00  0.00    +0.000 A 
ATOM     21  C   UNL     1      43.694   4.509  12.184  0.00  0.00    +0.000 A 
ATOM     22  S   UNL     1      43.459   2.855  11.829  0.00  0.00    +0.000 S 
ATOM     23  C   UNL     1      44.346   2.979  10.381  0.00  0.00    +0.000 A 
ATOM     24  N   UNL     1      44.509   1.912   9.558  0.00  0.00    +0.000 NA
ATOM     25  C   UNL     1      45.177   2.163   8.478  0.00  0.00    +0.000 A 
ATOM     26  N   UNL     1      45.741   3.380   8.149  0.00  0.00    +0.000 N 
ATOM     27  C   UNL     1      45.679   4.457   9.021  0.00  0.00    +0.000 A 
ATOM     28  O   UNL     1      46.285   5.506   8.823  0.00  0.00    +0.000 OA
ATOM     29  C   UNL     1      44.840   4.251  10.188  0.00  0.00    +0.000 A 
BRANCH  26  30
ATOM     30  C   UNL     1      46.488   3.544   6.905  0.00  0.00    +0.000 C 
BRANCH  30  31
ATOM     31  C   UNL     1      47.315   2.307   6.553  0.00  0.00    +0.000 C 
BRANCH  31  32
ATOM     32  O   UNL     1      48.682   2.664   6.369  0.00  0.00    +0.000 OA
ATOM     33  H   UNL     1      48.734   3.226   5.575  0.00  0.00    +0.000 HD
ENDBRANCH  31  32
ENDBRANCH  30  31
ENDBRANCH  26  30
ENDBRANCH  17  20
ENDBRANCH   1  16
BRANCH   1  34
ATOM     34  C   UNL     1      45.667   9.003  13.064  0.00  0.00    +0.000 C 
BRANCH  34  35
ATOM     35  N   UNL     1      44.511   9.879  12.834  0.00  0.00    +0.000 NA
ATOM     36  H   UNL     1      44.223  10.297  13.717  0.00  0.00    +0.000 HD
ATOM     37  H   UNL     1      43.726   9.314  12.510  0.00  0.00    +0.000 HD
ENDBRANCH  34  35
ENDBRANCH   1  34
TORSDOF 11
ENDMDL
MODEL 5
REMARK VINA RESULT:    -6.695      2.417      4.673
REMARK INTER + INTRA:         -12.073
REMARK INTER:                 -10.345
REMARK INTRA:                  -1.728
REMARK UNBOUND:                -1.465
REMARK  Name = 
REMARK  11 active torsions:
REMARK  status: ('A' for Active; 'I' for Inactive)
REMARK    1  A    between atoms: N_1  and  C_2
REMARK    2  A    between atoms: C_2  and  C_3
REMARK    3  A    between atoms: C_3  and  N_4
REMARK    4  A    between atoms: C_3  and  C_20
REMARK    5  A    between atoms: C_5  and  C_7
REMARK    6  A    between atoms: N_13  and  C_14
REMARK    7  A    between atoms: C_14  and  C_15
REMARK    8  A    between atoms: C_15  and  O_16
REMARK    9  A    between atoms: C_23  and  O_24
REMARK   10  A    between atoms: O_24  and  C_25
REMARK   11  A    between atoms: C_25  and  C_26
REMARK                            x       y       z     vdW  Elec       q    Type
REMARK                         _______ _______ _______ _____ _____    ______ ____
ROOT
ATOM      1  C   UNL     1      47.633   4.698  15.422  0.00  0.00    +0.000 C 
ENDROOT
BRANCH   1   2
ATOM      2  C   UNL     1      46.850   4.618  14.114  0.00  0.00    +0.000 A 
ATOM      3  C   UNL     1      46.447   3.384  13.580  0.00  0.00    +0.000 A 
ATOM      4  C   UNL     1      45.635   3.337  12.439  0.00  0.00    +0.000 A 
ATOM      5  C   UNL     1      45.226   4.518  11.817  0.00  0.00    +0.000 A 
ATOM      6  C   UNL     1      45.727   5.735  12.263  0.00  0.00    +0.000 A 
ATOM      7  C   UNL     1      46.534   5.782  13.394  0.00  0.00    +0.000 A 
BRANCH   5   8
ATOM      8  O   UNL     1      44.321   4.398  10.790  0.00  0.00    +0.000 OA
BRANCH   8   9
ATOM      9  C   UNL     1      44.243   3.078  10.244  0.00  0.00    +0.000 C 
BRANCH   9  10
ATOM     10  C   UNL     1      45.207   2.948   9.099  0.00  0.00    +0.000 A 
ATOM     11  C   UNL     1      45.718   1.695   8.750  0.00  0.00    +0.000 A 
ATOM     12  C   UNL     1      46.580   1.609   7.670  0.00  0.00    +0.000 A 
ATOM     13  N   UNL     1      46.952   2.669   6.921  0.00  0.00    +0.000 NA
ATOM     14  C   UNL     1      46.440   3.868   7.270  0.00  0.00    +0.000 A 
ATOM     15  C   UNL     1      45.570   4.056   8.333  0.00  0.00    +0.000 A 
ENDBRANCH   9  10
ENDBRANCH   8   9
ENDBRANCH   5   8
ENDBRANCH   1   2
BRANCH   1  16
ATOM     16  N   UNL     1      48.237   6.016  15.498  0.00  0.00    +0.000 N 
ATOM     17  C   UNL     1      49.417   6.289  16.134  0.00  0.00    +0.000 C 
ATOM     18  O   UNL     1      50.134   5.414  16.607  0.00  0.00    +0.000 OA
ATOM     19  H   UNL     1      47.605   6.778  15.294  0.00  0.00    +0.000 HD
BRANCH  17  20
ATOM     20  C   UNL     1      49.801   7.706  16.166  0.00  0.00    +0.000 A 
ATOM     21  C   UNL     1      49.921   8.376  17.374  0.00  0.00    +0.000 A 
ATOM     22  S   UNL     1      50.502   9.974  17.205  0.00  0.00    +0.000 S 
ATOM     23  C   UNL     1      50.557   9.836  15.509  0.00  0.00    +0.000 A 
ATOM     24  N   UNL     1      51.001  10.857  14.731  0.00  0.00    +0.000 NA
ATOM     25  C   UNL     1      51.019  10.597  13.463  0.00  0.00    +0.000 A 
ATOM     26  N   UNL     1      50.596   9.419  12.880  0.00  0.00    +0.000 N 
ATOM     27  C   UNL     1      50.041   8.401  13.642  0.00  0.00    +0.000 A 
ATOM     28  O   UNL     1      49.531   7.402  13.143  0.00  0.00    +0.000 OA
ATOM     29  C   UNL     1      50.111   8.606  15.078  0.00  0.00    +0.000 A 
BRANCH  26  30
ATOM     30  C   UNL     1      50.651   9.243  11.431  0.00  0.00    +0.000 C 
BRANCH  30  31
ATOM     31  C   UNL     1      51.885   8.458  10.984  0.00  0.00    +0.000 C 
BRANCH  31  32
ATOM     32  O   UNL     1      51.580   7.070  10.893  0.00  0.00    +0.000 OA
ATOM     33  H   UNL     1      51.766   6.789   9.979  0.00  0.00    +0.000 HD
ENDBRANCH  31  32
ENDBRANCH  30  31
ENDBRANCH  26  30
ENDBRANCH  17  20
ENDBRANCH   1  16
BRANCH   1  34
ATOM     34  C   UNL     1      46.757   4.395  16.684  0.00  0.00    +0.000 C 
BRANCH  34  35
ATOM     35  N   UNL     1      46.939   3.046  17.235  0.00  0.00    +0.000 NA
ATOM     36  H   UNL     1      47.570   2.518  16.634  0.00  0.00    +0.000 HD
ATOM     37  H   UNL     1      46.045   2.557  17.218  0.00  0.00    +0.000 HD
ENDBRANCH  34  35
ENDBRANCH   1  34
TORSDOF 11
ENDMDL
MODEL 6
REMARK VINA RESULT:    -6.441      2.402      4.147
REMARK INTER + INTRA:         -11.671
REMARK INTER:                 -10.888
REMARK INTRA:                  -0.783
REMARK UNBOUND:                -1.465
REMARK  Name = 
REMARK  11 active torsions:
REMARK  status: ('A' for Active; 'I' for Inactive)
REMARK    1  A    between atoms: N_1  and  C_2
REMARK    2  A    between atoms: C_2  and  C_3
REMARK    3  A    between atoms: C_3  and  N_4
REMARK    4  A    between atoms: C_3  and  C_20
REMARK    5  A    between atoms: C_5  and  C_7
REMARK    6  A    between atoms: N_13  and  C_14
REMARK    7  A    between atoms: C_14  and  C_15
REMARK    8  A    between atoms: C_15  and  O_16
REMARK    9  A    between atoms: C_23  and  O_24
REMARK   10  A    between atoms: O_24  and  C_25
REMARK   11  A    between atoms: C_25  and  C_26
REMARK                            x       y       z     vdW  Elec       q    Type
REMARK                         _______ _______ _______ _____ _____    ______ ____
ROOT
ATOM      1  C   UNL     1      45.334   7.834  12.873  0.00  0.00    +0.000 C 
ENDROOT
BRANCH   1   2
ATOM      2  C   UNL     1      45.176   6.575  12.022  0.00  0.00    +0.000 A 
ATOM      3  C   UNL     1      44.318   5.535  12.412  0.00  0.00    +0.000 A 
ATOM      4  C   UNL     1      44.102   4.439  11.566  0.00  0.00    +0.000 A 
ATOM      5  C   UNL     1      44.746   4.368  10.329  0.00  0.00    +0.000 A 
ATOM      6  C   UNL     1      45.694   5.328   9.995  0.00  0.00    +0.000 A 
ATOM      7  C   UNL     1      45.909   6.414  10.836  0.00  0.00    +0.000 A 
BRANCH   5   8
ATOM      8  O   UNL     1      44.380   3.337   9.497  0.00  0.00    +0.000 OA
BRANCH   8   9
ATOM      9  C   UNL     1      44.631   3.599   8.114  0.00  0.00    +0.000 C 
BRANCH   9  10
ATOM     10  C   UNL     1      45.819   2.799   7.657  0.00  0.00    +0.000 A 
ATOM     11  C   UNL     1      46.796   3.390   6.851  0.00  0.00    +0.000 A 
ATOM     12  C   UNL     1      47.891   2.632   6.476  0.00  0.00    +0.000 A 
ATOM     13  N   UNL     1      48.081   1.349   6.852  0.00  0.00    +0.000 NA
ATOM     14  C   UNL     1      47.130   0.801   7.638  0.00  0.00    +0.000 A 
ATOM     15  C   UNL     1      45.999   1.477   8.067  0.00  0.00    +0.000 A 
ENDBRANCH   9  10
ENDBRANCH   8   9
ENDBRANCH   5   8
ENDBRANCH   1   2
BRANCH   1  16
ATOM     16  N   UNL     1      46.694   7.859  13.380  0.00  0.00    +0.000 N 
ATOM     17  C   UNL     1      47.315   6.797  13.978  0.00  0.00    +0.000 C 
ATOM     18  O   UNL     1      46.809   5.681  14.041  0.00  0.00    +0.000 OA
ATOM     19  H   UNL     1      47.071   8.786  13.518  0.00  0.00    +0.000 HD
BRANCH  17  20
ATOM     20  C   UNL     1      48.661   7.067  14.499  0.00  0.00    +0.000 A 
ATOM     21  C   UNL     1      49.005   6.698  15.790  0.00  0.00    +0.000 A 
ATOM     22  S   UNL     1      50.649   6.980  16.158  0.00  0.00    +0.000 S 
ATOM     23  C   UNL     1      50.937   7.654  14.622  0.00  0.00    +0.000 A 
ATOM     24  N   UNL     1      52.173   8.083  14.259  0.00  0.00    +0.000 NA
ATOM     25  C   UNL     1      52.251   8.540  13.050  0.00  0.00    +0.000 A 
ATOM     26  N   UNL     1      51.195   8.652  12.167  0.00  0.00    +0.000 N 
ATOM     27  C   UNL     1      49.903   8.319  12.549  0.00  0.00    +0.000 A 
ATOM     28  O   UNL     1      48.926   8.535  11.837  0.00  0.00    +0.000 OA
ATOM     29  C   UNL     1      49.794   7.693  13.854  0.00  0.00    +0.000 A 
BRANCH  26  30
ATOM     30  C   UNL     1      51.398   9.198  10.828  0.00  0.00    +0.000 C 
BRANCH  30  31
ATOM     31  C   UNL     1      52.483   8.451  10.051  0.00  0.00    +0.000 C 
BRANCH  31  32
ATOM     32  O   UNL     1      52.040   7.137   9.724  0.00  0.00    +0.000 OA
ATOM     33  H   UNL     1      52.350   6.940   8.822  0.00  0.00    +0.000 HD
ENDBRANCH  31  32
ENDBRANCH  30  31
ENDBRANCH  26  30
ENDBRANCH  17  20
ENDBRANCH   1  16
BRANCH   1  34
ATOM     34  C   UNL     1      44.987   9.149  12.097  0.00  0.00    +0.000 C 
BRANCH  34  35
ATOM     35  N   UNL     1      46.124  10.057  11.910  0.00  0.00    +0.000 NA
ATOM     36  H   UNL     1      46.865   9.572  11.405  0.00  0.00    +0.000 HD
ATOM     37  H   UNL     1      46.507  10.301  12.823  0.00  0.00    +0.000 HD
ENDBRANCH  34  35
ENDBRANCH   1  34
TORSDOF 11
ENDMDL
MODEL 7
REMARK VINA RESULT:    -6.185      3.381      5.705
REMARK INTER + INTRA:         -11.266
REMARK INTER:                 -10.185
REMARK INTRA:                  -1.081
REMARK UNBOUND:                -1.465
REMARK  Name = 
REMARK  11 active torsions:
REMARK  status: ('A' for Active; 'I' for Inactive)
REMARK    1  A    between atoms: N_1  and  C_2
REMARK    2  A    between atoms: C_2  and  C_3
REMARK    3  A    between atoms: C_3  and  N_4
REMARK    4  A    between atoms: C_3  and  C_20
REMARK    5  A    between atoms: C_5  and  C_7
REMARK    6  A    between atoms: N_13  and  C_14
REMARK    7  A    between atoms: C_14  and  C_15
REMARK    8  A    between atoms: C_15  and  O_16
REMARK    9  A    between atoms: C_23  and  O_24
REMARK   10  A    between atoms: O_24  and  C_25
REMARK   11  A    between atoms: C_25  and  C_26
REMARK                            x       y       z     vdW  Elec       q    Type
REMARK                         _______ _______ _______ _____ _____    ______ ____
ROOT
ATOM      1  C   UNL     1      48.121   4.059  17.700  0.00  0.00    +0.000 C 
ENDROOT
BRANCH   1   2
ATOM      2  C   UNL     1      47.934   4.666  16.311  0.00  0.00    +0.000 A 
ATOM      3  C   UNL     1      47.153   4.027  15.336  0.00  0.00    +0.000 A 
ATOM      4  C   UNL     1      46.903   4.653  14.107  0.00  0.00    +0.000 A 
ATOM      5  C   UNL     1      47.437   5.915  13.838  0.00  0.00    +0.000 A 
ATOM      6  C   UNL     1      48.315   6.494  14.747  0.00  0.00    +0.000 A 
ATOM      7  C   UNL     1      48.564   5.872  15.965  0.00  0.00    +0.000 A 
BRANCH   5   8
ATOM      8  O   UNL     1      47.036   6.524  12.673  0.00  0.00    +0.000 OA
BRANCH   8   9
ATOM      9  C   UNL     1      45.664   6.930  12.680  0.00  0.00    +0.000 C 
BRANCH   9  10
ATOM     10  C   UNL     1      44.835   5.918  11.940  0.00  0.00    +0.000 A 
ATOM     11  C   UNL     1      45.289   5.387  10.730  0.00  0.00    +0.000 A 
ATOM     12  C   UNL     1      44.513   4.434  10.093  0.00  0.00    +0.000 A 
ATOM     13  N   UNL     1      43.340   3.975  10.578  0.00  0.00    +0.000 NA
ATOM     14  C   UNL     1      42.924   4.494  11.753  0.00  0.00    +0.000 A 
ATOM     15  C   UNL     1      43.629   5.451  12.466  0.00  0.00    +0.000 A 
ENDBRANCH   9  10
ENDBRANCH   8   9
ENDBRANCH   5   8
ENDBRANCH   1   2
BRANCH   1  16
ATOM     16  N   UNL     1      49.503   3.631  17.815  0.00  0.00    +0.000 N 
ATOM     17  C   UNL     1      50.044   2.573  17.136  0.00  0.00    +0.000 C 
ATOM     18  O   UNL     1      49.428   1.953  16.276  0.00  0.00    +0.000 OA
ATOM     19  H   UNL     1      49.984   3.983  18.632  0.00  0.00    +0.000 HD
BRANCH  17  20
ATOM     20  C   UNL     1      51.439   2.259  17.469  0.00  0.00    +0.000 A 
ATOM     21  C   UNL     1      51.840   0.945  17.658  0.00  0.00    +0.000 A 
ATOM     22  S   UNL     1      53.522   0.782  17.906  0.00  0.00    +0.000 S 
ATOM     23  C   UNL     1      53.757   2.466  17.822  0.00  0.00    +0.000 A 
ATOM     24  N   UNL     1      54.995   3.013  17.929  0.00  0.00    +0.000 NA
ATOM     25  C   UNL     1      55.025   4.302  17.813  0.00  0.00    +0.000 A 
ATOM     26  N   UNL     1      53.924   5.117  17.638  0.00  0.00    +0.000 N 
ATOM     27  C   UNL     1      52.639   4.593  17.632  0.00  0.00    +0.000 A 
ATOM     28  O   UNL     1      51.635   5.300  17.616  0.00  0.00    +0.000 OA
ATOM     29  C   UNL     1      52.570   3.143  17.641  0.00  0.00    +0.000 A 
BRANCH  26  30
ATOM     30  C   UNL     1      54.077   6.565  17.533  0.00  0.00    +0.000 C 
BRANCH  30  31
ATOM     31  C   UNL     1      54.376   7.018  16.104  0.00  0.00    +0.000 C 
BRANCH  31  32
ATOM     32  O   UNL     1      53.310   6.647  15.235  0.00  0.00    +0.000 OA
ATOM     33  H   UNL     1      52.531   7.173  15.487  0.00  0.00    +0.000 HD
ENDBRANCH  31  32
ENDBRANCH  30  31
ENDBRANCH  26  30
ENDBRANCH  17  20
ENDBRANCH   1  16
BRANCH   1  34
ATOM     34  C   UNL     1      47.724   5.035  18.858  0.00  0.00    +0.000 C 
BRANCH  34  35
ATOM     35  N   UNL     1      46.323   5.470  18.826  0.00  0.00    +0.000 NA
ATOM     36  H   UNL     1      46.101   5.829  17.899  0.00  0.00    +0.000 HD
ATOM     37  H   UNL     1      46.202   6.248  19.475  0.00  0.00    +0.000 HD
ENDBRANCH  34  35
ENDBRANCH   1  34
TORSDOF 11
ENDMDL
MODEL 8
REMARK VINA RESULT:    -6.178      3.336      7.675
REMARK INTER + INTRA:         -11.254
REMARK INTER:                  -9.591
REMARK INTRA:                  -1.663
REMARK UNBOUND:                -1.465
REMARK  Name = 
REMARK  11 active torsions:
REMARK  status: ('A' for Active; 'I' for Inactive)
REMARK    1  A    between atoms: N_1  and  C_2
REMARK    2  A    between atoms: C_2  and  C_3
REMARK    3  A    between atoms: C_3  and  N_4
REMARK    4  A    between atoms: C_3  and  C_20
REMARK    5  A    between atoms: C_5  and  C_7
REMARK    6  A    between atoms: N_13  and  C_14
REMARK    7  A    between atoms: C_14  and  C_15
REMARK    8  A    between atoms: C_15  and  O_16
REMARK    9  A    between atoms: C_23  and  O_24
REMARK   10  A    between atoms: O_24  and  C_25
REMARK   11  A    between atoms: C_25  and  C_26
REMARK                            x       y       z     vdW  Elec       q    Type
REMARK                         _______ _______ _______ _____ _____    ______ ____
ROOT
ATOM      1  C   UNL     1      49.195   9.434  14.794  0.00  0.00    +0.000 C 
ENDROOT
BRANCH   1   2
ATOM      2  C   UNL     1      49.346   8.342  15.851  0.00  0.00    +0.000 A 
ATOM      3  C   UNL     1      50.369   7.384  15.768  0.00  0.00    +0.000 A 
ATOM      4  C   UNL     1      50.559   6.459  16.803  0.00  0.00    +0.000 A 
ATOM      5  C   UNL     1      49.725   6.476  17.923  0.00  0.00    +0.000 A 
ATOM      6  C   UNL     1      48.632   7.335  17.950  0.00  0.00    +0.000 A 
ATOM      7  C   UNL     1      48.443   8.251  16.922  0.00  0.00    +0.000 A 
BRANCH   5   8
ATOM      8  O   UNL     1      50.057   5.633  18.957  0.00  0.00    +0.000 OA
BRANCH   8   9
ATOM      9  C   UNL     1      49.098   4.597  19.185  0.00  0.00    +0.000 C 
BRANCH   9  10
ATOM     10  C   UNL     1      49.219   3.552  18.111  0.00  0.00    +0.000 A 
ATOM     11  C   UNL     1      48.137   3.280  17.271  0.00  0.00    +0.000 A 
ATOM     12  C   UNL     1      48.295   2.334  16.274  0.00  0.00    +0.000 A 
ATOM     13  N   UNL     1      49.445   1.659  16.054  0.00  0.00    +0.000 NA
ATOM     14  C   UNL     1      50.480   1.944  16.872  0.00  0.00    +0.000 A 
ATOM     15  C   UNL     1      50.421   2.875  17.897  0.00  0.00    +0.000 A 
ENDBRANCH   9  10
ENDBRANCH   8   9
ENDBRANCH   5   8
ENDBRANCH   1   2
BRANCH   1  16
ATOM     16  N   UNL     1      47.921   9.235  14.128  0.00  0.00    +0.000 N 
ATOM     17  C   UNL     1      47.755   8.518  12.975  0.00  0.00    +0.000 C 
ATOM     18  O   UNL     1      48.663   7.879  12.454  0.00  0.00    +0.000 OA
ATOM     19  H   UNL     1      47.197   9.883  14.408  0.00  0.00    +0.000 HD
BRANCH  17  20
ATOM     20  C   UNL     1      46.393   8.518  12.424  0.00  0.00    +0.000 A 
ATOM     21  C   UNL     1      45.794   9.704  12.026  0.00  0.00    +0.000 A 
ATOM     22  S   UNL     1      44.268   9.477  11.294  0.00  0.00    +0.000 S 
ATOM     23  C   UNL     1      44.338   7.793  11.537  0.00  0.00    +0.000 A 
ATOM     24  N   UNL     1      43.342   6.975  11.109  0.00  0.00    +0.000 NA
ATOM     25  C   UNL     1      43.546   5.716  11.332  0.00  0.00    +0.000 A 
ATOM     26  N   UNL     1      44.642   5.186  11.984  0.00  0.00    +0.000 N 
ATOM     27  C   UNL     1      45.621   6.007  12.523  0.00  0.00    +0.000 A 
ATOM     28  O   UNL     1      46.533   5.578  13.224  0.00  0.00    +0.000 OA
ATOM     29  C   UNL     1      45.489   7.415  12.193  0.00  0.00    +0.000 A 
BRANCH  26  30
ATOM     30  C   UNL     1      44.760   3.745  12.191  0.00  0.00    +0.000 C 
BRANCH  30  31
ATOM     31  C   UNL     1      44.003   2.939  11.135  0.00  0.00    +0.000 C 
BRANCH  31  32
ATOM     32  O   UNL     1      42.974   2.168  11.747  0.00  0.00    +0.000 OA
ATOM     33  H   UNL     1      42.219   2.145  11.132  0.00  0.00    +0.000 HD
ENDBRANCH  31  32
ENDBRANCH  30  31
ENDBRANCH  26  30
ENDBRANCH  17  20
ENDBRANCH   1  16
BRANCH   1  34
ATOM     34  C   UNL     1      49.316  10.880  15.381  0.00  0.00    +0.000 C 
BRANCH  34  35
ATOM     35  N   UNL     1      50.528  11.107  16.179  0.00  0.00    +0.000 NA
ATOM     36  H   UNL     1      50.638  12.105  16.350  0.00  0.00    +0.000 HD
ATOM     37  H   UNL     1      51.341  10.814  15.638  0.00  0.00    +0.000 HD
ENDBRANCH  34  35
ENDBRANCH   1  34
TORSDOF 11
ENDMDL
MODEL 9
REMARK VINA RESULT:    -5.867      3.781      6.819
REMARK INTER + INTRA:         -10.762
REMARK INTER:                  -8.431
REMARK INTRA:                  -2.331
REMARK UNBOUND:                -1.465
REMARK  Name = 
REMARK  11 active torsions:
REMARK  status: ('A' for Active; 'I' for Inactive)
REMARK    1  A    between atoms: N_1  and  C_2
REMARK    2  A    between atoms: C_2  and  C_3
REMARK    3  A    between atoms: C_3  and  N_4
REMARK    4  A    between atoms: C_3  and  C_20
REMARK    5  A    between atoms: C_5  and  C_7
REMARK    6  A    between atoms: N_13  and  C_14
REMARK    7  A    between atoms: C_14  and  C_15
REMARK    8  A    between atoms: C_15  and  O_16
REMARK    9  A    between atoms: C_23  and  O_24
REMARK   10  A    between atoms: O_24  and  C_25
REMARK   11  A    between atoms: C_25  and  C_26
REMARK                            x       y       z     vdW  Elec       q    Type
REMARK                         _______ _______ _______ _____ _____    ______ ____
ROOT
ATOM      1  C   UNL     1      46.395   5.485  13.230  0.00  0.00    +0.000 C 
ENDROOT
BRANCH   1   2
ATOM      2  C   UNL     1      46.850   6.845  12.703  0.00  0.00    +0.000 A 
ATOM      3  C   UNL     1      46.001   7.962  12.741  0.00  0.00    +0.000 A 
ATOM      4  C   UNL     1      46.472   9.224  12.355  0.00  0.00    +0.000 A 
ATOM      5  C   UNL     1      47.790   9.380  11.921  0.00  0.00    +0.000 A 
ATOM      6  C   UNL     1      48.595   8.258  11.759  0.00  0.00    +0.000 A 
ATOM      7  C   UNL     1      48.125   7.006  12.139  0.00  0.00    +0.000 A 
BRANCH   5   8
ATOM      8  O   UNL     1      48.221  10.665  11.693  0.00  0.00    +0.000 OA
BRANCH   8   9
ATOM      9  C   UNL     1      48.156  11.506  12.848  0.00  0.00    +0.000 C 
BRANCH   9  10
ATOM     10  C   UNL     1      49.339  11.235  13.736  0.00  0.00    +0.000 A 
ATOM     11  C   UNL     1      49.145  10.841  15.062  0.00  0.00    +0.000 A 
ATOM     12  C   UNL     1      50.257  10.570  15.841  0.00  0.00    +0.000 A 
ATOM     13  N   UNL     1      51.527  10.654  15.391  0.00  0.00    +0.000 NA
ATOM     14  C   UNL     1      51.691  11.028  14.104  0.00  0.00    +0.000 A 
ATOM     15  C   UNL     1      50.643  11.319  13.246  0.00  0.00    +0.000 A 
ENDBRANCH   9  10
ENDBRANCH   8   9
ENDBRANCH   5   8
ENDBRANCH   1   2
BRANCH   1  16
ATOM     16  N   UNL     1      46.980   5.301  14.545  0.00  0.00    +0.000 N 
ATOM     17  C   UNL     1      47.393   4.097  15.046  0.00  0.00    +0.000 C 
ATOM     18  O   UNL     1      47.407   3.070  14.376  0.00  0.00    +0.000 OA
ATOM     19  H   UNL     1      46.817   6.066  15.186  0.00  0.00    +0.000 HD
BRANCH  17  20
ATOM     20  C   UNL     1      47.873   4.123  16.434  0.00  0.00    +0.000 A 
ATOM     21  C   UNL     1      47.298   3.305  17.394  0.00  0.00    +0.000 A 
ATOM     22  S   UNL     1      48.083   3.389  18.909  0.00  0.00    +0.000 S 
ATOM     23  C   UNL     1      49.179   4.561  18.342  0.00  0.00    +0.000 A 
ATOM     24  N   UNL     1      50.159   5.056  19.140  0.00  0.00    +0.000 NA
ATOM     25  C   UNL     1      50.939   5.915  18.564  0.00  0.00    +0.000 A 
ATOM     26  N   UNL     1      50.813   6.367  17.265  0.00  0.00    +0.000 N 
ATOM     27  C   UNL     1      49.758   5.956  16.463  0.00  0.00    +0.000 A 
ATOM     28  O   UNL     1      49.539   6.441  15.357  0.00  0.00    +0.000 OA
ATOM     29  C   UNL     1      48.931   4.906  17.031  0.00  0.00    +0.000 A 
BRANCH  26  30
ATOM     30  C   UNL     1      51.746   7.351  16.725  0.00  0.00    +0.000 C 
BRANCH  30  31
ATOM     31  C   UNL     1      52.984   6.703  16.105  0.00  0.00    +0.000 C 
BRANCH  31  32
ATOM     32  O   UNL     1      53.135   7.122  14.752  0.00  0.00    +0.000 OA
ATOM     33  H   UNL     1      52.286   6.968  14.301  0.00  0.00    +0.000 HD
ENDBRANCH  31  32
ENDBRANCH  30  31
ENDBRANCH  26  30
ENDBRANCH  17  20
ENDBRANCH   1  16
BRANCH   1  34
ATOM     34  C   UNL     1      44.838   5.329  13.267  0.00  0.00    +0.000 C 
BRANCH  34  35
ATOM     35  N   UNL     1      44.371   3.937  13.266  0.00  0.00    +0.000 NA
ATOM     36  H   UNL     1      43.686   3.810  14.008  0.00  0.00    +0.000 HD
ATOM     37  H   UNL     1      45.156   3.324  13.487  0.00  0.00    +0.000 HD
ENDBRANCH  34  35
ENDBRANCH   1  34
TORSDOF 11
ENDMDL
