MODEL 1
REMARK VINA RESULT:    -8.473      0.000      0.000
REMARK INTER + INTRA:         -12.257
REMARK INTER:                 -11.941
REMARK INTRA:                  -0.316
REMARK UNBOUND:                -0.316
REMARK  Name = 
REMARK  8 active torsions:
REMARK  status: ('A' for Active; 'I' for Inactive)
REMARK    1  A    between atoms: C_1  and  C_2
REMARK    2  A    between atoms: C_2  and  N_3
REMARK    3  A    between atoms: C_2  and  C_25
REMARK    4  A    between atoms: N_3  and  C_4
REMARK    5  A    between atoms: C_4  and  C_5
REMARK    6  A    between atoms: C_8  and  C_9
REMARK    7  A    between atoms: C_9  and  N_10
REMARK    8  A    between atoms: C_11  and  C_13
REMARK                            x       y       z     vdW  Elec       q    Type
REMARK                         _______ _______ _______ _____ _____    ______ ____
ROOT
ATOM      1  C   UNL     1      44.945   5.568  11.319  0.00  0.00    +0.000 C 
ATOM      2  C   UNL     1      44.612   4.294  12.124  0.00  0.00    +0.000 C 
ATOM      3  C   UNL     1      45.849   3.509  12.549  0.00  0.00    +0.000 C 
ATOM      4  C   UNL     1      46.861   4.365  13.327  0.00  0.00    +0.000 C 
ATOM      5  C   UNL     1      47.238   5.597  12.493  0.00  0.00    +0.000 C 
ATOM      6  C   UNL     1      46.025   6.407  12.025  0.00  0.00    +0.000 C 
ENDROOT
BRANCH   1   7
ATOM      7  C   UNL     1      45.355   5.267   9.860  0.00  0.00    +0.000 C 
BRANCH   7   8
ATOM      8  N   UNL     1      44.507   4.214   9.307  0.00  0.00    +0.000 NA
ATOM      9  H   UNL     1      44.305   4.423   8.328  0.00  0.00    +0.000 HD
BRANCH   8  11
ATOM     10  C   UNL     1      44.050   1.747   9.468  0.00  0.00    +0.000 C 
ATOM     11  C   UNL     1      45.096   2.860   9.351  0.00  0.00    +0.000 C 
BRANCH  11  12
ATOM     12  C   UNL     1      45.944   2.620   8.102  0.00  0.00    +0.000 A 
ATOM     13  C   UNL     1      46.022   3.598   7.108  0.00  0.00    +0.000 A 
ATOM     14  C   UNL     1      46.798   3.360   5.976  0.00  0.00    +0.000 A 
ATOM     15  C   UNL     1      47.484   2.158   5.870  0.00  0.00    +0.000 A 
ATOM     16  C   UNL     1      47.367   1.244   6.904  0.00  0.00    +0.000 A 
ATOM     17  N   UNL     1      46.618   1.444   8.010  0.00  0.00    +0.000 NA
ENDBRANCH  11  12
ENDBRANCH   8  11
ENDBRANCH   7   8
ENDBRANCH   1   7
BRANCH   4  18
ATOM     18  C   UNL     1      46.358   4.778  14.719  0.00  0.00    +0.000 C 
BRANCH  18  19
ATOM     19  N   UNL     1      47.425   4.872  15.689  0.00  0.00    +0.000 N 
ATOM     20  C   UNL     1      47.563   4.050  16.773  0.00  0.00    +0.000 C 
ATOM     21  O   UNL     1      46.704   3.246  17.124  0.00  0.00    +0.000 OA
ATOM     22  H   UNL     1      48.193   5.481  15.434  0.00  0.00    +0.000 HD
BRANCH  20  23
ATOM     23  C   UNL     1      48.825   4.208  17.510  0.00  0.00    +0.000 A 
ATOM     24  C   UNL     1      49.013   5.269  18.380  0.00  0.00    +0.000 A 
ATOM     25  S   UNL     1      50.530   5.241  19.167  0.00  0.00    +0.000 S 
ATOM     26  C   UNL     1      50.957   3.774  18.416  0.00  0.00    +0.000 A 
ATOM     27  N   UNL     1      52.128   3.146  18.708  0.00  0.00    +0.000 NA
ATOM     28  C   UNL     1      52.293   2.015  18.108  0.00  0.00    +0.000 A 
ATOM     29  N   UNL     1      51.405   1.465  17.220  0.00  0.00    +0.000 N 
ATOM     30  C   UNL     1      50.268   2.117  16.812  0.00  0.00    +0.000 A 
ATOM     31  O   UNL     1      49.604   1.688  15.873  0.00  0.00    +0.000 OA
ATOM     32  C   UNL     1      49.987   3.346  17.528  0.00  0.00    +0.000 A 
ATOM     33  H   UNL     1      51.619   0.605  16.737  0.00  0.00    +0.000 HD
ENDBRANCH  20  23
ENDBRANCH  18  19
ENDBRANCH   4  18
TORSDOF 7
ENDMDL
MODEL 2
REMARK VINA RESULT:    -8.199      1.978      2.500
REMARK INTER + INTRA:         -11.871
REMARK INTER:                 -11.055
REMARK INTRA:                  -0.815
REMARK UNBOUND:                -0.316
REMARK  Name = 
REMARK  8 active torsions:
REMARK  status: ('A' for Active; 'I' for Inactive)
REMARK    1  A    between atoms: C_1  and  C_2
REMARK    2  A    between atoms: C_2  and  N_3
REMARK    3  A    between atoms: C_2  and  C_25
REMARK    4  A    between atoms: N_3  and  C_4
REMARK    5  A    between atoms: C_4  and  C_5
REMARK    6  A    between atoms: C_8  and  C_9
REMARK    7  A    between atoms: C_9  and  N_10
REMARK    8  A    between atoms: C_11  and  C_13
REMARK                            x       y       z     vdW  Elec       q    Type
REMARK                         _______ _______ _______ _____ _____    ______ ____
ROOT
ATOM      1  C   UNL     1      43.828   6.051  11.475  0.00  0.00    +0.000 C 
ATOM      2  C   UNL     1      44.116   5.674  12.943  0.00  0.00    +0.000 C 
ATOM      3  C   UNL     1      45.458   4.972  13.134  0.00  0.00    +0.000 C 
ATOM      4  C   UNL     1      46.637   5.776  12.564  0.00  0.00    +0.000 C 
ATOM      5  C   UNL     1      46.375   6.092  11.084  0.00  0.00    +0.000 C 
ATOM      6  C   UNL     1      45.027   6.779  10.841  0.00  0.00    +0.000 C 
ENDROOT
BRANCH   1   7
ATOM      7  C   UNL     1      43.409   4.838  10.614  0.00  0.00    +0.000 C 
BRANCH   7   8
ATOM      8  N   UNL     1      44.450   4.532   9.636  0.00  0.00    +0.000 NA
ATOM      9  H   UNL     1      45.197   5.224   9.712  0.00  0.00    +0.000 HD
BRANCH   8  11
ATOM     10  C   UNL     1      44.061   2.099  10.134  0.00  0.00    +0.000 C 
ATOM     11  C   UNL     1      45.070   3.201   9.791  0.00  0.00    +0.000 C 
BRANCH  11  12
ATOM     12  C   UNL     1      45.812   2.819   8.511  0.00  0.00    +0.000 A 
ATOM     13  C   UNL     1      46.054   3.779   7.526  0.00  0.00    +0.000 A 
ATOM     14  C   UNL     1      46.730   3.411   6.365  0.00  0.00    +0.000 A 
ATOM     15  C   UNL     1      47.156   2.098   6.221  0.00  0.00    +0.000 A 
ATOM     16  C   UNL     1      46.890   1.207   7.248  0.00  0.00    +0.000 A 
ATOM     17  N   UNL     1      46.232   1.533   8.382  0.00  0.00    +0.000 NA
ENDBRANCH  11  12
ENDBRANCH   8  11
ENDBRANCH   7   8
ENDBRANCH   1   7
BRANCH   4  18
ATOM     18  C   UNL     1      46.932   7.061  13.354  0.00  0.00    +0.000 C 
BRANCH  18  19
ATOM     19  N   UNL     1      47.532   6.795  14.641  0.00  0.00    +0.000 N 
ATOM     20  C   UNL     1      48.872   6.859  14.900  0.00  0.00    +0.000 C 
ATOM     21  O   UNL     1      49.723   6.993  14.026  0.00  0.00    +0.000 OA
ATOM     22  H   UNL     1      46.884   6.725  15.417  0.00  0.00    +0.000 HD
BRANCH  20  23
ATOM     23  C   UNL     1      49.233   6.738  16.321  0.00  0.00    +0.000 A 
ATOM     24  C   UNL     1      49.926   7.747  16.968  0.00  0.00    +0.000 A 
ATOM     25  S   UNL     1      50.205   7.426  18.623  0.00  0.00    +0.000 S 
ATOM     26  C   UNL     1      49.353   5.955  18.540  0.00  0.00    +0.000 A 
ATOM     27  N   UNL     1      49.152   5.191  19.648  0.00  0.00    +0.000 NA
ATOM     28  C   UNL     1      48.440   4.133  19.448  0.00  0.00    +0.000 A 
ATOM     29  N   UNL     1      47.932   3.752  18.233  0.00  0.00    +0.000 N 
ATOM     30  C   UNL     1      48.205   4.430  17.072  0.00  0.00    +0.000 A 
ATOM     31  O   UNL     1      47.903   3.953  15.982  0.00  0.00    +0.000 OA
ATOM     32  C   UNL     1      48.919   5.680  17.256  0.00  0.00    +0.000 A 
ATOM     33  H   UNL     1      47.433   2.881  18.129  0.00  0.00    +0.000 HD
ENDBRANCH  20  23
ENDBRANCH  18  19
ENDBRANCH   4  18
TORSDOF 7
ENDMDL
MODEL 3
REMARK VINA RESULT:    -8.194      4.867      5.556
REMARK INTER + INTRA:         -11.863
REMARK INTER:                 -10.805
REMARK INTRA:                  -1.059
REMARK UNBOUND:                -0.316
REMARK  Name = 
REMARK  8 active torsions:
REMARK  status: ('A' for Active; 'I' for Inactive)
REMARK    1  A    between atoms: C_1  and  C_2
REMARK    2  A    between atoms: C_2  and  N_3
REMARK    3  A    between atoms: C_2  and  C_25
REMARK    4  A    between atoms: N_3  and  C_4
REMARK    5  A    between atoms: C_4  and  C_5
REMARK    6  A    between atoms: C_8  and  C_9
REMARK    7  A    between atoms: C_9  and  N_10
REMARK    8  A    between atoms: C_11  and  C_13
REMARK                            x       y       z     vdW  Elec       q    Type
REMARK                         _______ _______ _______ _____ _____    ______ ____
ROOT
ATOM      1  C   UNL     1      44.171   3.963  12.728  0.00  0.00    +0.000 C 
ATOM      2  C   UNL     1      45.606   4.504  12.559  0.00  0.00    +0.000 C 
ATOM      3  C   UNL     1      45.728   5.555  11.458  0.00  0.00    +0.000 C 
ATOM      4  C   UNL     1      44.750   6.726  11.642  0.00  0.00    +0.000 C 
ATOM      5  C   UNL     1      43.316   6.186  11.744  0.00  0.00    +0.000 C 
ATOM      6  C   UNL     1      43.150   5.111  12.822  0.00  0.00    +0.000 C 
ENDROOT
BRANCH   1   7
ATOM      7  C   UNL     1      43.770   2.966  11.618  0.00  0.00    +0.000 C 
BRANCH   7   8
ATOM      8  N   UNL     1      44.875   2.787  10.679  0.00  0.00    +0.000 NA
ATOM      9  H   UNL     1      45.302   1.872  10.831  0.00  0.00    +0.000 HD
BRANCH   8  11
ATOM     10  C   UNL     1      44.112   4.272   8.799  0.00  0.00    +0.000 C 
ATOM     11  C   UNL     1      44.491   2.859   9.255  0.00  0.00    +0.000 C 
BRANCH  11  12
ATOM     12  C   UNL     1      45.634   2.342   8.381  0.00  0.00    +0.000 A 
ATOM     13  C   UNL     1      46.380   3.230   7.603  0.00  0.00    +0.000 A 
ATOM     14  C   UNL     1      47.416   2.739   6.812  0.00  0.00    +0.000 A 
ATOM     15  C   UNL     1      47.688   1.378   6.826  0.00  0.00    +0.000 A 
ATOM     16  C   UNL     1      46.912   0.563   7.633  0.00  0.00    +0.000 A 
ATOM     17  N   UNL     1      45.897   1.009   8.407  0.00  0.00    +0.000 NA
ENDBRANCH  11  12
ENDBRANCH   8  11
ENDBRANCH   7   8
ENDBRANCH   1   7
BRANCH   4  18
ATOM     18  C   UNL     1      45.088   7.614  12.850  0.00  0.00    +0.000 C 
BRANCH  18  19
ATOM     19  N   UNL     1      46.400   8.211  12.749  0.00  0.00    +0.000 N 
ATOM     20  C   UNL     1      46.653   9.440  12.207  0.00  0.00    +0.000 C 
ATOM     21  O   UNL     1      45.811  10.098  11.603  0.00  0.00    +0.000 OA
ATOM     22  H   UNL     1      47.131   7.744  13.271  0.00  0.00    +0.000 HD
BRANCH  20  23
ATOM     23  C   UNL     1      48.031   9.922  12.387  0.00  0.00    +0.000 A 
ATOM     24  C   UNL     1      48.283  11.169  12.933  0.00  0.00    +0.000 A 
ATOM     25  S   UNL     1      49.949  11.515  13.094  0.00  0.00    +0.000 S 
ATOM     26  C   UNL     1      50.384   9.982  12.497  0.00  0.00    +0.000 A 
ATOM     27  N   UNL     1      51.685   9.591  12.435  0.00  0.00    +0.000 NA
ATOM     28  C   UNL     1      51.864   8.383  12.016  0.00  0.00    +0.000 A 
ATOM     29  N   UNL     1      50.858   7.536  11.627  0.00  0.00    +0.000 N 
ATOM     30  C   UNL     1      49.543   7.927  11.566  0.00  0.00    +0.000 A 
ATOM     31  O   UNL     1      48.703   7.213  11.027  0.00  0.00    +0.000 OA
ATOM     32  C   UNL     1      49.279   9.242  12.118  0.00  0.00    +0.000 A 
ATOM     33  H   UNL     1      51.066   6.622  11.251  0.00  0.00    +0.000 HD
ENDBRANCH  20  23
ENDBRANCH  18  19
ENDBRANCH   4  18
TORSDOF 7
ENDMDL
MODEL 4
REMARK VINA RESULT:    -7.930      3.643      8.915
REMARK INTER + INTRA:         -11.491
REMARK INTER:                 -10.207
REMARK INTRA:                  -1.284
REMARK UNBOUND:                -0.316
REMARK  Name = 
REMARK  8 active torsions:
REMARK  status: ('A' for Active; 'I' for Inactive)
REMARK    1  A    between atoms: C_1  and  C_2
REMARK    2  A    between atoms: C_2  and  N_3
REMARK    3  A    between atoms: C_2  and  C_25
REMARK    4  A    between atoms: N_3  and  C_4
REMARK    5  A    between atoms: C_4  and  C_5
REMARK    6  A    between atoms: C_8  and  C_9
REMARK    7  A    between atoms: C_9  and  N_10
REMARK    8  A    between atoms: C_11  and  C_13
REMARK                            x       y       z     vdW  Elec       q    Type
REMARK                         _______ _______ _______ _____ _____    ______ ____
ROOT
ATOM      1  C   UNL     1      48.936   7.964  15.053  0.00  0.00    +0.000 C 
ATOM      2  C   UNL     1      48.674   9.284  14.299  0.00  0.00    +0.000 C 
ATOM      3  C   UNL     1      49.170   9.263  12.855  0.00  0.00    +0.000 C 
ATOM      4  C   UNL     1      48.604   8.083  12.049  0.00  0.00    +0.000 C 
ATOM      5  C   UNL     1      48.926   6.767  12.771  0.00  0.00    +0.000 C 
ATOM      6  C   UNL     1      48.465   6.750  14.232  0.00  0.00    +0.000 C 
ENDROOT
BRANCH   1   7
ATOM      7  C   UNL     1      50.413   7.797  15.477  0.00  0.00    +0.000 C 
BRANCH   7   8
ATOM      8  N   UNL     1      50.720   6.383  15.680  0.00  0.00    +0.000 NA
ATOM      9  H   UNL     1      51.673   6.196  15.364  0.00  0.00    +0.000 HD
BRANCH   8  11
ATOM     10  C   UNL     1      50.408   7.072  18.077  0.00  0.00    +0.000 C 
ATOM     11  C   UNL     1      50.628   5.927  17.082  0.00  0.00    +0.000 C 
BRANCH  11  12
ATOM     12  C   UNL     1      49.494   4.913  17.226  0.00  0.00    +0.000 A 
ATOM     13  C   UNL     1      48.230   5.329  17.649  0.00  0.00    +0.000 A 
ATOM     14  C   UNL     1      47.210   4.389  17.777  0.00  0.00    +0.000 A 
ATOM     15  C   UNL     1      47.474   3.061  17.469  0.00  0.00    +0.000 A 
ATOM     16  C   UNL     1      48.750   2.730  17.043  0.00  0.00    +0.000 A 
ATOM     17  N   UNL     1      49.760   3.617  16.916  0.00  0.00    +0.000 NA
ENDBRANCH  11  12
ENDBRANCH   8  11
ENDBRANCH   7   8
ENDBRANCH   1   7
BRANCH   4  18
ATOM     18  C   UNL     1      47.097   8.204  11.775  0.00  0.00    +0.000 C 
BRANCH  18  19
ATOM     19  N   UNL     1      46.427   6.924  11.786  0.00  0.00    +0.000 N 
ATOM     20  C   UNL     1      45.098   6.742  11.526  0.00  0.00    +0.000 C 
ATOM     21  O   UNL     1      44.300   7.668  11.412  0.00  0.00    +0.000 OA
ATOM     22  H   UNL     1      47.035   6.115  11.826  0.00  0.00    +0.000 HD
BRANCH  20  23
ATOM     23  C   UNL     1      44.679   5.338  11.405  0.00  0.00    +0.000 A 
ATOM     24  C   UNL     1      43.967   4.717  12.418  0.00  0.00    +0.000 A 
ATOM     25  S   UNL     1      43.542   3.102  12.058  0.00  0.00    +0.000 S 
ATOM     26  C   UNL     1      44.242   3.202  10.509  0.00  0.00    +0.000 A 
ATOM     27  N   UNL     1      44.169   2.165   9.633  0.00  0.00    +0.000 NA
ATOM     28  C   UNL     1      44.692   2.402   8.476  0.00  0.00    +0.000 A 
ATOM     29  N   UNL     1      45.308   3.576   8.124  0.00  0.00    +0.000 N 
ATOM     30  C   UNL     1      45.504   4.604   9.012  0.00  0.00    +0.000 A 
ATOM     31  O   UNL     1      46.229   5.550   8.723  0.00  0.00    +0.000 OA
ATOM     32  C   UNL     1      44.849   4.426  10.295  0.00  0.00    +0.000 A 
ATOM     33  H   UNL     1      45.751   3.679   7.223  0.00  0.00    +0.000 HD
ENDBRANCH  20  23
ENDBRANCH  18  19
ENDBRANCH   4  18
TORSDOF 7
ENDMDL
MODEL 5
REMARK VINA RESULT:    -7.745      3.809      8.854
REMARK INTER + INTRA:         -11.231
REMARK INTER:                  -9.672
REMARK INTRA:                  -1.560
REMARK UNBOUND:                -0.316
REMARK  Name = 
REMARK  8 active torsions:
REMARK  status: ('A' for Active; 'I' for Inactive)
REMARK    1  A    between atoms: C_1  and  C_2
REMARK    2  A    between atoms: C_2  and  N_3
REMARK    3  A    between atoms: C_2  and  C_25
REMARK    4  A    between atoms: N_3  and  C_4
REMARK    5  A    between atoms: C_4  and  C_5
REMARK    6  A    between atoms: C_8  and  C_9
REMARK    7  A    between atoms: C_9  and  N_10
REMARK    8  A    between atoms: C_11  and  C_13
REMARK                            x       y       z     vdW  Elec       q    Type
REMARK                         _______ _______ _______ _____ _____    ______ ____
ROOT
ATOM      1  C   UNL     1      49.430   7.688  12.653  0.00  0.00    +0.000 C 
ATOM      2  C   UNL     1      48.250   6.753  12.991  0.00  0.00    +0.000 C 
ATOM      3  C   UNL     1      47.093   7.469  13.684  0.00  0.00    +0.000 C 
ATOM      4  C   UNL     1      46.583   8.683  12.891  0.00  0.00    +0.000 C 
ATOM      5  C   UNL     1      47.751   9.641  12.615  0.00  0.00    +0.000 C 
ATOM      6  C   UNL     1      48.945   8.962  11.938  0.00  0.00    +0.000 C 
ENDROOT
BRANCH   1   7
ATOM      7  C   UNL     1      50.286   8.047  13.889  0.00  0.00    +0.000 C 
BRANCH   7   8
ATOM      8  N   UNL     1      50.365   6.903  14.794  0.00  0.00    +0.000 NA
ATOM      9  H   UNL     1      51.308   6.513  14.761  0.00  0.00    +0.000 HD
BRANCH   8  11
ATOM     10  C   UNL     1      49.555   8.643  16.419  0.00  0.00    +0.000 C 
ATOM     11  C   UNL     1      50.071   7.215  16.208  0.00  0.00    +0.000 C 
BRANCH  11  12
ATOM     12  C   UNL     1      49.043   6.226  16.756  0.00  0.00    +0.000 A 
ATOM     13  C   UNL     1      48.440   6.454  17.995  0.00  0.00    +0.000 A 
ATOM     14  C   UNL     1      47.507   5.540  18.479  0.00  0.00    +0.000 A 
ATOM     15  C   UNL     1      47.191   4.429  17.709  0.00  0.00    +0.000 A 
ATOM     16  C   UNL     1      47.822   4.280  16.485  0.00  0.00    +0.000 A 
ATOM     17  N   UNL     1      48.735   5.145  15.993  0.00  0.00    +0.000 NA
ENDBRANCH  11  12
ENDBRANCH   8  11
ENDBRANCH   7   8
ENDBRANCH   1   7
BRANCH   4  18
ATOM     18  C   UNL     1      45.870   8.297  11.586  0.00  0.00    +0.000 C 
BRANCH  18  19
ATOM     19  N   UNL     1      45.510   6.899  11.543  0.00  0.00    +0.000 N 
ATOM     20  C   UNL     1      44.241   6.430  11.344  0.00  0.00    +0.000 C 
ATOM     21  O   UNL     1      43.248   7.152  11.341  0.00  0.00    +0.000 OA
ATOM     22  H   UNL     1      46.287   6.251  11.492  0.00  0.00    +0.000 HD
BRANCH  20  23
ATOM     23  C   UNL     1      44.144   4.977  11.147  0.00  0.00    +0.000 A 
ATOM     24  C   UNL     1      43.381   4.192  11.995  0.00  0.00    +0.000 A 
ATOM     25  S   UNL     1      43.369   2.539  11.564  0.00  0.00    +0.000 S 
ATOM     26  C   UNL     1      44.333   2.831  10.192  0.00  0.00    +0.000 A 
ATOM     27  N   UNL     1      44.647   1.831   9.324  0.00  0.00    +0.000 NA
ATOM     28  C   UNL     1      45.335   2.208   8.298  0.00  0.00    +0.000 A 
ATOM     29  N   UNL     1      45.761   3.492   8.074  0.00  0.00    +0.000 N 
ATOM     30  C   UNL     1      45.565   4.505   8.978  0.00  0.00    +0.000 A 
ATOM     31  O   UNL     1      46.130   5.586   8.840  0.00  0.00    +0.000 OA
ATOM     32  C   UNL     1      44.714   4.157  10.100  0.00  0.00    +0.000 A 
ATOM     33  H   UNL     1      46.349   3.712   7.283  0.00  0.00    +0.000 HD
ENDBRANCH  20  23
ENDBRANCH  18  19
ENDBRANCH   4  18
TORSDOF 7
ENDMDL
MODEL 6
REMARK VINA RESULT:    -7.354      3.712      8.892
REMARK INTER + INTRA:         -10.679
REMARK INTER:                  -9.135
REMARK INTRA:                  -1.544
REMARK UNBOUND:                -0.316
REMARK  Name = 
REMARK  8 active torsions:
REMARK  status: ('A' for Active; 'I' for Inactive)
REMARK    1  A    between atoms: C_1  and  C_2
REMARK    2  A    between atoms: C_2  and  N_3
REMARK    3  A    between atoms: C_2  and  C_25
REMARK    4  A    between atoms: N_3  and  C_4
REMARK    5  A    between atoms: C_4  and  C_5
REMARK    6  A    between atoms: C_8  and  C_9
REMARK    7  A    between atoms: C_9  and  N_10
REMARK    8  A    between atoms: C_11  and  C_13
REMARK                            x       y       z     vdW  Elec       q    Type
REMARK                         _______ _______ _______ _____ _____    ______ ____
ROOT
ATOM      1  C   UNL     1      48.874   8.841  15.430  0.00  0.00    +0.000 C 
ATOM      2  C   UNL     1      49.507   9.643  14.274  0.00  0.00    +0.000 C 
ATOM      3  C   UNL     1      50.328   8.780  13.320  0.00  0.00    +0.000 C 
ATOM      4  C   UNL     1      49.531   7.594  12.753  0.00  0.00    +0.000 C 
ATOM      5  C   UNL     1      48.959   6.762  13.910  0.00  0.00    +0.000 C 
ATOM      6  C   UNL     1      48.143   7.591  14.906  0.00  0.00    +0.000 C 
ENDROOT
BRANCH   1   7
ATOM      7  C   UNL     1      49.895   8.457  16.525  0.00  0.00    +0.000 C 
BRANCH   7   8
ATOM      8  N   UNL     1      49.281   7.543  17.486  0.00  0.00    +0.000 NA
ATOM      9  H   UNL     1      48.390   7.212  17.114  0.00  0.00    +0.000 HD
BRANCH   8  11
ATOM     10  C   UNL     1      50.616   6.340  19.244  0.00  0.00    +0.000 C 
ATOM     11  C   UNL     1      50.091   6.349  17.804  0.00  0.00    +0.000 C 
BRANCH  11  12
ATOM     12  C   UNL     1      49.270   5.083  17.563  0.00  0.00    +0.000 A 
ATOM     13  C   UNL     1      47.876   5.123  17.648  0.00  0.00    +0.000 A 
ATOM     14  C   UNL     1      47.146   3.958  17.427  0.00  0.00    +0.000 A 
ATOM     15  C   UNL     1      47.823   2.787  17.115  0.00  0.00    +0.000 A 
ATOM     16  C   UNL     1      49.205   2.831  17.035  0.00  0.00    +0.000 A 
ATOM     17  N   UNL     1      49.940   3.944  17.250  0.00  0.00    +0.000 NA
ENDBRANCH  11  12
ENDBRANCH   8  11
ENDBRANCH   7   8
ENDBRANCH   1   7
BRANCH   4  18
ATOM     18  C   UNL     1      48.420   8.021  11.782  0.00  0.00    +0.000 C 
BRANCH  18  19
ATOM     19  N   UNL     1      47.586   6.915  11.371  0.00  0.00    +0.000 N 
ATOM     20  C   UNL     1      46.221   6.943  11.338  0.00  0.00    +0.000 C 
ATOM     21  O   UNL     1      45.553   7.859  11.808  0.00  0.00    +0.000 OA
ATOM     22  H   UNL     1      48.073   6.146  10.927  0.00  0.00    +0.000 HD
BRANCH  20  23
ATOM     23  C   UNL     1      45.595   5.772  10.706  0.00  0.00    +0.000 A 
ATOM     24  C   UNL     1      45.827   5.473   9.374  0.00  0.00    +0.000 A 
ATOM     25  S   UNL     1      45.040   4.050   8.850  0.00  0.00    +0.000 S 
ATOM     26  C   UNL     1      44.414   3.755  10.405  0.00  0.00    +0.000 A 
ATOM     27  N   UNL     1      43.689   2.636  10.674  0.00  0.00    +0.000 NA
ATOM     28  C   UNL     1      43.328   2.515  11.908  0.00  0.00    +0.000 A 
ATOM     29  N   UNL     1      43.604   3.426  12.895  0.00  0.00    +0.000 N 
ATOM     30  C   UNL     1      44.233   4.620  12.645  0.00  0.00    +0.000 A 
ATOM     31  O   UNL     1      44.284   5.492  13.506  0.00  0.00    +0.000 OA
ATOM     32  C   UNL     1      44.745   4.761  11.295  0.00  0.00    +0.000 A 
ATOM     33  H   UNL     1      43.242   3.303  13.829  0.00  0.00    +0.000 HD
ENDBRANCH  20  23
ENDBRANCH  18  19
ENDBRANCH   4  18
TORSDOF 7
ENDMDL
MODEL 7
REMARK VINA RESULT:    -7.172      3.757      9.095
REMARK INTER + INTRA:         -10.423
REMARK INTER:                  -9.229
REMARK INTRA:                  -1.194
REMARK UNBOUND:                -0.316
REMARK  Name = 
REMARK  8 active torsions:
REMARK  status: ('A' for Active; 'I' for Inactive)
REMARK    1  A    between atoms: C_1  and  C_2
REMARK    2  A    between atoms: C_2  and  N_3
REMARK    3  A    between atoms: C_2  and  C_25
REMARK    4  A    between atoms: N_3  and  C_4
REMARK    5  A    between atoms: C_4  and  C_5
REMARK    6  A    between atoms: C_8  and  C_9
REMARK    7  A    between atoms: C_9  and  N_10
REMARK    8  A    between atoms: C_11  and  C_13
REMARK                            x       y       z     vdW  Elec       q    Type
REMARK                         _______ _______ _______ _____ _____    ______ ____
ROOT
ATOM      1  C   UNL     1      48.409   7.660  13.023  0.00  0.00    +0.000 C 
ATOM      2  C   UNL     1      47.849   6.254  12.718  0.00  0.00    +0.000 C 
ATOM      3  C   UNL     1      46.451   6.025  13.286  0.00  0.00    +0.000 C 
ATOM      4  C   UNL     1      45.443   7.094  12.836  0.00  0.00    +0.000 C 
ATOM      5  C   UNL     1      45.975   8.487  13.202  0.00  0.00    +0.000 C 
ATOM      6  C   UNL     1      47.386   8.755  12.670  0.00  0.00    +0.000 C 
ENDROOT
BRANCH   1   7
ATOM      7  C   UNL     1      48.889   7.811  14.484  0.00  0.00    +0.000 C 
BRANCH   7   8
ATOM      8  N   UNL     1      49.934   6.832  14.774  0.00  0.00    +0.000 NA
ATOM      9  H   UNL     1      50.813   7.145  14.359  0.00  0.00    +0.000 HD
BRANCH   8  11
ATOM     10  C   UNL     1      50.286   7.906  17.020  0.00  0.00    +0.000 C 
ATOM     11  C   UNL     1      50.186   6.607  16.212  0.00  0.00    +0.000 C 
BRANCH  11  12
ATOM     12  C   UNL     1      49.080   5.734  16.803  0.00  0.00    +0.000 A 
ATOM     13  C   UNL     1      48.350   6.177  17.908  0.00  0.00    +0.000 A 
ATOM     14  C   UNL     1      47.348   5.366  18.435  0.00  0.00    +0.000 A 
ATOM     15  C   UNL     1      47.092   4.139  17.838  0.00  0.00    +0.000 A 
ATOM     16  C   UNL     1      47.849   3.775  16.737  0.00  0.00    +0.000 A 
ATOM     17  N   UNL     1      48.831   4.538  16.208  0.00  0.00    +0.000 NA
ENDBRANCH  11  12
ENDBRANCH   8  11
ENDBRANCH   7   8
ENDBRANCH   1   7
BRANCH   4  18
ATOM     18  C   UNL     1      45.102   7.013  11.340  0.00  0.00    +0.000 C 
BRANCH  18  19
ATOM     19  N   UNL     1      45.280   5.685  10.801  0.00  0.00    +0.000 N 
ATOM     20  C   UNL     1      44.275   4.911  10.293  0.00  0.00    +0.000 C 
ATOM     21  O   UNL     1      43.086   5.203  10.388  0.00  0.00    +0.000 OA
ATOM     22  H   UNL     1      46.241   5.403  10.650  0.00  0.00    +0.000 HD
BRANCH  20  23
ATOM     23  C   UNL     1      44.720   3.678   9.628  0.00  0.00    +0.000 A 
ATOM     24  C   UNL     1      44.142   2.457   9.931  0.00  0.00    +0.000 A 
ATOM     25  S   UNL     1      44.774   1.160   9.015  0.00  0.00    +0.000 S 
ATOM     26  C   UNL     1      45.796   2.202   8.139  0.00  0.00    +0.000 A 
ATOM     27  N   UNL     1      46.578   1.739   7.127  0.00  0.00    +0.000 NA
ATOM     28  C   UNL     1      47.257   2.649   6.513  0.00  0.00    +0.000 A 
ATOM     29  N   UNL     1      47.246   3.982   6.837  0.00  0.00    +0.000 N 
ATOM     30  C   UNL     1      46.562   4.474   7.920  0.00  0.00    +0.000 A 
ATOM     31  O   UNL     1      46.734   5.629   8.296  0.00  0.00    +0.000 OA
ATOM     32  C   UNL     1      45.706   3.509   8.583  0.00  0.00    +0.000 A 
ATOM     33  H   UNL     1      47.846   4.636   6.357  0.00  0.00    +0.000 HD
ENDBRANCH  20  23
ENDBRANCH  18  19
ENDBRANCH   4  18
TORSDOF 7
ENDMDL
MODEL 8
REMARK VINA RESULT:    -6.944      5.277      8.395
REMARK INTER + INTRA:         -10.103
REMARK INTER:                  -8.932
REMARK INTRA:                  -1.171
REMARK UNBOUND:                -0.316
REMARK  Name = 
REMARK  8 active torsions:
REMARK  status: ('A' for Active; 'I' for Inactive)
REMARK    1  A    between atoms: C_1  and  C_2
REMARK    2  A    between atoms: C_2  and  N_3
REMARK    3  A    between atoms: C_2  and  C_25
REMARK    4  A    between atoms: N_3  and  C_4
REMARK    5  A    between atoms: C_4  and  C_5
REMARK    6  A    between atoms: C_8  and  C_9
REMARK    7  A    between atoms: C_9  and  N_10
REMARK    8  A    between atoms: C_11  and  C_13
REMARK                            x       y       z     vdW  Elec       q    Type
REMARK                         _______ _______ _______ _____ _____    ______ ____
ROOT
ATOM      1  C   UNL     1      49.745   8.693  13.683  0.00  0.00    +0.000 C 
ATOM      2  C   UNL     1      48.687   9.810  13.797  0.00  0.00    +0.000 C 
ATOM      3  C   UNL     1      47.837   9.966  12.539  0.00  0.00    +0.000 C 
ATOM      4  C   UNL     1      47.162   8.655  12.108  0.00  0.00    +0.000 C 
ATOM      5  C   UNL     1      48.229   7.563  11.933  0.00  0.00    +0.000 C 
ATOM      6  C   UNL     1      49.121   7.384  13.165  0.00  0.00    +0.000 C 
ENDROOT
BRANCH   1   7
ATOM      7  C   UNL     1      50.958   9.100  12.816  0.00  0.00    +0.000 C 
BRANCH   7   8
ATOM      8  N   UNL     1      51.847   7.956  12.627  0.00  0.00    +0.000 NA
ATOM      9  H   UNL     1      51.377   7.255  12.053  0.00  0.00    +0.000 HD
BRANCH   8  11
ATOM     10  C   UNL     1      54.346   8.081  12.878  0.00  0.00    +0.000 C 
ATOM     11  C   UNL     1      53.129   8.274  11.966  0.00  0.00    +0.000 C 
BRANCH  11  12
ATOM     12  C   UNL     1      53.298   7.411  10.716  0.00  0.00    +0.000 A 
ATOM     13  C   UNL     1      52.418   7.550   9.642  0.00  0.00    +0.000 A 
ATOM     14  C   UNL     1      52.587   6.752   8.512  0.00  0.00    +0.000 A 
ATOM     15  C   UNL     1      53.638   5.845   8.480  0.00  0.00    +0.000 A 
ATOM     16  C   UNL     1      54.477   5.775   9.579  0.00  0.00    +0.000 A 
ATOM     17  N   UNL     1      54.333   6.531  10.690  0.00  0.00    +0.000 NA
ENDBRANCH  11  12
ENDBRANCH   8  11
ENDBRANCH   7   8
ENDBRANCH   1   7
BRANCH   4  18
ATOM     18  C   UNL     1      46.062   8.194  13.077  0.00  0.00    +0.000 C 
BRANCH  18  19
ATOM     19  N   UNL     1      45.546   6.885  12.749  0.00  0.00    +0.000 N 
ATOM     20  C   UNL     1      44.581   6.643  11.813  0.00  0.00    +0.000 C 
ATOM     21  O   UNL     1      43.935   7.531  11.264  0.00  0.00    +0.000 OA
ATOM     22  H   UNL     1      46.068   6.105  13.131  0.00  0.00    +0.000 HD
BRANCH  20  23
ATOM     23  C   UNL     1      44.353   5.221  11.515  0.00  0.00    +0.000 A 
ATOM     24  C   UNL     1      43.573   4.435  12.346  0.00  0.00    +0.000 A 
ATOM     25  S   UNL     1      43.400   2.827  11.795  0.00  0.00    +0.000 S 
ATOM     26  C   UNL     1      44.311   3.149  10.394  0.00  0.00    +0.000 A 
ATOM     27  N   UNL     1      44.495   2.200   9.437  0.00  0.00    +0.000 NA
ATOM     28  C   UNL     1      45.156   2.600   8.403  0.00  0.00    +0.000 A 
ATOM     29  N   UNL     1      45.676   3.860   8.250  0.00  0.00    +0.000 N 
ATOM     30  C   UNL     1      45.612   4.812   9.237  0.00  0.00    +0.000 A 
ATOM     31  O   UNL     1      46.257   5.852   9.145  0.00  0.00    +0.000 OA
ATOM     32  C   UNL     1      44.796   4.444  10.378  0.00  0.00    +0.000 A 
ATOM     33  H   UNL     1      46.236   4.095   7.444  0.00  0.00    +0.000 HD
ENDBRANCH  20  23
ENDBRANCH  18  19
ENDBRANCH   4  18
TORSDOF 7
ENDMDL
MODEL 9
REMARK VINA RESULT:    -6.641      2.175      2.940
REMARK INTER + INTRA:          -9.675
REMARK INTER:                  -8.990
REMARK INTRA:                  -0.685
REMARK UNBOUND:                -0.316
REMARK  Name = 
REMARK  8 active torsions:
REMARK  status: ('A' for Active; 'I' for Inactive)
REMARK    1  A    between atoms: C_1  and  C_2
REMARK    2  A    between atoms: C_2  and  N_3
REMARK    3  A    between atoms: C_2  and  C_25
REMARK    4  A    between atoms: N_3  and  C_4
REMARK    5  A    between atoms: C_4  and  C_5
REMARK    6  A    between atoms: C_8  and  C_9
REMARK    7  A    between atoms: C_9  and  N_10
REMARK    8  A    between atoms: C_11  and  C_13
REMARK                            x       y       z     vdW  Elec       q    Type
REMARK                         _______ _______ _______ _____ _____    ______ ____
ROOT
ATOM      1  C   UNL     1      46.416   7.411  12.280  0.00  0.00    +0.000 C 
ATOM      2  C   UNL     1      46.527   6.492  13.515  0.00  0.00    +0.000 C 
ATOM      3  C   UNL     1      47.925   5.913  13.712  0.00  0.00    +0.000 C 
ATOM      4  C   UNL     1      49.015   6.994  13.770  0.00  0.00    +0.000 C 
ATOM      5  C   UNL     1      48.942   7.865  12.507  0.00  0.00    +0.000 C 
ATOM      6  C   UNL     1      47.549   8.452  12.257  0.00  0.00    +0.000 C 
ENDROOT
BRANCH   1   7
ATOM      7  C   UNL     1      46.367   6.627  10.949  0.00  0.00    +0.000 C 
BRANCH   7   8
ATOM      8  N   UNL     1      44.983   6.322  10.596  0.00  0.00    +0.000 NA
ATOM      9  H   UNL     1      44.842   6.501   9.601  0.00  0.00    +0.000 HD
BRANCH   8  11
ATOM     10  C   UNL     1      43.059   4.756  11.005  0.00  0.00    +0.000 C 
ATOM     11  C   UNL     1      44.575   4.926  10.851  0.00  0.00    +0.000 C 
BRANCH  11  12
ATOM     12  C   UNL     1      45.067   4.024   9.719  0.00  0.00    +0.000 A 
ATOM     13  C   UNL     1      44.963   2.636   9.831  0.00  0.00    +0.000 A 
ATOM     14  C   UNL     1      45.419   1.831   8.790  0.00  0.00    +0.000 A 
ATOM     15  C   UNL     1      45.956   2.432   7.659  0.00  0.00    +0.000 A 
ATOM     16  C   UNL     1      46.012   3.815   7.618  0.00  0.00    +0.000 A 
ATOM     17  N   UNL     1      45.584   4.622   8.614  0.00  0.00    +0.000 NA
ENDBRANCH  11  12
ENDBRANCH   8  11
ENDBRANCH   7   8
ENDBRANCH   1   7
BRANCH   4  18
ATOM     18  C   UNL     1      48.941   7.860  15.038  0.00  0.00    +0.000 C 
BRANCH  18  19
ATOM     19  N   UNL     1      49.999   7.562  15.976  0.00  0.00    +0.000 N 
ATOM     20  C   UNL     1      49.873   6.719  17.044  0.00  0.00    +0.000 C 
ATOM     21  O   UNL     1      48.800   6.249  17.411  0.00  0.00    +0.000 OA
ATOM     22  H   UNL     1      50.922   7.878  15.705  0.00  0.00    +0.000 HD
BRANCH  20  23
ATOM     23  C   UNL     1      51.130   6.420  17.746  0.00  0.00    +0.000 A 
ATOM     24  C   UNL     1      51.905   7.434  18.283  0.00  0.00    +0.000 A 
ATOM     25  S   UNL     1      53.299   6.868  19.092  0.00  0.00    +0.000 S 
ATOM     26  C   UNL     1      52.877   5.244  18.804  0.00  0.00    +0.000 A 
ATOM     27  N   UNL     1      53.625   4.221  19.299  0.00  0.00    +0.000 NA
ATOM     28  C   UNL     1      53.155   3.044  19.051  0.00  0.00    +0.000 A 
ATOM     29  N   UNL     1      52.016   2.795  18.329  0.00  0.00    +0.000 N 
ATOM     30  C   UNL     1      51.296   3.790  17.717  0.00  0.00    +0.000 A 
ATOM     31  O   UNL     1      50.405   3.516  16.919  0.00  0.00    +0.000 OA
ATOM     32  C   UNL     1      51.726   5.136  18.045  0.00  0.00    +0.000 A 
ATOM     33  H   UNL     1      51.733   1.850  18.118  0.00  0.00    +0.000 HD
ENDBRANCH  20  23
ENDBRANCH  18  19
ENDBRANCH   4  18
TORSDOF 7
ENDMDL
