MODEL 1
REMARK VINA RESULT:    -7.811      0.000      0.000
REMARK INTER + INTRA:         -12.694
REMARK INTER:                 -11.464
REMARK INTRA:                  -1.231
REMARK UNBOUND:                -1.231
REMARK  Name = 
REMARK  9 active torsions:
REMARK  status: ('A' for Active; 'I' for Inactive)
REMARK    1  A    between atoms: C_1  and  C_2
REMARK    2  A    between atoms: C_2  and  C_3
REMARK    3  A    between atoms: C_3  and  N_4
REMARK    4  A    between atoms: C_3  and  C_26
REMARK    5  A    between atoms: N_4  and  C_5
REMARK    6  A    between atoms: C_5  and  C_6
REMARK    7  A    between atoms: C_9  and  C_10
REMARK    8  A    between atoms: C_10  and  N_11
REMARK    9  A    between atoms: C_12  and  C_14
REMARK                            x       y       z     vdW  Elec       q    Type
REMARK                         _______ _______ _______ _____ _____    ______ ____
ROOT
ATOM      1  C   UNL     1      46.775   4.421  14.056  0.00  0.00    +0.000 A 
ATOM      2  C   UNL     1      47.390   5.651  13.827  0.00  0.00    +0.000 A 
ATOM      3  C   UNL     1      48.120   6.244  14.851  0.00  0.00    +0.000 A 
ATOM      4  C   UNL     1      48.225   5.595  16.082  0.00  0.00    +0.000 A 
ATOM      5  C   UNL     1      47.567   4.378  16.223  0.00  0.00    +0.000 A 
ATOM      6  N   UNL     1      46.853   3.778  15.245  0.00  0.00    +0.000 NA
ENDROOT
BRANCH   1   7
ATOM      7  C   UNL     1      45.911   3.794  12.978  0.00  0.00    +0.000 C 
BRANCH   7   8
ATOM      8  N   UNL     1      45.568   4.748  11.918  0.00  0.00    +0.000 NA
ATOM      9  H   UNL     1      46.393   4.850  11.319  0.00  0.00    +0.000 HD
BRANCH   8  10
ATOM     10  C   UNL     1      44.449   4.303  11.054  0.00  0.00    +0.000 C 
BRANCH  10  11
ATOM     11  C   UNL     1      45.033   3.703   9.767  0.00  0.00    +0.000 A 
ATOM     12  C   UNL     1      45.560   4.523   8.767  0.00  0.00    +0.000 A 
ATOM     13  C   UNL     1      46.152   3.945   7.645  0.00  0.00    +0.000 A 
ATOM     14  C   UNL     1      46.217   2.562   7.552  0.00  0.00    +0.000 A 
ATOM     15  C   UNL     1      45.686   1.813   8.586  0.00  0.00    +0.000 A 
ATOM     16  N   UNL     1      45.099   2.346   9.685  0.00  0.00    +0.000 NA
ENDBRANCH  10  11
BRANCH  10  18
ATOM     17  C   UNL     1      42.333   5.604  11.782  0.00  0.00    +0.000 C 
ATOM     18  C   UNL     1      43.464   5.462  10.776  0.00  0.00    +0.000 C 
ENDBRANCH  10  18
ENDBRANCH   8  10
ENDBRANCH   7   8
ENDBRANCH   1   7
BRANCH   4  19
ATOM     19  C   UNL     1      48.968   6.202  17.231  0.00  0.00    +0.000 C 
BRANCH  19  20
ATOM     20  N   UNL     1      49.995   5.314  17.715  0.00  0.00    +0.000 N 
ATOM     21  C   UNL     1      51.271   5.374  17.218  0.00  0.00    +0.000 C 
ATOM     22  O   UNL     1      51.599   6.209  16.379  0.00  0.00    +0.000 OA
ATOM     23  H   UNL     1      49.700   4.493  18.239  0.00  0.00    +0.000 HD
BRANCH  21  24
ATOM     24  C   UNL     1      52.244   4.433  17.783  0.00  0.00    +0.000 A 
ATOM     25  C   UNL     1      53.386   4.923  18.404  0.00  0.00    +0.000 A 
ATOM     26  S   UNL     1      54.389   3.706  19.049  0.00  0.00    +0.000 S 
ATOM     27  C   UNL     1      53.361   2.478  18.476  0.00  0.00    +0.000 A 
ATOM     28  N   UNL     1      53.664   1.167  18.671  0.00  0.00    +0.000 NA
ATOM     29  C   UNL     1      52.815   0.341  18.155  0.00  0.00    +0.000 A 
ATOM     30  N   UNL     1      51.688   0.708  17.468  0.00  0.00    +0.000 N 
ATOM     31  C   UNL     1      51.323   2.020  17.277  0.00  0.00    +0.000 A 
ATOM     32  O   UNL     1      50.281   2.317  16.704  0.00  0.00    +0.000 OA
ATOM     33  C   UNL     1      52.255   2.989  17.821  0.00  0.00    +0.000 A 
ATOM     34  H   UNL     1      51.059   0.010  17.097  0.00  0.00    +0.000 HD
ENDBRANCH  21  24
ENDBRANCH  19  20
ENDBRANCH   4  19
TORSDOF 8
ENDMDL
MODEL 2
REMARK VINA RESULT:    -7.737      2.822      3.830
REMARK INTER + INTRA:         -12.586
REMARK INTER:                 -11.766
REMARK INTRA:                  -0.819
REMARK UNBOUND:                -1.231
REMARK  Name = 
REMARK  9 active torsions:
REMARK  status: ('A' for Active; 'I' for Inactive)
REMARK    1  A    between atoms: C_1  and  C_2
REMARK    2  A    between atoms: C_2  and  C_3
REMARK    3  A    between atoms: C_3  and  N_4
REMARK    4  A    between atoms: C_3  and  C_26
REMARK    5  A    between atoms: N_4  and  C_5
REMARK    6  A    between atoms: C_5  and  C_6
REMARK    7  A    between atoms: C_9  and  C_10
REMARK    8  A    between atoms: C_10  and  N_11
REMARK    9  A    between atoms: C_12  and  C_14
REMARK                            x       y       z     vdW  Elec       q    Type
REMARK                         _______ _______ _______ _____ _____    ______ ____
ROOT
ATOM      1  C   UNL     1      44.317   6.727  11.662  0.00  0.00    +0.000 A 
ATOM      2  C   UNL     1      44.629   8.054  11.371  0.00  0.00    +0.000 A 
ATOM      3  C   UNL     1      45.683   8.664  12.044  0.00  0.00    +0.000 A 
ATOM      4  C   UNL     1      46.406   7.936  12.989  0.00  0.00    +0.000 A 
ATOM      5  C   UNL     1      46.014   6.622  13.223  0.00  0.00    +0.000 A 
ATOM      6  N   UNL     1      44.997   6.003  12.583  0.00  0.00    +0.000 NA
ENDROOT
BRANCH   1   7
ATOM      7  C   UNL     1      43.125   6.067  10.996  0.00  0.00    +0.000 C 
BRANCH   7   8
ATOM      8  N   UNL     1      43.526   5.135   9.937  0.00  0.00    +0.000 NA
ATOM      9  H   UNL     1      44.091   5.662   9.264  0.00  0.00    +0.000 HD
BRANCH   8  10
ATOM     10  C   UNL     1      44.355   4.005  10.419  0.00  0.00    +0.000 C 
BRANCH  10  11
ATOM     11  C   UNL     1      45.231   3.510   9.260  0.00  0.00    +0.000 A 
ATOM     12  C   UNL     1      45.471   2.147   9.072  0.00  0.00    +0.000 A 
ATOM     13  C   UNL     1      46.207   1.725   7.965  0.00  0.00    +0.000 A 
ATOM     14  C   UNL     1      46.675   2.671   7.064  0.00  0.00    +0.000 A 
ATOM     15  C   UNL     1      46.387   4.002   7.307  0.00  0.00    +0.000 A 
ATOM     16  N   UNL     1      45.682   4.442   8.376  0.00  0.00    +0.000 NA
ENDBRANCH  10  11
BRANCH  10  18
ATOM     17  C   UNL     1      43.643   2.660  12.514  0.00  0.00    +0.000 C 
ATOM     18  C   UNL     1      43.475   2.884  11.020  0.00  0.00    +0.000 C 
ENDBRANCH  10  18
ENDBRANCH   8  10
ENDBRANCH   7   8
ENDBRANCH   1   7
BRANCH   4  19
ATOM     19  C   UNL     1      47.526   8.551  13.768  0.00  0.00    +0.000 C 
BRANCH  19  20
ATOM     20  N   UNL     1      47.843   7.766  14.934  0.00  0.00    +0.000 N 
ATOM     21  C   UNL     1      49.007   7.044  15.003  0.00  0.00    +0.000 C 
ATOM     22  O   UNL     1      49.838   7.071  14.099  0.00  0.00    +0.000 OA
ATOM     23  H   UNL     1      47.088   7.562  15.584  0.00  0.00    +0.000 HD
BRANCH  21  24
ATOM     24  C   UNL     1      49.239   6.285  16.236  0.00  0.00    +0.000 A 
ATOM     25  C   UNL     1      50.233   6.699  17.115  0.00  0.00    +0.000 A 
ATOM     26  S   UNL     1      50.345   5.742  18.520  0.00  0.00    +0.000 S 
ATOM     27  C   UNL     1      49.105   4.709  17.982  0.00  0.00    +0.000 A 
ATOM     28  N   UNL     1      48.720   3.636  18.723  0.00  0.00    +0.000 NA
ATOM     29  C   UNL     1      47.793   2.918  18.181  0.00  0.00    +0.000 A 
ATOM     30  N   UNL     1      47.212   3.180  16.968  0.00  0.00    +0.000 N 
ATOM     31  C   UNL     1      47.545   4.272  16.201  0.00  0.00    +0.000 A 
ATOM     32  O   UNL     1      46.969   4.510  15.144  0.00  0.00    +0.000 OA
ATOM     33  C   UNL     1      48.597   5.101  16.756  0.00  0.00    +0.000 A 
ATOM     34  H   UNL     1      46.484   2.582  16.604  0.00  0.00    +0.000 HD
ENDBRANCH  21  24
ENDBRANCH  19  20
ENDBRANCH   4  19
TORSDOF 8
ENDMDL
MODEL 3
REMARK VINA RESULT:    -7.091      4.021      9.061
REMARK INTER + INTRA:         -11.638
REMARK INTER:                  -9.983
REMARK INTRA:                  -1.655
REMARK UNBOUND:                -1.231
REMARK  Name = 
REMARK  9 active torsions:
REMARK  status: ('A' for Active; 'I' for Inactive)
REMARK    1  A    between atoms: C_1  and  C_2
REMARK    2  A    between atoms: C_2  and  C_3
REMARK    3  A    between atoms: C_3  and  N_4
REMARK    4  A    between atoms: C_3  and  C_26
REMARK    5  A    between atoms: N_4  and  C_5
REMARK    6  A    between atoms: C_5  and  C_6
REMARK    7  A    between atoms: C_9  and  C_10
REMARK    8  A    between atoms: C_10  and  N_11
REMARK    9  A    between atoms: C_12  and  C_14
REMARK                            x       y       z     vdW  Elec       q    Type
REMARK                         _______ _______ _______ _____ _____    ______ ____
ROOT
ATOM      1  C   UNL     1      49.081   8.209  16.052  0.00  0.00    +0.000 A 
ATOM      2  C   UNL     1      49.569   7.150  15.286  0.00  0.00    +0.000 A 
ATOM      3  C   UNL     1      49.148   7.018  13.967  0.00  0.00    +0.000 A 
ATOM      4  C   UNL     1      48.254   7.949  13.437  0.00  0.00    +0.000 A 
ATOM      5  C   UNL     1      47.811   8.964  14.278  0.00  0.00    +0.000 A 
ATOM      6  N   UNL     1      48.205   9.118  15.562  0.00  0.00    +0.000 NA
ENDROOT
BRANCH   1   7
ATOM      7  C   UNL     1      49.467   8.327  17.513  0.00  0.00    +0.000 C 
BRANCH   7   8
ATOM      8  N   UNL     1      50.042   7.083  18.037  0.00  0.00    +0.000 NA
ATOM      9  H   UNL     1      50.857   7.338  18.604  0.00  0.00    +0.000 HD
BRANCH   8  10
ATOM     10  C   UNL     1      49.120   6.321  18.912  0.00  0.00    +0.000 C 
BRANCH  10  11
ATOM     11  C   UNL     1      48.774   4.994  18.222  0.00  0.00    +0.000 A 
ATOM     12  C   UNL     1      47.499   4.766  17.701  0.00  0.00    +0.000 A 
ATOM     13  C   UNL     1      47.239   3.581  17.013  0.00  0.00    +0.000 A 
ATOM     14  C   UNL     1      48.262   2.658  16.848  0.00  0.00    +0.000 A 
ATOM     15  C   UNL     1      49.503   2.957  17.379  0.00  0.00    +0.000 A 
ATOM     16  N   UNL     1      49.783   4.095  18.058  0.00  0.00    +0.000 NA
ENDBRANCH  10  11
BRANCH  10  18
ATOM     17  C   UNL     1      47.579   7.306  20.745  0.00  0.00    +0.000 C 
ATOM     18  C   UNL     1      47.864   7.156  19.260  0.00  0.00    +0.000 C 
ENDBRANCH  10  18
ENDBRANCH   8  10
ENDBRANCH   7   8
ENDBRANCH   1   7
BRANCH   4  19
ATOM     19  C   UNL     1      47.740   7.837  12.036  0.00  0.00    +0.000 C 
BRANCH  19  20
ATOM     20  N   UNL     1      47.029   6.600  11.837  0.00  0.00    +0.000 N 
ATOM     21  C   UNL     1      45.659   6.574  11.797  0.00  0.00    +0.000 C 
ATOM     22  O   UNL     1      44.990   7.600  11.884  0.00  0.00    +0.000 OA
ATOM     23  H   UNL     1      47.542   5.733  11.977  0.00  0.00    +0.000 HD
BRANCH  21  24
ATOM     24  C   UNL     1      45.031   5.265  11.582  0.00  0.00    +0.000 A 
ATOM     25  C   UNL     1      44.340   4.661  12.625  0.00  0.00    +0.000 A 
ATOM     26  S   UNL     1      43.630   3.171  12.202  0.00  0.00    +0.000 S 
ATOM     27  C   UNL     1      44.264   3.254  10.625  0.00  0.00    +0.000 A 
ATOM     28  N   UNL     1      44.046   2.252   9.732  0.00  0.00    +0.000 NA
ATOM     29  C   UNL     1      44.612   2.428   8.585  0.00  0.00    +0.000 A 
ATOM     30  N   UNL     1      45.370   3.518   8.248  0.00  0.00    +0.000 N 
ATOM     31  C   UNL     1      45.588   4.571   9.105  0.00  0.00    +0.000 A 
ATOM     32  O   UNL     1      46.226   5.558   8.757  0.00  0.00    +0.000 OA
ATOM     33  C   UNL     1      44.989   4.414  10.417  0.00  0.00    +0.000 A 
ATOM     34  H   UNL     1      45.778   3.599   7.327  0.00  0.00    +0.000 HD
ENDBRANCH  21  24
ENDBRANCH  19  20
ENDBRANCH   4  19
TORSDOF 8
ENDMDL
MODEL 4
REMARK VINA RESULT:    -7.047      3.460      4.687
REMARK INTER + INTRA:         -11.574
REMARK INTER:                 -10.960
REMARK INTRA:                  -0.613
REMARK UNBOUND:                -1.231
REMARK  Name = 
REMARK  9 active torsions:
REMARK  status: ('A' for Active; 'I' for Inactive)
REMARK    1  A    between atoms: C_1  and  C_2
REMARK    2  A    between atoms: C_2  and  C_3
REMARK    3  A    between atoms: C_3  and  N_4
REMARK    4  A    between atoms: C_3  and  C_26
REMARK    5  A    between atoms: N_4  and  C_5
REMARK    6  A    between atoms: C_5  and  C_6
REMARK    7  A    between atoms: C_9  and  C_10
REMARK    8  A    between atoms: C_10  and  N_11
REMARK    9  A    between atoms: C_12  and  C_14
REMARK                            x       y       z     vdW  Elec       q    Type
REMARK                         _______ _______ _______ _____ _____    ______ ____
ROOT
ATOM      1  C   UNL     1      44.664   6.587  11.709  0.00  0.00    +0.000 A 
ATOM      2  C   UNL     1      44.811   7.967  11.846  0.00  0.00    +0.000 A 
ATOM      3  C   UNL     1      45.901   8.465  12.552  0.00  0.00    +0.000 A 
ATOM      4  C   UNL     1      46.825   7.577  13.103  0.00  0.00    +0.000 A 
ATOM      5  C   UNL     1      46.590   6.217  12.927  0.00  0.00    +0.000 A 
ATOM      6  N   UNL     1      45.542   5.705  12.245  0.00  0.00    +0.000 NA
ENDROOT
BRANCH   1   7
ATOM      7  C   UNL     1      43.443   6.021  11.011  0.00  0.00    +0.000 C 
BRANCH   7   8
ATOM      8  N   UNL     1      43.802   5.134   9.899  0.00  0.00    +0.000 NA
ATOM      9  H   UNL     1      44.448   5.650   9.293  0.00  0.00    +0.000 HD
BRANCH   8  10
ATOM     10  C   UNL     1      44.492   3.893  10.323  0.00  0.00    +0.000 C 
BRANCH  10  11
ATOM     11  C   UNL     1      45.251   3.318   9.119  0.00  0.00    +0.000 A 
ATOM     12  C   UNL     1      45.785   4.157   8.139  0.00  0.00    +0.000 A 
ATOM     13  C   UNL     1      46.535   3.609   7.099  0.00  0.00    +0.000 A 
ATOM     14  C   UNL     1      46.748   2.238   7.068  0.00  0.00    +0.000 A 
ATOM     15  C   UNL     1      46.200   1.470   8.080  0.00  0.00    +0.000 A 
ATOM     16  N   UNL     1      45.461   1.973   9.098  0.00  0.00    +0.000 NA
ENDBRANCH  10  11
BRANCH  10  18
ATOM     17  C   UNL     1      43.586   2.716  12.443  0.00  0.00    +0.000 C 
ATOM     18  C   UNL     1      43.494   2.882  10.935  0.00  0.00    +0.000 C 
ENDBRANCH  10  18
ENDBRANCH   8  10
ENDBRANCH   7   8
ENDBRANCH   1   7
BRANCH   4  19
ATOM     19  C   UNL     1      47.997   8.055  13.901  0.00  0.00    +0.000 C 
BRANCH  19  20
ATOM     20  N   UNL     1      47.930   7.582  15.260  0.00  0.00    +0.000 N 
ATOM     21  C   UNL     1      48.958   6.856  15.805  0.00  0.00    +0.000 C 
ATOM     22  O   UNL     1      49.986   6.618  15.176  0.00  0.00    +0.000 OA
ATOM     23  H   UNL     1      47.021   7.581  15.715  0.00  0.00    +0.000 HD
BRANCH  21  24
ATOM     24  C   UNL     1      48.796   6.428  17.199  0.00  0.00    +0.000 A 
ATOM     25  C   UNL     1      49.096   5.117  17.549  0.00  0.00    +0.000 A 
ATOM     26  S   UNL     1      48.903   4.792  19.210  0.00  0.00    +0.000 S 
ATOM     27  C   UNL     1      48.360   6.376  19.513  0.00  0.00    +0.000 A 
ATOM     28  N   UNL     1      47.991   6.760  20.764  0.00  0.00    +0.000 NA
ATOM     29  C   UNL     1      47.567   7.977  20.845  0.00  0.00    +0.000 A 
ATOM     30  N   UNL     1      47.487   8.847  19.790  0.00  0.00    +0.000 N 
ATOM     31  C   UNL     1      47.882   8.515  18.516  0.00  0.00    +0.000 A 
ATOM     32  O   UNL     1      47.850   9.332  17.603  0.00  0.00    +0.000 OA
ATOM     33  C   UNL     1      48.348   7.150  18.366  0.00  0.00    +0.000 A 
ATOM     34  H   UNL     1      47.155   9.792  19.924  0.00  0.00    +0.000 HD
ENDBRANCH  21  24
ENDBRANCH  19  20
ENDBRANCH   4  19
TORSDOF 8
ENDMDL
MODEL 5
REMARK VINA RESULT:    -6.910      3.129      9.703
REMARK INTER + INTRA:         -11.372
REMARK INTER:                 -10.236
REMARK INTRA:                  -1.136
REMARK UNBOUND:                -1.231
REMARK  Name = 
REMARK  9 active torsions:
REMARK  status: ('A' for Active; 'I' for Inactive)
REMARK    1  A    between atoms: C_1  and  C_2
REMARK    2  A    between atoms: C_2  and  C_3
REMARK    3  A    between atoms: C_3  and  N_4
REMARK    4  A    between atoms: C_3  and  C_26
REMARK    5  A    between atoms: N_4  and  C_5
REMARK    6  A    between atoms: C_5  and  C_6
REMARK    7  A    between atoms: C_9  and  C_10
REMARK    8  A    between atoms: C_10  and  N_11
REMARK    9  A    between atoms: C_12  and  C_14
REMARK                            x       y       z     vdW  Elec       q    Type
REMARK                         _______ _______ _______ _____ _____    ______ ____
ROOT
ATOM      1  C   UNL     1      50.782   2.310  17.392  0.00  0.00    +0.000 A 
ATOM      2  C   UNL     1      49.432   2.279  17.044  0.00  0.00    +0.000 A 
ATOM      3  C   UNL     1      48.758   3.479  16.843  0.00  0.00    +0.000 A 
ATOM      4  C   UNL     1      49.445   4.684  16.987  0.00  0.00    +0.000 A 
ATOM      5  C   UNL     1      50.786   4.618  17.349  0.00  0.00    +0.000 A 
ATOM      6  N   UNL     1      51.467   3.468  17.549  0.00  0.00    +0.000 NA
ENDROOT
BRANCH   1   7
ATOM      7  C   UNL     1      51.516   1.017  17.691  0.00  0.00    +0.000 C 
BRANCH   7   8
ATOM      8  N   UNL     1      52.736   1.241  18.474  0.00  0.00    +0.000 NA
ATOM      9  H   UNL     1      52.679   0.645  19.306  0.00  0.00    +0.000 HD
BRANCH   8  10
ATOM     10  C   UNL     1      53.981   0.876  17.757  0.00  0.00    +0.000 C 
BRANCH  10  11
ATOM     11  C   UNL     1      54.259  -0.616  17.985  0.00  0.00    +0.000 A 
ATOM     12  C   UNL     1      54.940  -1.374  17.030  0.00  0.00    +0.000 A 
ATOM     13  C   UNL     1      55.244  -2.708  17.300  0.00  0.00    +0.000 A 
ATOM     14  C   UNL     1      54.875  -3.251  18.522  0.00  0.00    +0.000 A 
ATOM     15  C   UNL     1      54.215  -2.438  19.425  0.00  0.00    +0.000 A 
ATOM     16  N   UNL     1      53.899  -1.142  19.188  0.00  0.00    +0.000 NA
ENDBRANCH  10  11
BRANCH  10  18
ATOM     17  C   UNL     1      55.097   3.212  17.706  0.00  0.00    +0.000 C 
ATOM     18  C   UNL     1      55.161   1.775  18.196  0.00  0.00    +0.000 C 
ENDBRANCH  10  18
ENDBRANCH   8  10
ENDBRANCH   7   8
ENDBRANCH   1   7
BRANCH   4  19
ATOM     19  C   UNL     1      48.762   6.005  16.817  0.00  0.00    +0.000 C 
BRANCH  19  20
ATOM     20  N   UNL     1      47.792   5.958  15.753  0.00  0.00    +0.000 N 
ATOM     21  C   UNL     1      48.141   6.278  14.466  0.00  0.00    +0.000 C 
ATOM     22  O   UNL     1      49.294   6.574  14.164  0.00  0.00    +0.000 OA
ATOM     23  H   UNL     1      46.809   5.927  16.012  0.00  0.00    +0.000 HD
BRANCH  21  24
ATOM     24  C   UNL     1      47.082   6.190  13.455  0.00  0.00    +0.000 A 
ATOM     25  C   UNL     1      46.635   7.350  12.834  0.00  0.00    +0.000 A 
ATOM     26  S   UNL     1      45.439   7.075  11.651  0.00  0.00    +0.000 S 
ATOM     27  C   UNL     1      45.437   5.402  11.964  0.00  0.00    +0.000 A 
ATOM     28  N   UNL     1      44.597   4.568  11.295  0.00  0.00    +0.000 NA
ATOM     29  C   UNL     1      44.676   3.331  11.654  0.00  0.00    +0.000 A 
ATOM     30  N   UNL     1      45.524   2.850  12.617  0.00  0.00    +0.000 N 
ATOM     31  C   UNL     1      46.415   3.650  13.294  0.00  0.00    +0.000 A 
ATOM     32  O   UNL     1      47.200   3.182  14.112  0.00  0.00    +0.000 OA
ATOM     33  C   UNL     1      46.353   5.055  12.941  0.00  0.00    +0.000 A 
ATOM     34  H   UNL     1      45.543   1.866  12.844  0.00  0.00    +0.000 HD
ENDBRANCH  21  24
ENDBRANCH  19  20
ENDBRANCH   4  19
TORSDOF 8
ENDMDL
MODEL 6
REMARK VINA RESULT:    -6.863      3.980      9.270
REMARK INTER + INTRA:         -11.303
REMARK INTER:                  -9.798
REMARK INTRA:                  -1.505
REMARK UNBOUND:                -1.231
REMARK  Name = 
REMARK  9 active torsions:
REMARK  status: ('A' for Active; 'I' for Inactive)
REMARK    1  A    between atoms: C_1  and  C_2
REMARK    2  A    between atoms: C_2  and  C_3
REMARK    3  A    between atoms: C_3  and  N_4
REMARK    4  A    between atoms: C_3  and  C_26
REMARK    5  A    between atoms: N_4  and  C_5
REMARK    6  A    between atoms: C_5  and  C_6
REMARK    7  A    between atoms: C_9  and  C_10
REMARK    8  A    between atoms: C_10  and  N_11
REMARK    9  A    between atoms: C_12  and  C_14
REMARK                            x       y       z     vdW  Elec       q    Type
REMARK                         _______ _______ _______ _____ _____    ______ ____
ROOT
ATOM      1  C   UNL     1      49.949   7.774  14.923  0.00  0.00    +0.000 A 
ATOM      2  C   UNL     1      49.656   9.027  14.385  0.00  0.00    +0.000 A 
ATOM      3  C   UNL     1      48.715   9.123  13.366  0.00  0.00    +0.000 A 
ATOM      4  C   UNL     1      48.081   7.968  12.907  0.00  0.00    +0.000 A 
ATOM      5  C   UNL     1      48.446   6.761  13.494  0.00  0.00    +0.000 A 
ATOM      6  N   UNL     1      49.355   6.638  14.487  0.00  0.00    +0.000 NA
ENDROOT
BRANCH   1   7
ATOM      7  C   UNL     1      51.027   7.638  15.980  0.00  0.00    +0.000 C 
BRANCH   7   8
ATOM      8  N   UNL     1      51.342   6.236  16.273  0.00  0.00    +0.000 NA
ATOM      9  H   UNL     1      52.358   6.127  16.188  0.00  0.00    +0.000 HD
BRANCH   8  10
ATOM     10  C   UNL     1      50.968   5.812  17.643  0.00  0.00    +0.000 C 
BRANCH  10  11
ATOM     11  C   UNL     1      49.809   4.811  17.547  0.00  0.00    +0.000 A 
ATOM     12  C   UNL     1      48.483   5.234  17.656  0.00  0.00    +0.000 A 
ATOM     13  C   UNL     1      47.450   4.312  17.488  0.00  0.00    +0.000 A 
ATOM     14  C   UNL     1      47.764   2.991  17.201  0.00  0.00    +0.000 A 
ATOM     15  C   UNL     1      49.099   2.646  17.095  0.00  0.00    +0.000 A 
ATOM     16  N   UNL     1      50.123   3.517  17.260  0.00  0.00    +0.000 NA
ENDBRANCH  10  11
BRANCH  10  18
ATOM     17  C   UNL     1      51.563   7.258  19.707  0.00  0.00    +0.000 C 
ATOM     18  C   UNL     1      50.628   7.033  18.530  0.00  0.00    +0.000 C 
ENDBRANCH  10  18
ENDBRANCH   8  10
ENDBRANCH   7   8
ENDBRANCH   1   7
BRANCH   4  19
ATOM     19  C   UNL     1      47.085   8.007  11.790  0.00  0.00    +0.000 C 
BRANCH  19  20
ATOM     20  N   UNL     1      46.512   6.705  11.558  0.00  0.00    +0.000 N 
ATOM     21  C   UNL     1      45.153   6.525  11.556  0.00  0.00    +0.000 C 
ATOM     22  O   UNL     1      44.376   7.464  11.709  0.00  0.00    +0.000 OA
ATOM     23  H   UNL     1      47.123   5.898  11.644  0.00  0.00    +0.000 HD
BRANCH  21  24
ATOM     24  C   UNL     1      44.669   5.163  11.302  0.00  0.00    +0.000 A 
ATOM     25  C   UNL     1      43.912   4.517  12.271  0.00  0.00    +0.000 A 
ATOM     26  S   UNL     1      43.387   2.964  11.806  0.00  0.00    +0.000 S 
ATOM     27  C   UNL     1      44.196   3.078  10.313  0.00  0.00    +0.000 A 
ATOM     28  N   UNL     1      44.173   2.048   9.426  0.00  0.00    +0.000 NA
ATOM     29  C   UNL     1      44.856   2.255   8.350  0.00  0.00    +0.000 A 
ATOM     30  N   UNL     1      45.554   3.403   8.077  0.00  0.00    +0.000 N 
ATOM     31  C   UNL     1      45.576   4.483   8.927  0.00  0.00    +0.000 A 
ATOM     32  O   UNL     1      46.164   5.518   8.632  0.00  0.00    +0.000 OA
ATOM     33  C   UNL     1      44.840   4.294  10.162  0.00  0.00    +0.000 A 
ATOM     34  H   UNL     1      46.060   3.505   7.210  0.00  0.00    +0.000 HD
ENDBRANCH  21  24
ENDBRANCH  19  20
ENDBRANCH   4  19
TORSDOF 8
ENDMDL
MODEL 7
REMARK VINA RESULT:    -6.804      3.058      9.526
REMARK INTER + INTRA:         -11.216
REMARK INTER:                  -9.750
REMARK INTRA:                  -1.466
REMARK UNBOUND:                -1.231
REMARK  Name = 
REMARK  9 active torsions:
REMARK  status: ('A' for Active; 'I' for Inactive)
REMARK    1  A    between atoms: C_1  and  C_2
REMARK    2  A    between atoms: C_2  and  C_3
REMARK    3  A    between atoms: C_3  and  N_4
REMARK    4  A    between atoms: C_3  and  C_26
REMARK    5  A    between atoms: N_4  and  C_5
REMARK    6  A    between atoms: C_5  and  C_6
REMARK    7  A    between atoms: C_9  and  C_10
REMARK    8  A    between atoms: C_10  and  N_11
REMARK    9  A    between atoms: C_12  and  C_14
REMARK                            x       y       z     vdW  Elec       q    Type
REMARK                         _______ _______ _______ _____ _____    ______ ____
ROOT
ATOM      1  C   UNL     1      51.157   2.261  17.379  0.00  0.00    +0.000 A 
ATOM      2  C   UNL     1      49.775   2.098  17.292  0.00  0.00    +0.000 A 
ATOM      3  C   UNL     1      48.964   3.226  17.219  0.00  0.00    +0.000 A 
ATOM      4  C   UNL     1      49.548   4.492  17.230  0.00  0.00    +0.000 A 
ATOM      5  C   UNL     1      50.934   4.558  17.333  0.00  0.00    +0.000 A 
ATOM      6  N   UNL     1      51.747   3.480  17.403  0.00  0.00    +0.000 NA
ENDROOT
BRANCH   1   7
ATOM      7  C   UNL     1      52.053   1.048  17.536  0.00  0.00    +0.000 C 
BRANCH   7   8
ATOM      8  N   UNL     1      53.010   1.204  18.637  0.00  0.00    +0.000 NA
ATOM      9  H   UNL     1      52.872   0.415  19.276  0.00  0.00    +0.000 HD
BRANCH   8  10
ATOM     10  C   UNL     1      54.428   1.177  18.205  0.00  0.00    +0.000 C 
BRANCH  10  11
ATOM     11  C   UNL     1      54.919   2.622  18.044  0.00  0.00    +0.000 A 
ATOM     12  C   UNL     1      55.385   3.089  16.813  0.00  0.00    +0.000 A 
ATOM     13  C   UNL     1      55.752   4.428  16.680  0.00  0.00    +0.000 A 
ATOM     14  C   UNL     1      55.632   5.273  17.774  0.00  0.00    +0.000 A 
ATOM     15  C   UNL     1      55.150   4.745  18.958  0.00  0.00    +0.000 A 
ATOM     16  N   UNL     1      54.793   3.448  19.119  0.00  0.00    +0.000 NA
ENDBRANCH  10  11
BRANCH  10  18
ATOM     17  C   UNL     1      55.195  -1.043  17.115  0.00  0.00    +0.000 C 
ATOM     18  C   UNL     1      54.601   0.342  16.915  0.00  0.00    +0.000 C 
ENDBRANCH  10  18
ENDBRANCH   8  10
ENDBRANCH   7   8
ENDBRANCH   1   7
BRANCH   4  19
ATOM     19  C   UNL     1      48.724   5.741  17.189  0.00  0.00    +0.000 C 
BRANCH  19  20
ATOM     20  N   UNL     1      47.837   5.743  16.054  0.00  0.00    +0.000 N 
ATOM     21  C   UNL     1      48.253   6.215  14.836  0.00  0.00    +0.000 C 
ATOM     22  O   UNL     1      49.402   6.611  14.654  0.00  0.00    +0.000 OA
ATOM     23  H   UNL     1      46.843   5.626  16.232  0.00  0.00    +0.000 HD
BRANCH  21  24
ATOM     24  C   UNL     1      47.277   6.167  13.742  0.00  0.00    +0.000 A 
ATOM     25  C   UNL     1      46.900   7.346  13.112  0.00  0.00    +0.000 A 
ATOM     26  S   UNL     1      45.798   7.117  11.833  0.00  0.00    +0.000 S 
ATOM     27  C   UNL     1      45.743   5.439  12.109  0.00  0.00    +0.000 A 
ATOM     28  N   UNL     1      44.946   4.634  11.357  0.00  0.00    +0.000 NA
ATOM     29  C   UNL     1      44.976   3.388  11.695  0.00  0.00    +0.000 A 
ATOM     30  N   UNL     1      45.737   2.873  12.711  0.00  0.00    +0.000 N 
ATOM     31  C   UNL     1      46.584   3.642  13.474  0.00  0.00    +0.000 A 
ATOM     32  O   UNL     1      47.293   3.145  14.341  0.00  0.00    +0.000 OA
ATOM     33  C   UNL     1      46.573   5.055  13.148  0.00  0.00    +0.000 A 
ATOM     34  H   UNL     1      45.722   1.884  12.918  0.00  0.00    +0.000 HD
ENDBRANCH  21  24
ENDBRANCH  19  20
ENDBRANCH   4  19
TORSDOF 8
ENDMDL
MODEL 8
REMARK VINA RESULT:    -6.777      1.567      1.973
REMARK INTER + INTRA:         -11.177
REMARK INTER:                  -9.909
REMARK INTRA:                  -1.268
REMARK UNBOUND:                -1.231
REMARK  Name = 
REMARK  9 active torsions:
REMARK  status: ('A' for Active; 'I' for Inactive)
REMARK    1  A    between atoms: C_1  and  C_2
REMARK    2  A    between atoms: C_2  and  C_3
REMARK    3  A    between atoms: C_3  and  N_4
REMARK    4  A    between atoms: C_3  and  C_26
REMARK    5  A    between atoms: N_4  and  C_5
REMARK    6  A    between atoms: C_5  and  C_6
REMARK    7  A    between atoms: C_9  and  C_10
REMARK    8  A    between atoms: C_10  and  N_11
REMARK    9  A    between atoms: C_12  and  C_14
REMARK                            x       y       z     vdW  Elec       q    Type
REMARK                         _______ _______ _______ _____ _____    ______ ____
ROOT
ATOM      1  C   UNL     1      47.524   4.962  14.970  0.00  0.00    +0.000 A 
ATOM      2  C   UNL     1      47.099   3.938  15.816  0.00  0.00    +0.000 A 
ATOM      3  C   UNL     1      47.575   3.898  17.122  0.00  0.00    +0.000 A 
ATOM      4  C   UNL     1      48.460   4.883  17.559  0.00  0.00    +0.000 A 
ATOM      5  C   UNL     1      48.839   5.857  16.642  0.00  0.00    +0.000 A 
ATOM      6  N   UNL     1      48.392   5.922  15.368  0.00  0.00    +0.000 NA
ENDROOT
BRANCH   1   7
ATOM      7  C   UNL     1      47.078   4.980  13.520  0.00  0.00    +0.000 C 
BRANCH   7   8
ATOM      8  N   UNL     1      45.619   4.923  13.388  0.00  0.00    +0.000 NA
ATOM      9  H   UNL     1      45.218   5.304  14.251  0.00  0.00    +0.000 HD
BRANCH   8  10
ATOM     10  C   UNL     1      45.089   5.729  12.263  0.00  0.00    +0.000 C 
BRANCH  10  11
ATOM     11  C   UNL     1      44.914   4.815  11.043  0.00  0.00    +0.000 A 
ATOM     12  C   UNL     1      45.455   5.160   9.803  0.00  0.00    +0.000 A 
ATOM     13  C   UNL     1      45.345   4.272   8.734  0.00  0.00    +0.000 A 
ATOM     14  C   UNL     1      44.712   3.054   8.929  0.00  0.00    +0.000 A 
ATOM     15  C   UNL     1      44.212   2.773  10.188  0.00  0.00    +0.000 A 
ATOM     16  N   UNL     1      44.296   3.618  11.243  0.00  0.00    +0.000 NA
ENDBRANCH  10  11
BRANCH  10  18
ATOM     17  C   UNL     1      45.289   8.286  11.908  0.00  0.00    +0.000 C 
ATOM     18  C   UNL     1      46.000   6.944  11.971  0.00  0.00    +0.000 C 
ENDBRANCH  10  18
ENDBRANCH   8  10
ENDBRANCH   7   8
ENDBRANCH   1   7
BRANCH   4  19
ATOM     19  C   UNL     1      49.031   4.871  18.943  0.00  0.00    +0.000 C 
BRANCH  19  20
ATOM     20  N   UNL     1      50.210   4.046  19.014  0.00  0.00    +0.000 N 
ATOM     21  C   UNL     1      51.462   4.596  18.914  0.00  0.00    +0.000 C 
ATOM     22  O   UNL     1      51.629   5.808  18.805  0.00  0.00    +0.000 OA
ATOM     23  H   UNL     1      50.093   3.044  18.889  0.00  0.00    +0.000 HD
BRANCH  21  24
ATOM     24  C   UNL     1      52.597   3.671  19.007  0.00  0.00    +0.000 A 
ATOM     25  C   UNL     1      53.703   4.024  19.770  0.00  0.00    +0.000 A 
ATOM     26  S   UNL     1      54.913   2.825  19.815  0.00  0.00    +0.000 S 
ATOM     27  C   UNL     1      54.027   1.814  18.773  0.00  0.00    +0.000 A 
ATOM     28  N   UNL     1      54.524   0.611  18.377  0.00  0.00    +0.000 NA
ATOM     29  C   UNL     1      53.763  -0.038  17.560  0.00  0.00    +0.000 A 
ATOM     30  N   UNL     1      52.547   0.403  17.109  0.00  0.00    +0.000 N 
ATOM     31  C   UNL     1      51.988   1.594  17.510  0.00  0.00    +0.000 A 
ATOM     32  O   UNL     1      50.874   1.937  17.132  0.00  0.00    +0.000 OA
ATOM     33  C   UNL     1      52.813   2.373  18.413  0.00  0.00    +0.000 A 
ATOM     34  H   UNL     1      51.996  -0.160  16.477  0.00  0.00    +0.000 HD
ENDBRANCH  21  24
ENDBRANCH  19  20
ENDBRANCH   4  19
TORSDOF 8
ENDMDL
MODEL 9
REMARK VINA RESULT:    -6.447      2.856      3.299
REMARK INTER + INTRA:         -10.693
REMARK INTER:                  -9.639
REMARK INTRA:                  -1.054
REMARK UNBOUND:                -1.231
REMARK  Name = 
REMARK  9 active torsions:
REMARK  status: ('A' for Active; 'I' for Inactive)
REMARK    1  A    between atoms: C_1  and  C_2
REMARK    2  A    between atoms: C_2  and  C_3
REMARK    3  A    between atoms: C_3  and  N_4
REMARK    4  A    between atoms: C_3  and  C_26
REMARK    5  A    between atoms: N_4  and  C_5
REMARK    6  A    between atoms: C_5  and  C_6
REMARK    7  A    between atoms: C_9  and  C_10
REMARK    8  A    between atoms: C_10  and  N_11
REMARK    9  A    between atoms: C_12  and  C_14
REMARK                            x       y       z     vdW  Elec       q    Type
REMARK                         _______ _______ _______ _____ _____    ______ ____
ROOT
ATOM      1  C   UNL     1      46.332   7.436  12.305  0.00  0.00    +0.000 A 
ATOM      2  C   UNL     1      47.140   8.557  12.122  0.00  0.00    +0.000 A 
ATOM      3  C   UNL     1      48.389   8.598  12.733  0.00  0.00    +0.000 A 
ATOM      4  C   UNL     1      48.808   7.519  13.510  0.00  0.00    +0.000 A 
ATOM      5  C   UNL     1      47.929   6.449  13.648  0.00  0.00    +0.000 A 
ATOM      6  N   UNL     1      46.712   6.381  13.064  0.00  0.00    +0.000 NA
ENDROOT
BRANCH   1   7
ATOM      7  C   UNL     1      44.937   7.404  11.712  0.00  0.00    +0.000 C 
BRANCH   7   8
ATOM      8  N   UNL     1      44.838   6.480  10.577  0.00  0.00    +0.000 NA
ATOM      9  H   UNL     1      45.709   6.558  10.043  0.00  0.00    +0.000 HD
BRANCH   8  10
ATOM     10  C   UNL     1      44.691   5.060  10.973  0.00  0.00    +0.000 C 
BRANCH  10  11
ATOM     11  C   UNL     1      45.188   4.174   9.822  0.00  0.00    +0.000 A 
ATOM     12  C   UNL     1      44.987   2.793   9.840  0.00  0.00    +0.000 A 
ATOM     13  C   UNL     1      45.383   2.027   8.744  0.00  0.00    +0.000 A 
ATOM     14  C   UNL     1      45.956   2.658   7.650  0.00  0.00    +0.000 A 
ATOM     15  C   UNL     1      46.113   4.031   7.697  0.00  0.00    +0.000 A 
ATOM     16  N   UNL     1      45.746   4.801   8.750  0.00  0.00    +0.000 NA
ENDBRANCH  10  11
BRANCH  10  18
ATOM     17  C   UNL     1      43.031   4.387  12.844  0.00  0.00    +0.000 C 
ATOM     18  C   UNL     1      43.232   4.743  11.380  0.00  0.00    +0.000 C 
ENDBRANCH  10  18
ENDBRANCH   8  10
ENDBRANCH   7   8
ENDBRANCH   1   7
BRANCH   4  19
ATOM     19  C   UNL     1      50.126   7.522  14.219  0.00  0.00    +0.000 C 
BRANCH  19  20
ATOM     20  N   UNL     1      49.964   7.245  15.623  0.00  0.00    +0.000 N 
ATOM     21  C   UNL     1      51.034   6.878  16.397  0.00  0.00    +0.000 C 
ATOM     22  O   UNL     1      52.172   6.812  15.938  0.00  0.00    +0.000 OA
ATOM     23  H   UNL     1      49.020   7.085  15.967  0.00  0.00    +0.000 HD
BRANCH  21  24
ATOM     24  C   UNL     1      50.766   6.625  17.817  0.00  0.00    +0.000 A 
ATOM     25  C   UNL     1      51.423   7.380  18.780  0.00  0.00    +0.000 A 
ATOM     26  S   UNL     1      50.966   6.999  20.377  0.00  0.00    +0.000 S 
ATOM     27  C   UNL     1      49.914   5.774  19.842  0.00  0.00    +0.000 A 
ATOM     28  N   UNL     1      49.213   5.019  20.730  0.00  0.00    +0.000 NA
ATOM     29  C   UNL     1      48.479   4.105  20.189  0.00  0.00    +0.000 A 
ATOM     30  N   UNL     1      48.377   3.882  18.841  0.00  0.00    +0.000 N 
ATOM     31  C   UNL     1      49.038   4.642  17.905  0.00  0.00    +0.000 A 
ATOM     32  O   UNL     1      48.884   4.454  16.704  0.00  0.00    +0.000 OA
ATOM     33  C   UNL     1      49.893   5.673  18.462  0.00  0.00    +0.000 A 
ATOM     34  H   UNL     1      47.775   3.154  18.482  0.00  0.00    +0.000 HD
ENDBRANCH  21  24
ENDBRANCH  19  20
ENDBRANCH   4  19
TORSDOF 8
ENDMDL
