MODEL 1
REMARK VINA RESULT:    -8.871      0.000      0.000
REMARK INTER + INTRA:         -12.383
REMARK INTER:                 -11.464
REMARK INTRA:                  -0.919
REMARK UNBOUND:                -0.919
REMARK  Name = 
REMARK  5 active torsions:
REMARK  status: ('A' for Active; 'I' for Inactive)
REMARK    1  A    between atoms: C_2  and  C_4
REMARK    2  A    between atoms: C_7  and  O_8
REMARK    3  A    between atoms: O_8  and  C_9
REMARK    4  A    between atoms: C_9  and  C_10
REMARK    5  A    between atoms: C_15  and  C_16
REMARK                            x       y       z     vdW  Elec       q    Type
REMARK                         _______ _______ _______ _____ _____    ______ ____
ROOT
ATOM      1  C   UNL     1      44.784   4.303  12.115  0.00  0.00    +0.000 A 
ATOM      2  C   UNL     1      45.641   3.498  12.872  0.00  0.00    +0.000 A 
ATOM      3  C   UNL     1      46.756   4.057  13.488  0.00  0.00    +0.000 A 
ATOM      4  C   UNL     1      47.024   5.417  13.340  0.00  0.00    +0.000 A 
ATOM      5  F   UNL     1      48.110   5.900  13.964  0.00  0.00    +0.000 F 
ATOM      6  C   UNL     1      46.204   6.265  12.576  0.00  0.00    +0.000 A 
ATOM      7  C   UNL     1      45.071   5.675  11.980  0.00  0.00    +0.000 A 
ENDROOT
BRANCH   6   8
ATOM      8  C   UNL     1      46.521   7.696  12.370  0.00  0.00    +0.000 A 
ATOM      9  C   UNL     1      47.808   8.135  12.074  0.00  0.00    +0.000 A 
ATOM     10  N   UNL     1      48.131   9.425  11.842  0.00  0.00    +0.000 NA
ATOM     11  N   UNL     1      47.155  10.371  11.879  0.00  0.00    +0.000 NA
ATOM     12  C   UNL     1      45.889  10.018  12.167  0.00  0.00    +0.000 A 
ATOM     13  N   UNL     1      44.903  11.007  12.134  0.00  0.00    +0.000 N 
ATOM     14  C   UNL     1      45.546   8.699  12.415  0.00  0.00    +0.000 A 
ATOM     15  H   UNL     1      45.365  11.903  11.993  0.00  0.00    +0.000 HD
ATOM     16  H   UNL     1      44.325  11.001  12.966  0.00  0.00    +0.000 HD
ENDBRANCH   6   8
BRANCH   1  17
ATOM     17  C   UNL     1      43.584   3.709  11.415  0.00  0.00    +0.000 C 
BRANCH  17  18
ATOM     18  O   UNL     1      43.610   4.110  10.045  0.00  0.00    +0.000 OA
BRANCH  18  22
ATOM     19  C   UNL     1      46.574   2.611   7.522  0.00  0.00    +0.000 A 
ATOM     20  C   UNL     1      45.869   1.711   8.328  0.00  0.00    +0.000 A 
ATOM     21  C   UNL     1      44.867   2.173   9.190  0.00  0.00    +0.000 A 
ATOM     22  C   UNL     1      44.564   3.534   9.251  0.00  0.00    +0.000 A 
ATOM     23  C   UNL     1      45.276   4.431   8.451  0.00  0.00    +0.000 A 
ATOM     24  C   UNL     1      46.282   3.977   7.594  0.00  0.00    +0.000 A 
BRANCH  19  26
ATOM     25  N   UNL     1      47.942   2.968   5.541  0.00  0.00    +0.000 N 
ATOM     26  C   UNL     1      47.652   2.161   6.606  0.00  0.00    +0.000 C 
ATOM     27  O   UNL     1      48.282   1.131   6.810  0.00  0.00    +0.000 OA
ATOM     28  H   UNL     1      48.749   2.704   4.989  0.00  0.00    +0.000 HD
ATOM     29  H   UNL     1      47.640   3.930   5.496  0.00  0.00    +0.000 HD
ENDBRANCH  19  26
ENDBRANCH  18  22
ENDBRANCH  17  18
ENDBRANCH   1  17
TORSDOF 5
ENDMDL
MODEL 2
REMARK VINA RESULT:    -8.799      1.287      2.388
REMARK INTER + INTRA:         -12.290
REMARK INTER:                 -11.281
REMARK INTRA:                  -1.008
REMARK UNBOUND:                -0.919
REMARK  Name = 
REMARK  5 active torsions:
REMARK  status: ('A' for Active; 'I' for Inactive)
REMARK    1  A    between atoms: C_2  and  C_4
REMARK    2  A    between atoms: C_7  and  O_8
REMARK    3  A    between atoms: O_8  and  C_9
REMARK    4  A    between atoms: C_9  and  C_10
REMARK    5  A    between atoms: C_15  and  C_16
REMARK                            x       y       z     vdW  Elec       q    Type
REMARK                         _______ _______ _______ _____ _____    ______ ____
ROOT
ATOM      1  C   UNL     1      44.711   5.522  11.717  0.00  0.00    +0.000 A 
ATOM      2  C   UNL     1      44.806   4.660  12.813  0.00  0.00    +0.000 A 
ATOM      3  C   UNL     1      45.881   4.766  13.690  0.00  0.00    +0.000 A 
ATOM      4  C   UNL     1      46.866   5.726  13.469  0.00  0.00    +0.000 A 
ATOM      5  F   UNL     1      47.874   5.786  14.354  0.00  0.00    +0.000 F 
ATOM      6  C   UNL     1      46.826   6.605  12.374  0.00  0.00    +0.000 A 
ATOM      7  C   UNL     1      45.716   6.487  11.512  0.00  0.00    +0.000 A 
ENDROOT
BRANCH   6   8
ATOM      8  C   UNL     1      47.903   7.584  12.105  0.00  0.00    +0.000 A 
ATOM      9  C   UNL     1      47.691   8.958  12.176  0.00  0.00    +0.000 A 
ATOM     10  N   UNL     1      48.655   9.882  11.976  0.00  0.00    +0.000 NA
ATOM     11  N   UNL     1      49.922   9.471  11.702  0.00  0.00    +0.000 NA
ATOM     12  C   UNL     1      50.197   8.157  11.612  0.00  0.00    +0.000 A 
ATOM     13  N   UNL     1      51.522   7.771  11.392  0.00  0.00    +0.000 N 
ATOM     14  C   UNL     1      49.216   7.199  11.807  0.00  0.00    +0.000 A 
ATOM     15  H   UNL     1      52.067   8.614  11.220  0.00  0.00    +0.000 HD
ATOM     16  H   UNL     1      51.607   7.100  10.638  0.00  0.00    +0.000 HD
ENDBRANCH   6   8
BRANCH   1  17
ATOM     17  C   UNL     1      43.567   5.404  10.737  0.00  0.00    +0.000 C 
BRANCH  17  18
ATOM     18  O   UNL     1      43.470   4.045  10.311  0.00  0.00    +0.000 OA
BRANCH  18  22
ATOM     19  C   UNL     1      46.355   2.435   7.765  0.00  0.00    +0.000 A 
ATOM     20  C   UNL     1      46.068   3.800   7.666  0.00  0.00    +0.000 A 
ATOM     21  C   UNL     1      45.107   4.381   8.502  0.00  0.00    +0.000 A 
ATOM     22  C   UNL     1      44.426   3.602   9.439  0.00  0.00    +0.000 A 
ATOM     23  C   UNL     1      44.708   2.236   9.529  0.00  0.00    +0.000 A 
ATOM     24  C   UNL     1      45.663   1.650   8.693  0.00  0.00    +0.000 A 
BRANCH  19  26
ATOM     25  N   UNL     1      48.450   2.523   6.529  0.00  0.00    +0.000 N 
ATOM     26  C   UNL     1      47.358   1.781   6.888  0.00  0.00    +0.000 C 
ATOM     27  O   UNL     1      47.237   0.618   6.527  0.00  0.00    +0.000 OA
ATOM     28  H   UNL     1      49.175   2.031   6.023  0.00  0.00    +0.000 HD
ATOM     29  H   UNL     1      48.711   3.367   7.017  0.00  0.00    +0.000 HD
ENDBRANCH  19  26
ENDBRANCH  18  22
ENDBRANCH  17  18
ENDBRANCH   1  17
TORSDOF 5
ENDMDL
MODEL 3
REMARK VINA RESULT:    -8.751      3.026      3.930
REMARK INTER + INTRA:         -12.228
REMARK INTER:                 -11.384
REMARK INTRA:                  -0.845
REMARK UNBOUND:                -0.919
REMARK  Name = 
REMARK  5 active torsions:
REMARK  status: ('A' for Active; 'I' for Inactive)
REMARK    1  A    between atoms: C_2  and  C_4
REMARK    2  A    between atoms: C_7  and  O_8
REMARK    3  A    between atoms: O_8  and  C_9
REMARK    4  A    between atoms: C_9  and  C_10
REMARK    5  A    between atoms: C_15  and  C_16
REMARK                            x       y       z     vdW  Elec       q    Type
REMARK                         _______ _______ _______ _____ _____    ______ ____
ROOT
ATOM      1  C   UNL     1      44.643   5.232  11.938  0.00  0.00    +0.000 A 
ATOM      2  C   UNL     1      44.983   6.529  11.542  0.00  0.00    +0.000 A 
ATOM      3  C   UNL     1      46.055   7.181  12.145  0.00  0.00    +0.000 A 
ATOM      4  C   UNL     1      46.782   6.544  13.149  0.00  0.00    +0.000 A 
ATOM      5  F   UNL     1      47.809   7.220  13.686  0.00  0.00    +0.000 F 
ATOM      6  C   UNL     1      46.470   5.248  13.594  0.00  0.00    +0.000 A 
ATOM      7  C   UNL     1      45.391   4.605  12.953  0.00  0.00    +0.000 A 
ENDROOT
BRANCH   6   8
ATOM      8  C   UNL     1      47.203   4.594  14.701  0.00  0.00    +0.000 A 
ATOM      9  C   UNL     1      47.560   3.249  14.662  0.00  0.00    +0.000 A 
ATOM     10  N   UNL     1      48.261   2.626  15.633  0.00  0.00    +0.000 NA
ATOM     11  N   UNL     1      48.668   3.336  16.719  0.00  0.00    +0.000 NA
ATOM     12  C   UNL     1      48.351   4.640  16.826  0.00  0.00    +0.000 A 
ATOM     13  N   UNL     1      48.840   5.352  17.924  0.00  0.00    +0.000 N 
ATOM     14  C   UNL     1      47.625   5.290  15.840  0.00  0.00    +0.000 A 
ATOM     15  H   UNL     1      49.292   4.688  18.550  0.00  0.00    +0.000 HD
ATOM     16  H   UNL     1      48.114   5.885  18.390  0.00  0.00    +0.000 HD
ENDBRANCH   6   8
BRANCH   1  17
ATOM     17  C   UNL     1      43.465   4.519  11.317  0.00  0.00    +0.000 C 
BRANCH  17  18
ATOM     18  O   UNL     1      43.560   4.632   9.897  0.00  0.00    +0.000 OA
BRANCH  18  22
ATOM     19  C   UNL     1      46.296   2.256   7.833  0.00  0.00    +0.000 A 
ATOM     20  C   UNL     1      45.425   1.636   8.735  0.00  0.00    +0.000 A 
ATOM     21  C   UNL     1      44.492   2.397   9.449  0.00  0.00    +0.000 A 
ATOM     22  C   UNL     1      44.423   3.779   9.266  0.00  0.00    +0.000 A 
ATOM     23  C   UNL     1      45.302   4.396   8.371  0.00  0.00    +0.000 A 
ATOM     24  C   UNL     1      46.240   3.642   7.661  0.00  0.00    +0.000 A 
BRANCH  19  26
ATOM     25  N   UNL     1      48.408   2.165   6.627  0.00  0.00    +0.000 N 
ATOM     26  C   UNL     1      47.308   1.484   7.069  0.00  0.00    +0.000 C 
ATOM     27  O   UNL     1      47.185   0.283   6.869  0.00  0.00    +0.000 OA
ATOM     28  H   UNL     1      49.138   1.605   6.203  0.00  0.00    +0.000 HD
ATOM     29  H   UNL     1      48.668   3.068   6.997  0.00  0.00    +0.000 HD
ENDBRANCH  19  26
ENDBRANCH  18  22
ENDBRANCH  17  18
ENDBRANCH   1  17
TORSDOF 5
ENDMDL
MODEL 4
REMARK VINA RESULT:    -8.390      2.127      2.795
REMARK INTER + INTRA:         -11.761
REMARK INTER:                 -10.796
REMARK INTRA:                  -0.965
REMARK UNBOUND:                -0.919
REMARK  Name = 
REMARK  5 active torsions:
REMARK  status: ('A' for Active; 'I' for Inactive)
REMARK    1  A    between atoms: C_2  and  C_4
REMARK    2  A    between atoms: C_7  and  O_8
REMARK    3  A    between atoms: O_8  and  C_9
REMARK    4  A    between atoms: C_9  and  C_10
REMARK    5  A    between atoms: C_15  and  C_16
REMARK                            x       y       z     vdW  Elec       q    Type
REMARK                         _______ _______ _______ _____ _____    ______ ____
ROOT
ATOM      1  C   UNL     1      44.389   5.230  11.613  0.00  0.00    +0.000 A 
ATOM      2  C   UNL     1      43.524   6.278  11.284  0.00  0.00    +0.000 A 
ATOM      3  C   UNL     1      43.963   7.596  11.373  0.00  0.00    +0.000 A 
ATOM      4  C   UNL     1      45.262   7.869  11.799  0.00  0.00    +0.000 A 
ATOM      5  F   UNL     1      45.630   9.159  11.857  0.00  0.00    +0.000 F 
ATOM      6  C   UNL     1      46.164   6.853  12.157  0.00  0.00    +0.000 A 
ATOM      7  C   UNL     1      45.698   5.528  12.039  0.00  0.00    +0.000 A 
ENDROOT
BRANCH   6   8
ATOM      8  C   UNL     1      47.522   7.146  12.666  0.00  0.00    +0.000 A 
ATOM      9  C   UNL     1      47.813   7.175  14.027  0.00  0.00    +0.000 A 
ATOM     10  N   UNL     1      49.045   7.400  14.531  0.00  0.00    +0.000 NA
ATOM     11  N   UNL     1      50.085   7.599  13.679  0.00  0.00    +0.000 NA
ATOM     12  C   UNL     1      49.875   7.592  12.350  0.00  0.00    +0.000 A 
ATOM     13  N   UNL     1      50.978   7.736  11.504  0.00  0.00    +0.000 N 
ATOM     14  C   UNL     1      48.614   7.370  11.819  0.00  0.00    +0.000 A 
ATOM     15  H   UNL     1      51.789   7.943  12.083  0.00  0.00    +0.000 HD
ATOM     16  H   UNL     1      50.825   8.440  10.791  0.00  0.00    +0.000 HD
ENDBRANCH   6   8
BRANCH   1  17
ATOM     17  C   UNL     1      43.922   3.795  11.551  0.00  0.00    +0.000 C 
BRANCH  17  18
ATOM     18  O   UNL     1      43.512   3.506  10.215  0.00  0.00    +0.000 OA
BRANCH  18  22
ATOM     19  C   UNL     1      46.488   2.557   7.452  0.00  0.00    +0.000 A 
ATOM     20  C   UNL     1      46.017   1.545   8.295  0.00  0.00    +0.000 A 
ATOM     21  C   UNL     1      45.019   1.821   9.237  0.00  0.00    +0.000 A 
ATOM     22  C   UNL     1      44.487   3.107   9.342  0.00  0.00    +0.000 A 
ATOM     23  C   UNL     1      44.967   4.118   8.504  0.00  0.00    +0.000 A 
ATOM     24  C   UNL     1      45.968   3.849   7.566  0.00  0.00    +0.000 A 
BRANCH  19  26
ATOM     25  N   UNL     1      47.520   3.049   5.303  0.00  0.00    +0.000 N 
ATOM     26  C   UNL     1      47.554   2.305   6.449  0.00  0.00    +0.000 C 
ATOM     27  O   UNL     1      48.448   1.493   6.651  0.00  0.00    +0.000 OA
ATOM     28  H   UNL     1      48.311   2.944   4.680  0.00  0.00    +0.000 HD
ATOM     29  H   UNL     1      46.974   3.894   5.225  0.00  0.00    +0.000 HD
ENDBRANCH  19  26
ENDBRANCH  18  22
ENDBRANCH  17  18
ENDBRANCH   1  17
TORSDOF 5
ENDMDL
MODEL 5
REMARK VINA RESULT:    -7.222      5.722      8.107
REMARK INTER + INTRA:         -10.252
REMARK INTER:                  -9.288
REMARK INTRA:                  -0.964
REMARK UNBOUND:                -0.919
REMARK  Name = 
REMARK  5 active torsions:
REMARK  status: ('A' for Active; 'I' for Inactive)
REMARK    1  A    between atoms: C_2  and  C_4
REMARK    2  A    between atoms: C_7  and  O_8
REMARK    3  A    between atoms: O_8  and  C_9
REMARK    4  A    between atoms: C_9  and  C_10
REMARK    5  A    between atoms: C_15  and  C_16
REMARK                            x       y       z     vdW  Elec       q    Type
REMARK                         _______ _______ _______ _____ _____    ______ ____
ROOT
ATOM      1  C   UNL     1      49.135   7.059  15.123  0.00  0.00    +0.000 A 
ATOM      2  C   UNL     1      49.796   7.706  14.074  0.00  0.00    +0.000 A 
ATOM      3  C   UNL     1      49.307   7.604  12.776  0.00  0.00    +0.000 A 
ATOM      4  C   UNL     1      48.164   6.849  12.520  0.00  0.00    +0.000 A 
ATOM      5  F   UNL     1      47.736   6.795  11.249  0.00  0.00    +0.000 F 
ATOM      6  C   UNL     1      47.473   6.166  13.535  0.00  0.00    +0.000 A 
ATOM      7  C   UNL     1      47.981   6.302  14.844  0.00  0.00    +0.000 A 
ENDROOT
BRANCH   6   8
ATOM      8  C   UNL     1      46.294   5.315  13.255  0.00  0.00    +0.000 A 
ATOM      9  C   UNL     1      46.391   3.933  13.130  0.00  0.00    +0.000 A 
ATOM     10  N   UNL     1      45.336   3.119  12.913  0.00  0.00    +0.000 NA
ATOM     11  N   UNL     1      44.091   3.656  12.821  0.00  0.00    +0.000 NA
ATOM     12  C   UNL     1      43.925   4.987  12.925  0.00  0.00    +0.000 A 
ATOM     13  N   UNL     1      42.624   5.497  12.890  0.00  0.00    +0.000 N 
ATOM     14  C   UNL     1      45.000   5.834  13.140  0.00  0.00    +0.000 A 
ATOM     15  H   UNL     1      41.994   4.728  12.668  0.00  0.00    +0.000 HD
ATOM     16  H   UNL     1      42.531   6.267  12.239  0.00  0.00    +0.000 HD
ENDBRANCH   6   8
BRANCH   1  17
ATOM     17  C   UNL     1      49.667   7.133  16.535  0.00  0.00    +0.000 C 
BRANCH  17  18
ATOM     18  O   UNL     1      49.184   6.005  17.264  0.00  0.00    +0.000 OA
BRANCH  18  22
ATOM     19  C   UNL     1      51.536   2.578  17.612  0.00  0.00    +0.000 A 
ATOM     20  C   UNL     1      52.172   3.824  17.610  0.00  0.00    +0.000 A 
ATOM     21  C   UNL     1      51.420   4.999  17.495  0.00  0.00    +0.000 A 
ATOM     22  C   UNL     1      50.030   4.937  17.381  0.00  0.00    +0.000 A 
ATOM     23  C   UNL     1      49.399   3.690  17.373  0.00  0.00    +0.000 A 
ATOM     24  C   UNL     1      50.145   2.514  17.482  0.00  0.00    +0.000 A 
BRANCH  19  26
ATOM     25  N   UNL     1      51.608   0.196  18.102  0.00  0.00    +0.000 N 
ATOM     26  C   UNL     1      52.300   1.311  17.719  0.00  0.00    +0.000 C 
ATOM     27  O   UNL     1      53.492   1.252  17.444  0.00  0.00    +0.000 OA
ATOM     28  H   UNL     1      52.117  -0.679  18.066  0.00  0.00    +0.000 HD
ATOM     29  H   UNL     1      50.600   0.151  18.072  0.00  0.00    +0.000 HD
ENDBRANCH  19  26
ENDBRANCH  18  22
ENDBRANCH  17  18
ENDBRANCH   1  17
TORSDOF 5
ENDMDL
MODEL 6
REMARK VINA RESULT:    -7.102      2.776      7.073
REMARK INTER + INTRA:         -10.097
REMARK INTER:                  -9.142
REMARK INTRA:                  -0.954
REMARK UNBOUND:                -0.919
REMARK  Name = 
REMARK  5 active torsions:
REMARK  status: ('A' for Active; 'I' for Inactive)
REMARK    1  A    between atoms: C_2  and  C_4
REMARK    2  A    between atoms: C_7  and  O_8
REMARK    3  A    between atoms: O_8  and  C_9
REMARK    4  A    between atoms: C_9  and  C_10
REMARK    5  A    between atoms: C_15  and  C_16
REMARK                            x       y       z     vdW  Elec       q    Type
REMARK                         _______ _______ _______ _____ _____    ______ ____
ROOT
ATOM      1  C   UNL     1      44.863   3.989  11.646  0.00  0.00    +0.000 A 
ATOM      2  C   UNL     1      43.834   4.813  11.179  0.00  0.00    +0.000 A 
ATOM      3  C   UNL     1      43.530   4.843   9.822  0.00  0.00    +0.000 A 
ATOM      4  C   UNL     1      44.257   4.059   8.928  0.00  0.00    +0.000 A 
ATOM      5  F   UNL     1      43.912   4.125   7.632  0.00  0.00    +0.000 F 
ATOM      6  C   UNL     1      45.310   3.227   9.344  0.00  0.00    +0.000 A 
ATOM      7  C   UNL     1      45.584   3.203  10.727  0.00  0.00    +0.000 A 
ENDROOT
BRANCH   6   8
ATOM      8  C   UNL     1      46.122   2.441   8.388  0.00  0.00    +0.000 A 
ATOM      9  C   UNL     1      46.127   1.049   8.389  0.00  0.00    +0.000 A 
ATOM     10  N   UNL     1      46.823   0.296   7.511  0.00  0.00    +0.000 NA
ATOM     11  N   UNL     1      47.559   0.910   6.547  0.00  0.00    +0.000 NA
ATOM     12  C   UNL     1      47.605   2.253   6.491  0.00  0.00    +0.000 A 
ATOM     13  N   UNL     1      48.320   2.849   5.448  0.00  0.00    +0.000 N 
ATOM     14  C   UNL     1      46.902   3.038   7.391  0.00  0.00    +0.000 A 
ATOM     15  H   UNL     1      48.803   2.110   4.941  0.00  0.00    +0.000 HD
ATOM     16  H   UNL     1      48.955   3.566   5.779  0.00  0.00    +0.000 HD
ENDBRANCH   6   8
BRANCH   1  17
ATOM     17  C   UNL     1      45.228   3.964  13.112  0.00  0.00    +0.000 C 
BRANCH  17  18
ATOM     18  O   UNL     1      45.285   5.307  13.590  0.00  0.00    +0.000 OA
BRANCH  18  22
ATOM     19  C   UNL     1      48.274   7.845  12.167  0.00  0.00    +0.000 A 
ATOM     20  C   UNL     1      48.651   6.613  12.713  0.00  0.00    +0.000 A 
ATOM     21  C   UNL     1      47.680   5.732  13.203  0.00  0.00    +0.000 A 
ATOM     22  C   UNL     1      46.328   6.076  13.150  0.00  0.00    +0.000 A 
ATOM     23  C   UNL     1      45.955   7.310  12.612  0.00  0.00    +0.000 A 
ATOM     24  C   UNL     1      46.921   8.196  12.128  0.00  0.00    +0.000 A 
BRANCH  19  26
ATOM     25  N   UNL     1      48.820  10.047  11.287  0.00  0.00    +0.000 N 
ATOM     26  C   UNL     1      49.276   8.810  11.650  0.00  0.00    +0.000 C 
ATOM     27  O   UNL     1      50.465   8.529  11.582  0.00  0.00    +0.000 OA
ATOM     28  H   UNL     1      49.528  10.727  11.040  0.00  0.00    +0.000 HD
ATOM     29  H   UNL     1      47.918  10.395  11.577  0.00  0.00    +0.000 HD
ENDBRANCH  19  26
ENDBRANCH  18  22
ENDBRANCH  17  18
ENDBRANCH   1  17
TORSDOF 5
ENDMDL
MODEL 7
REMARK VINA RESULT:    -7.055      3.506      7.100
REMARK INTER + INTRA:         -10.037
REMARK INTER:                  -9.413
REMARK INTRA:                  -0.624
REMARK UNBOUND:                -0.919
REMARK  Name = 
REMARK  5 active torsions:
REMARK  status: ('A' for Active; 'I' for Inactive)
REMARK    1  A    between atoms: C_2  and  C_4
REMARK    2  A    between atoms: C_7  and  O_8
REMARK    3  A    between atoms: O_8  and  C_9
REMARK    4  A    between atoms: C_9  and  C_10
REMARK    5  A    between atoms: C_15  and  C_16
REMARK                            x       y       z     vdW  Elec       q    Type
REMARK                         _______ _______ _______ _____ _____    ______ ____
ROOT
ATOM      1  C   UNL     1      44.535   5.889  11.400  0.00  0.00    +0.000 A 
ATOM      2  C   UNL     1      43.562   5.204  12.134  0.00  0.00    +0.000 A 
ATOM      3  C   UNL     1      43.257   3.883  11.821  0.00  0.00    +0.000 A 
ATOM      4  C   UNL     1      43.917   3.247  10.771  0.00  0.00    +0.000 A 
ATOM      5  F   UNL     1      43.586   1.970  10.523  0.00  0.00    +0.000 F 
ATOM      6  C   UNL     1      44.890   3.896   9.993  0.00  0.00    +0.000 A 
ATOM      7  C   UNL     1      45.191   5.228  10.344  0.00  0.00    +0.000 A 
ENDROOT
BRANCH   6   8
ATOM      8  C   UNL     1      45.547   3.240   8.840  0.00  0.00    +0.000 A 
ATOM      9  C   UNL     1      45.994   3.958   7.735  0.00  0.00    +0.000 A 
ATOM     10  N   UNL     1      46.631   3.403   6.681  0.00  0.00    +0.000 NA
ATOM     11  N   UNL     1      46.875   2.066   6.682  0.00  0.00    +0.000 NA
ATOM     12  C   UNL     1      46.463   1.309   7.715  0.00  0.00    +0.000 A 
ATOM     13  N   UNL     1      46.788  -0.051   7.711  0.00  0.00    +0.000 N 
ATOM     14  C   UNL     1      45.802   1.864   8.799  0.00  0.00    +0.000 A 
ATOM     15  H   UNL     1      47.215  -0.266   6.813  0.00  0.00    +0.000 HD
ATOM     16  H   UNL     1      45.984  -0.637   7.903  0.00  0.00    +0.000 HD
ENDBRANCH   6   8
BRANCH   1  17
ATOM     17  C   UNL     1      44.859   7.333  11.705  0.00  0.00    +0.000 C 
BRANCH  17  18
ATOM     18  O   UNL     1      45.614   7.385  12.915  0.00  0.00    +0.000 OA
BRANCH  18  22
ATOM     19  C   UNL     1      49.661   8.240  12.376  0.00  0.00    +0.000 A 
ATOM     20  C   UNL     1      49.313   7.143  13.171  0.00  0.00    +0.000 A 
ATOM     21  C   UNL     1      47.966   6.821  13.378  0.00  0.00    +0.000 A 
ATOM     22  C   UNL     1      46.961   7.593  12.793  0.00  0.00    +0.000 A 
ATOM     23  C   UNL     1      47.312   8.694  12.007  0.00  0.00    +0.000 A 
ATOM     24  C   UNL     1      48.654   9.023  11.802  0.00  0.00    +0.000 A 
BRANCH  19  26
ATOM     25  N   UNL     1      52.023   7.991  12.905  0.00  0.00    +0.000 N 
ATOM     26  C   UNL     1      51.077   8.620  12.144  0.00  0.00    +0.000 C 
ATOM     27  O   UNL     1      51.393   9.433  11.286  0.00  0.00    +0.000 OA
ATOM     28  H   UNL     1      52.987   8.180  12.661  0.00  0.00    +0.000 HD
ATOM     29  H   UNL     1      51.828   7.142  13.415  0.00  0.00    +0.000 HD
ENDBRANCH  19  26
ENDBRANCH  18  22
ENDBRANCH  17  18
ENDBRANCH   1  17
TORSDOF 5
ENDMDL
MODEL 8
REMARK VINA RESULT:    -6.999      5.984      8.307
REMARK INTER + INTRA:          -9.964
REMARK INTER:                  -9.166
REMARK INTRA:                  -0.798
REMARK UNBOUND:                -0.919
REMARK  Name = 
REMARK  5 active torsions:
REMARK  status: ('A' for Active; 'I' for Inactive)
REMARK    1  A    between atoms: C_2  and  C_4
REMARK    2  A    between atoms: C_7  and  O_8
REMARK    3  A    between atoms: O_8  and  C_9
REMARK    4  A    between atoms: C_9  and  C_10
REMARK    5  A    between atoms: C_15  and  C_16
REMARK                            x       y       z     vdW  Elec       q    Type
REMARK                         _______ _______ _______ _____ _____    ______ ____
ROOT
ATOM      1  C   UNL     1      47.632   5.005  15.537  0.00  0.00    +0.000 A 
ATOM      2  C   UNL     1      48.439   6.040  15.054  0.00  0.00    +0.000 A 
ATOM      3  C   UNL     1      48.158   6.622  13.822  0.00  0.00    +0.000 A 
ATOM      4  C   UNL     1      47.078   6.168  13.067  0.00  0.00    +0.000 A 
ATOM      5  F   UNL     1      46.851   6.775  11.892  0.00  0.00    +0.000 F 
ATOM      6  C   UNL     1      46.247   5.121  13.501  0.00  0.00    +0.000 A 
ATOM      7  C   UNL     1      46.545   4.562  14.761  0.00  0.00    +0.000 A 
ENDROOT
BRANCH   6   8
ATOM      8  C   UNL     1      45.137   4.597  12.673  0.00  0.00    +0.000 A 
ATOM      9  C   UNL     1      43.857   5.143  12.718  0.00  0.00    +0.000 A 
ATOM     10  N   UNL     1      42.829   4.720  11.953  0.00  0.00    +0.000 NA
ATOM     11  N   UNL     1      43.033   3.711  11.065  0.00  0.00    +0.000 NA
ATOM     12  C   UNL     1      44.244   3.132  10.974  0.00  0.00    +0.000 A 
ATOM     13  N   UNL     1      44.434   2.142  10.005  0.00  0.00    +0.000 N 
ATOM     14  C   UNL     1      45.306   3.551  11.759  0.00  0.00    +0.000 A 
ATOM     15  H   UNL     1      43.529   1.943   9.583  0.00  0.00    +0.000 HD
ATOM     16  H   UNL     1      44.869   1.310  10.388  0.00  0.00    +0.000 HD
ENDBRANCH   6   8
BRANCH   1  17
ATOM     17  C   UNL     1      47.939   4.340  16.858  0.00  0.00    +0.000 C 
BRANCH  17  18
ATOM     18  O   UNL     1      49.267   4.689  17.248  0.00  0.00    +0.000 OA
BRANCH  18  22
ATOM     19  C   UNL     1      52.189   1.752  17.725  0.00  0.00    +0.000 A 
ATOM     20  C   UNL     1      50.921   1.362  17.284  0.00  0.00    +0.000 A 
ATOM     21  C   UNL     1      49.911   2.316  17.110  0.00  0.00    +0.000 A 
ATOM     22  C   UNL     1      50.162   3.662  17.377  0.00  0.00    +0.000 A 
ATOM     23  C   UNL     1      51.428   4.047  17.827  0.00  0.00    +0.000 A 
ATOM     24  C   UNL     1      52.438   3.098  18.008  0.00  0.00    +0.000 A 
BRANCH  19  26
ATOM     25  N   UNL     1      53.493  -0.147  16.938  0.00  0.00    +0.000 N 
ATOM     26  C   UNL     1      53.281   0.767  17.932  0.00  0.00    +0.000 C 
ATOM     27  O   UNL     1      53.987   0.791  18.932  0.00  0.00    +0.000 OA
ATOM     28  H   UNL     1      54.307  -0.739  17.045  0.00  0.00    +0.000 HD
ATOM     29  H   UNL     1      53.122  -0.027  16.008  0.00  0.00    +0.000 HD
ENDBRANCH  19  26
ENDBRANCH  18  22
ENDBRANCH  17  18
ENDBRANCH   1  17
TORSDOF 5
ENDMDL
MODEL 9
REMARK VINA RESULT:    -6.957      4.936      8.359
REMARK INTER + INTRA:          -9.909
REMARK INTER:                  -9.019
REMARK INTRA:                  -0.891
REMARK UNBOUND:                -0.919
REMARK  Name = 
REMARK  5 active torsions:
REMARK  status: ('A' for Active; 'I' for Inactive)
REMARK    1  A    between atoms: C_2  and  C_4
REMARK    2  A    between atoms: C_7  and  O_8
REMARK    3  A    between atoms: O_8  and  C_9
REMARK    4  A    between atoms: C_9  and  C_10
REMARK    5  A    between atoms: C_15  and  C_16
REMARK                            x       y       z     vdW  Elec       q    Type
REMARK                         _______ _______ _______ _____ _____    ______ ____
ROOT
ATOM      1  C   UNL     1      47.208   7.361  13.361  0.00  0.00    +0.000 A 
ATOM      2  C   UNL     1      46.589   8.599  13.163  0.00  0.00    +0.000 A 
ATOM      3  C   UNL     1      45.414   8.679  12.422  0.00  0.00    +0.000 A 
ATOM      4  C   UNL     1      44.861   7.525  11.870  0.00  0.00    +0.000 A 
ATOM      5  F   UNL     1      43.722   7.663  11.172  0.00  0.00    +0.000 F 
ATOM      6  C   UNL     1      45.452   6.259  12.026  0.00  0.00    +0.000 A 
ATOM      7  C   UNL     1      46.631   6.207  12.797  0.00  0.00    +0.000 A 
ENDROOT
BRANCH   6   8
ATOM      8  C   UNL     1      44.898   5.044  11.390  0.00  0.00    +0.000 A 
ATOM      9  C   UNL     1      44.209   4.075  12.115  0.00  0.00    +0.000 A 
ATOM     10  N   UNL     1      43.656   2.973  11.567  0.00  0.00    +0.000 NA
ATOM     11  N   UNL     1      43.750   2.780  10.224  0.00  0.00    +0.000 NA
ATOM     12  C   UNL     1      44.409   3.673   9.463  0.00  0.00    +0.000 A 
ATOM     13  N   UNL     1      44.430   3.474   8.079  0.00  0.00    +0.000 N 
ATOM     14  C   UNL     1      44.988   4.804  10.014  0.00  0.00    +0.000 A 
ATOM     15  H   UNL     1      44.006   2.569   7.888  0.00  0.00    +0.000 HD
ATOM     16  H   UNL     1      45.365   3.548   7.696  0.00  0.00    +0.000 HD
ENDBRANCH   6   8
BRANCH   1  17
ATOM     17  C   UNL     1      48.499   7.259  14.138  0.00  0.00    +0.000 C 
BRANCH  17  18
ATOM     18  O   UNL     1      48.666   5.909  14.570  0.00  0.00    +0.000 OA
BRANCH  18  22
ATOM     19  C   UNL     1      48.142   5.331  18.667  0.00  0.00    +0.000 A 
ATOM     20  C   UNL     1      47.448   4.498  17.784  0.00  0.00    +0.000 A 
ATOM     21  C   UNL     1      47.595   4.658  16.401  0.00  0.00    +0.000 A 
ATOM     22  C   UNL     1      48.435   5.650  15.893  0.00  0.00    +0.000 A 
ATOM     23  C   UNL     1      49.119   6.487  16.778  0.00  0.00    +0.000 A 
ATOM     24  C   UNL     1      48.971   6.336  18.160  0.00  0.00    +0.000 A 
BRANCH  19  26
ATOM     25  N   UNL     1      48.536   4.083  20.719  0.00  0.00    +0.000 N 
ATOM     26  C   UNL     1      48.001   5.200  20.139  0.00  0.00    +0.000 C 
ATOM     27  O   UNL     1      47.462   6.067  20.814  0.00  0.00    +0.000 OA
ATOM     28  H   UNL     1      48.528   4.060  21.731  0.00  0.00    +0.000 HD
ATOM     29  H   UNL     1      49.207   3.498  20.244  0.00  0.00    +0.000 HD
ENDBRANCH  19  26
ENDBRANCH  18  22
ENDBRANCH  17  18
ENDBRANCH   1  17
TORSDOF 5
ENDMDL
