MODEL 1
REMARK VINA RESULT:    -8.522      0.000      0.000
REMARK INTER + INTRA:         -13.456
REMARK INTER:                 -12.258
REMARK INTRA:                  -1.197
REMARK UNBOUND:                -1.197
REMARK  Name = 
REMARK  8 active torsions:
REMARK  status: ('A' for Active; 'I' for Inactive)
REMARK    1  A    between atoms: C_2  and  O_3
REMARK    2  A    between atoms: C_2  and  C_4
REMARK    3  A    between atoms: C_7  and  N_8
REMARK    4  A    between atoms: N_8  and  C_9
REMARK    5  A    between atoms: C_9  and  C_10
REMARK    6  A    between atoms: C_10  and  C_13
REMARK    7  A    between atoms: C_17  and  C_18
REMARK    8  A    between atoms: C_18  and  C_19
REMARK                            x       y       z     vdW  Elec       q    Type
REMARK                         _______ _______ _______ _____ _____    ______ ____
ROOT
ATOM      1  C   UNL     1      43.354   4.407  10.981  0.00  0.00    +0.000 C 
ENDROOT
BRANCH   1   2
ATOM      2  C   UNL     1      43.712   4.773  12.446  0.00  0.00    +0.000 C 
ATOM      3  F   UNL     1      42.804   5.701  12.881  0.00  0.00    +0.000 F 
ATOM      4  F   UNL     1      43.483   3.665  13.216  0.00  0.00    +0.000 F 
BRANCH   2   5
ATOM      5  C   UNL     1      45.139   5.269  12.564  0.00  0.00    +0.000 A 
ATOM      6  C   UNL     1      45.685   6.133  11.605  0.00  0.00    +0.000 A 
ATOM      7  C   UNL     1      46.961   6.668  11.790  0.00  0.00    +0.000 A 
ATOM      8  C   UNL     1      47.698   6.356  12.936  0.00  0.00    +0.000 A 
ATOM      9  C   UNL     1      47.171   5.498  13.906  0.00  0.00    +0.000 A 
ATOM     10  C   UNL     1      45.905   4.936  13.692  0.00  0.00    +0.000 A 
BRANCH   9  11
ATOM     11  C   UNL     1      47.899   5.225  15.198  0.00  0.00    +0.000 C 
BRANCH  11  12
ATOM     12  C   UNL     1      47.205   4.160  16.028  0.00  0.00    +0.000 C 
ATOM     13  C   UNL     1      47.165   4.304  17.556  0.00  0.00    +0.000 C 
ATOM     14  O   UNL     1      47.868   3.053  17.739  0.00  0.00    +0.000 OA
ATOM     15  C   UNL     1      48.086   2.935  16.316  0.00  0.00    +0.000 C 
ENDBRANCH  11  12
ENDBRANCH   9  11
ENDBRANCH   2   5
ENDBRANCH   1   2
BRANCH   1  16
ATOM     16  N   UNL     1      43.843   3.078  10.561  0.00  0.00    +0.000 N 
ATOM     17  H   UNL     1      44.105   2.475  11.341  0.00  0.00    +0.000 HD
BRANCH  16  21
ATOM     18  C   UNL     1      46.497   2.763   7.297  0.00  0.00    +0.000 A 
ATOM     19  C   UNL     1      45.944   3.993   7.661  0.00  0.00    +0.000 A 
ATOM     20  C   UNL     1      45.046   4.066   8.734  0.00  0.00    +0.000 A 
ATOM     21  C   UNL     1      44.660   2.919   9.446  0.00  0.00    +0.000 A 
ATOM     22  C   UNL     1      45.234   1.704   9.078  0.00  0.00    +0.000 A 
ATOM     23  C   UNL     1      46.127   1.630   8.010  0.00  0.00    +0.000 A 
ATOM     24  F   UNL     1      46.649   0.432   7.699  0.00  0.00    +0.000 F 
BRANCH  18  26
ATOM     25  O   UNL     1      47.107   2.887   5.014  0.00  0.00    +0.000 OA
ATOM     26  C   UNL     1      47.456   2.711   6.171  0.00  0.00    +0.000 C 
BRANCH  26  27
ATOM     27  O   UNL     1      48.747   2.517   6.519  0.00  0.00    +0.000 OA
ATOM     28  H   UNL     1      49.257   1.930   5.926  0.00  0.00    +0.000 HD
ENDBRANCH  26  27
ENDBRANCH  18  26
ENDBRANCH  16  21
ENDBRANCH   1  16
TORSDOF 8
ENDMDL
MODEL 2
REMARK VINA RESULT:    -7.934      2.773      3.502
REMARK INTER + INTRA:         -12.610
REMARK INTER:                 -11.649
REMARK INTRA:                  -0.961
REMARK UNBOUND:                -1.197
REMARK  Name = 
REMARK  8 active torsions:
REMARK  status: ('A' for Active; 'I' for Inactive)
REMARK    1  A    between atoms: C_2  and  O_3
REMARK    2  A    between atoms: C_2  and  C_4
REMARK    3  A    between atoms: C_7  and  N_8
REMARK    4  A    between atoms: N_8  and  C_9
REMARK    5  A    between atoms: C_9  and  C_10
REMARK    6  A    between atoms: C_10  and  C_13
REMARK    7  A    between atoms: C_17  and  C_18
REMARK    8  A    between atoms: C_18  and  C_19
REMARK                            x       y       z     vdW  Elec       q    Type
REMARK                         _______ _______ _______ _____ _____    ______ ____
ROOT
ATOM      1  C   UNL     1      43.690   5.122  10.980  0.00  0.00    +0.000 C 
ENDROOT
BRANCH   1   2
ATOM      2  C   UNL     1      44.462   5.392  12.299  0.00  0.00    +0.000 C 
ATOM      3  F   UNL     1      43.539   5.614  13.286  0.00  0.00    +0.000 F 
ATOM      4  F   UNL     1      45.088   4.228  12.656  0.00  0.00    +0.000 F 
BRANCH   2   5
ATOM      5  C   UNL     1      45.433   6.545  12.151  0.00  0.00    +0.000 A 
ATOM      6  C   UNL     1      44.984   7.872  12.156  0.00  0.00    +0.000 A 
ATOM      7  C   UNL     1      45.903   8.922  12.132  0.00  0.00    +0.000 A 
ATOM      8  C   UNL     1      47.276   8.659  12.115  0.00  0.00    +0.000 A 
ATOM      9  C   UNL     1      47.745   7.342  12.113  0.00  0.00    +0.000 A 
ATOM     10  C   UNL     1      46.813   6.295  12.098  0.00  0.00    +0.000 A 
BRANCH   9  11
ATOM     11  C   UNL     1      49.217   7.029  12.197  0.00  0.00    +0.000 C 
BRANCH  11  12
ATOM     12  C   UNL     1      50.069   8.141  11.611  0.00  0.00    +0.000 C 
ATOM     13  C   UNL     1      51.400   7.791  10.930  0.00  0.00    +0.000 C 
ATOM     14  O   UNL     1      52.145   8.607  11.863  0.00  0.00    +0.000 OA
ATOM     15  C   UNL     1      50.956   8.846  12.648  0.00  0.00    +0.000 C 
ENDBRANCH  11  12
ENDBRANCH   9  11
ENDBRANCH   2   5
ENDBRANCH   1   2
BRANCH   1  16
ATOM     16  N   UNL     1      43.770   3.721  10.518  0.00  0.00    +0.000 N 
ATOM     17  H   UNL     1      43.720   3.039  11.274  0.00  0.00    +0.000 HD
BRANCH  16  21
ATOM     18  C   UNL     1      46.553   2.707   7.515  0.00  0.00    +0.000 A 
ATOM     19  C   UNL     1      46.190   4.037   7.743  0.00  0.00    +0.000 A 
ATOM     20  C   UNL     1      45.246   4.344   8.730  0.00  0.00    +0.000 A 
ATOM     21  C   UNL     1      44.623   3.339   9.488  0.00  0.00    +0.000 A 
ATOM     22  C   UNL     1      45.010   2.020   9.257  0.00  0.00    +0.000 A 
ATOM     23  C   UNL     1      45.950   1.713   8.275  0.00  0.00    +0.000 A 
ATOM     24  F   UNL     1      46.284   0.424   8.094  0.00  0.00    +0.000 F 
BRANCH  18  26
ATOM     25  O   UNL     1      48.395   1.520   6.621  0.00  0.00    +0.000 OA
ATOM     26  C   UNL     1      47.566   2.405   6.479  0.00  0.00    +0.000 C 
BRANCH  26  27
ATOM     27  O   UNL     1      47.468   3.133   5.345  0.00  0.00    +0.000 OA
ATOM     28  H   UNL     1      46.619   3.051   4.866  0.00  0.00    +0.000 HD
ENDBRANCH  26  27
ENDBRANCH  18  26
ENDBRANCH  16  21
ENDBRANCH   1  16
TORSDOF 8
ENDMDL
MODEL 3
REMARK VINA RESULT:    -7.823      2.207      3.267
REMARK INTER + INTRA:         -12.451
REMARK INTER:                 -11.506
REMARK INTRA:                  -0.945
REMARK UNBOUND:                -1.197
REMARK  Name = 
REMARK  8 active torsions:
REMARK  status: ('A' for Active; 'I' for Inactive)
REMARK    1  A    between atoms: C_2  and  O_3
REMARK    2  A    between atoms: C_2  and  C_4
REMARK    3  A    between atoms: C_7  and  N_8
REMARK    4  A    between atoms: N_8  and  C_9
REMARK    5  A    between atoms: C_9  and  C_10
REMARK    6  A    between atoms: C_10  and  C_13
REMARK    7  A    between atoms: C_17  and  C_18
REMARK    8  A    between atoms: C_18  and  C_19
REMARK                            x       y       z     vdW  Elec       q    Type
REMARK                         _______ _______ _______ _____ _____    ______ ____
ROOT
ATOM      1  C   UNL     1      43.737   5.188  10.909  0.00  0.00    +0.000 C 
ENDROOT
BRANCH   1   2
ATOM      2  C   UNL     1      43.930   4.816  12.403  0.00  0.00    +0.000 C 
ATOM      3  F   UNL     1      42.925   5.412  13.117  0.00  0.00    +0.000 F 
ATOM      4  F   UNL     1      43.703   3.472  12.526  0.00  0.00    +0.000 F 
BRANCH   2   5
ATOM      5  C   UNL     1      45.303   5.215  12.904  0.00  0.00    +0.000 A 
ATOM      6  C   UNL     1      45.883   4.576  14.008  0.00  0.00    +0.000 A 
ATOM      7  C   UNL     1      47.192   4.878  14.385  0.00  0.00    +0.000 A 
ATOM      8  C   UNL     1      47.939   5.809  13.657  0.00  0.00    +0.000 A 
ATOM      9  C   UNL     1      47.380   6.457  12.551  0.00  0.00    +0.000 A 
ATOM     10  C   UNL     1      46.052   6.174  12.205  0.00  0.00    +0.000 A 
BRANCH   9  11
ATOM     11  C   UNL     1      48.194   7.388  11.688  0.00  0.00    +0.000 C 
BRANCH  11  12
ATOM     12  C   UNL     1      49.560   7.669  12.288  0.00  0.00    +0.000 C 
ATOM     13  C   UNL     1      49.826   9.028  12.953  0.00  0.00    +0.000 C 
ATOM     14  O   UNL     1      50.899   9.323  12.030  0.00  0.00    +0.000 OA
ATOM     15  C   UNL     1      50.598   8.140  11.258  0.00  0.00    +0.000 C 
ENDBRANCH  11  12
ENDBRANCH   9  11
ENDBRANCH   2   5
ENDBRANCH   1   2
BRANCH   1  16
ATOM     16  N   UNL     1      43.476   4.027  10.034  0.00  0.00    +0.000 N 
ATOM     17  H   UNL     1      42.903   3.306  10.473  0.00  0.00    +0.000 HD
BRANCH  16  21
ATOM     18  C   UNL     1      46.631   2.602   7.623  0.00  0.00    +0.000 A 
ATOM     19  C   UNL     1      46.354   3.969   7.716  0.00  0.00    +0.000 A 
ATOM     20  C   UNL     1      45.285   4.413   8.505  0.00  0.00    +0.000 A 
ATOM     21  C   UNL     1      44.456   3.512   9.192  0.00  0.00    +0.000 A 
ATOM     22  C   UNL     1      44.757   2.154   9.099  0.00  0.00    +0.000 A 
ATOM     23  C   UNL     1      45.821   1.710   8.314  0.00  0.00    +0.000 A 
ATOM     24  F   UNL     1      46.065   0.391   8.261  0.00  0.00    +0.000 F 
BRANCH  18  26
ATOM     25  O   UNL     1      47.841   1.025   6.340  0.00  0.00    +0.000 OA
ATOM     26  C   UNL     1      47.776   2.155   6.798  0.00  0.00    +0.000 C 
BRANCH  26  27
ATOM     27  O   UNL     1      48.705   3.100   6.538  0.00  0.00    +0.000 OA
ATOM     28  H   UNL     1      48.352   3.971   6.266  0.00  0.00    +0.000 HD
ENDBRANCH  26  27
ENDBRANCH  18  26
ENDBRANCH  16  21
ENDBRANCH   1  16
TORSDOF 8
ENDMDL
MODEL 4
REMARK VINA RESULT:    -7.216      2.391      7.905
REMARK INTER + INTRA:         -11.577
REMARK INTER:                 -10.863
REMARK INTRA:                  -0.714
REMARK UNBOUND:                -1.197
REMARK  Name = 
REMARK  8 active torsions:
REMARK  status: ('A' for Active; 'I' for Inactive)
REMARK    1  A    between atoms: C_2  and  O_3
REMARK    2  A    between atoms: C_2  and  C_4
REMARK    3  A    between atoms: C_7  and  N_8
REMARK    4  A    between atoms: N_8  and  C_9
REMARK    5  A    between atoms: C_9  and  C_10
REMARK    6  A    between atoms: C_10  and  C_13
REMARK    7  A    between atoms: C_17  and  C_18
REMARK    8  A    between atoms: C_18  and  C_19
REMARK                            x       y       z     vdW  Elec       q    Type
REMARK                         _______ _______ _______ _____ _____    ______ ____
ROOT
ATOM      1  C   UNL     1      47.125   6.604  11.872  0.00  0.00    +0.000 C 
ENDROOT
BRANCH   1   2
ATOM      2  C   UNL     1      45.588   6.588  11.658  0.00  0.00    +0.000 C 
ATOM      3  F   UNL     1      44.994   6.882  12.856  0.00  0.00    +0.000 F 
ATOM      4  F   UNL     1      45.275   7.640  10.839  0.00  0.00    +0.000 F 
BRANCH   2   5
ATOM      5  C   UNL     1      45.117   5.263  11.095  0.00  0.00    +0.000 A 
ATOM      6  C   UNL     1      44.280   4.419  11.838  0.00  0.00    +0.000 A 
ATOM      7  C   UNL     1      43.766   3.257  11.260  0.00  0.00    +0.000 A 
ATOM      8  C   UNL     1      44.071   2.933   9.935  0.00  0.00    +0.000 A 
ATOM      9  C   UNL     1      44.902   3.762   9.176  0.00  0.00    +0.000 A 
ATOM     10  C   UNL     1      45.444   4.906   9.777  0.00  0.00    +0.000 A 
BRANCH   9  11
ATOM     11  C   UNL     1      45.166   3.491   7.716  0.00  0.00    +0.000 C 
BRANCH  11  12
ATOM     12  C   UNL     1      46.562   2.942   7.484  0.00  0.00    +0.000 C 
ATOM     13  C   UNL     1      46.992   2.553   6.062  0.00  0.00    +0.000 C 
ATOM     14  O   UNL     1      47.232   1.184   6.459  0.00  0.00    +0.000 OA
ATOM     15  C   UNL     1      46.686   1.438   7.772  0.00  0.00    +0.000 C 
ENDBRANCH  11  12
ENDBRANCH   9  11
ENDBRANCH   2   5
ENDBRANCH   1   2
BRANCH   1  16
ATOM     16  N   UNL     1      47.535   7.039  13.222  0.00  0.00    +0.000 N 
ATOM     17  H   UNL     1      48.307   7.705  13.219  0.00  0.00    +0.000 HD
BRANCH  16  21
ATOM     18  C   UNL     1      47.794   4.176  16.309  0.00  0.00    +0.000 A 
ATOM     19  C   UNL     1      47.089   3.907  15.133  0.00  0.00    +0.000 A 
ATOM     20  C   UNL     1      46.999   4.885  14.134  0.00  0.00    +0.000 A 
ATOM     21  C   UNL     1      47.579   6.153  14.293  0.00  0.00    +0.000 A 
ATOM     22  C   UNL     1      48.291   6.398  15.467  0.00  0.00    +0.000 A 
ATOM     23  C   UNL     1      48.382   5.425  16.462  0.00  0.00    +0.000 A 
ATOM     24  F   UNL     1      49.079   5.715  17.573  0.00  0.00    +0.000 F 
BRANCH  18  26
ATOM     25  O   UNL     1      48.968   2.738  17.776  0.00  0.00    +0.000 OA
ATOM     26  C   UNL     1      47.892   3.124  17.345  0.00  0.00    +0.000 C 
BRANCH  26  27
ATOM     27  O   UNL     1      46.713   2.669  17.821  0.00  0.00    +0.000 OA
ATOM     28  H   UNL     1      46.230   3.288  18.405  0.00  0.00    +0.000 HD
ENDBRANCH  26  27
ENDBRANCH  18  26
ENDBRANCH  16  21
ENDBRANCH   1  16
TORSDOF 8
ENDMDL
MODEL 5
REMARK VINA RESULT:    -7.171      3.340      7.294
REMARK INTER + INTRA:         -11.513
REMARK INTER:                 -10.700
REMARK INTRA:                  -0.813
REMARK UNBOUND:                -1.197
REMARK  Name = 
REMARK  8 active torsions:
REMARK  status: ('A' for Active; 'I' for Inactive)
REMARK    1  A    between atoms: C_2  and  O_3
REMARK    2  A    between atoms: C_2  and  C_4
REMARK    3  A    between atoms: C_7  and  N_8
REMARK    4  A    between atoms: N_8  and  C_9
REMARK    5  A    between atoms: C_9  and  C_10
REMARK    6  A    between atoms: C_10  and  C_13
REMARK    7  A    between atoms: C_17  and  C_18
REMARK    8  A    between atoms: C_18  and  C_19
REMARK                            x       y       z     vdW  Elec       q    Type
REMARK                         _______ _______ _______ _____ _____    ______ ____
ROOT
ATOM      1  C   UNL     1      45.176   6.074  12.792  0.00  0.00    +0.000 C 
ENDROOT
BRANCH   1   2
ATOM      2  C   UNL     1      44.374   6.082  11.464  0.00  0.00    +0.000 C 
ATOM      3  F   UNL     1      43.048   6.229  11.775  0.00  0.00    +0.000 F 
ATOM      4  F   UNL     1      44.707   7.224  10.787  0.00  0.00    +0.000 F 
BRANCH   2   5
ATOM      5  C   UNL     1      44.636   4.834  10.646  0.00  0.00    +0.000 A 
ATOM      6  C   UNL     1      43.991   3.626  10.946  0.00  0.00    +0.000 A 
ATOM      7  C   UNL     1      44.159   2.517  10.115  0.00  0.00    +0.000 A 
ATOM      8  C   UNL     1      44.960   2.606   8.973  0.00  0.00    +0.000 A 
ATOM      9  C   UNL     1      45.610   3.803   8.654  0.00  0.00    +0.000 A 
ATOM     10  C   UNL     1      45.466   4.898   9.517  0.00  0.00    +0.000 A 
BRANCH   9  11
ATOM     11  C   UNL     1      46.397   3.957   7.377  0.00  0.00    +0.000 C 
BRANCH  11  12
ATOM     12  C   UNL     1      46.600   2.629   6.671  0.00  0.00    +0.000 C 
ATOM     13  C   UNL     1      47.826   1.772   7.017  0.00  0.00    +0.000 C 
ATOM     14  O   UNL     1      48.303   1.821   5.653  0.00  0.00    +0.000 OA
ATOM     15  C   UNL     1      47.268   2.761   5.294  0.00  0.00    +0.000 C 
ENDBRANCH  11  12
ENDBRANCH   9  11
ENDBRANCH   2   5
ENDBRANCH   1   2
BRANCH   1  16
ATOM     16  N   UNL     1      45.799   7.373  13.121  0.00  0.00    +0.000 N 
ATOM     17  H   UNL     1      45.158   8.162  13.047  0.00  0.00    +0.000 HD
BRANCH  16  21
ATOM     18  C   UNL     1      49.727   8.092  11.760  0.00  0.00    +0.000 A 
ATOM     19  C   UNL     1      49.395   6.900  12.410  0.00  0.00    +0.000 A 
ATOM     20  C   UNL     1      48.089   6.697  12.873  0.00  0.00    +0.000 A 
ATOM     21  C   UNL     1      47.097   7.680  12.727  0.00  0.00    +0.000 A 
ATOM     22  C   UNL     1      47.443   8.856  12.063  0.00  0.00    +0.000 A 
ATOM     23  C   UNL     1      48.742   9.060  11.601  0.00  0.00    +0.000 A 
ATOM     24  F   UNL     1      49.021  10.212  10.969  0.00  0.00    +0.000 F 
BRANCH  18  26
ATOM     25  O   UNL     1      51.677   9.359  11.325  0.00  0.00    +0.000 OA
ATOM     26  C   UNL     1      51.108   8.280  11.263  0.00  0.00    +0.000 C 
BRANCH  26  27
ATOM     27  O   UNL     1      51.712   7.165  10.798  0.00  0.00    +0.000 OA
ATOM     28  H   UNL     1      52.231   6.663  11.458  0.00  0.00    +0.000 HD
ENDBRANCH  26  27
ENDBRANCH  18  26
ENDBRANCH  16  21
ENDBRANCH   1  16
TORSDOF 8
ENDMDL
MODEL 6
REMARK VINA RESULT:    -6.554      3.409      4.950
REMARK INTER + INTRA:         -10.625
REMARK INTER:                  -9.311
REMARK INTRA:                  -1.314
REMARK UNBOUND:                -1.197
REMARK  Name = 
REMARK  8 active torsions:
REMARK  status: ('A' for Active; 'I' for Inactive)
REMARK    1  A    between atoms: C_2  and  O_3
REMARK    2  A    between atoms: C_2  and  C_4
REMARK    3  A    between atoms: C_7  and  N_8
REMARK    4  A    between atoms: N_8  and  C_9
REMARK    5  A    between atoms: C_9  and  C_10
REMARK    6  A    between atoms: C_10  and  C_13
REMARK    7  A    between atoms: C_17  and  C_18
REMARK    8  A    between atoms: C_18  and  C_19
REMARK                            x       y       z     vdW  Elec       q    Type
REMARK                         _______ _______ _______ _____ _____    ______ ____
ROOT
ATOM      1  C   UNL     1      46.884   8.431  12.436  0.00  0.00    +0.000 C 
ENDROOT
BRANCH   1   2
ATOM      2  C   UNL     1      48.356   8.073  12.773  0.00  0.00    +0.000 C 
ATOM      3  F   UNL     1      48.641   6.870  12.185  0.00  0.00    +0.000 F 
ATOM      4  F   UNL     1      49.158   8.979  12.133  0.00  0.00    +0.000 F 
BRANCH   2   5
ATOM      5  C   UNL     1      48.596   8.052  14.269  0.00  0.00    +0.000 A 
ATOM      6  C   UNL     1      48.383   9.195  15.051  0.00  0.00    +0.000 A 
ATOM      7  C   UNL     1      48.500   9.125  16.440  0.00  0.00    +0.000 A 
ATOM      8  C   UNL     1      48.818   7.914  17.062  0.00  0.00    +0.000 A 
ATOM      9  C   UNL     1      49.032   6.761  16.300  0.00  0.00    +0.000 A 
ATOM     10  C   UNL     1      48.950   6.851  14.904  0.00  0.00    +0.000 A 
BRANCH   9  11
ATOM     11  C   UNL     1      49.276   5.422  16.949  0.00  0.00    +0.000 C 
BRANCH  11  12
ATOM     12  C   UNL     1      47.991   4.795  17.458  0.00  0.00    +0.000 C 
ATOM     13  C   UNL     1      48.040   3.416  18.130  0.00  0.00    +0.000 C 
ATOM     14  O   UNL     1      47.150   2.850  17.141  0.00  0.00    +0.000 OA
ATOM     15  C   UNL     1      47.188   4.069  16.368  0.00  0.00    +0.000 C 
ENDBRANCH  11  12
ENDBRANCH   9  11
ENDBRANCH   2   5
ENDBRANCH   1   2
BRANCH   1  16
ATOM     16  N   UNL     1      45.891   7.677  13.227  0.00  0.00    +0.000 N 
ATOM     17  H   UNL     1      46.084   7.673  14.228  0.00  0.00    +0.000 HD
BRANCH  16  21
ATOM     18  C   UNL     1      44.306   4.129  11.583  0.00  0.00    +0.000 A 
ATOM     19  C   UNL     1      43.778   5.378  11.248  0.00  0.00    +0.000 A 
ATOM     20  C   UNL     1      44.307   6.539  11.827  0.00  0.00    +0.000 A 
ATOM     21  C   UNL     1      45.348   6.481  12.768  0.00  0.00    +0.000 A 
ATOM     22  C   UNL     1      45.872   5.227  13.078  0.00  0.00    +0.000 A 
ATOM     23  C   UNL     1      45.346   4.071  12.503  0.00  0.00    +0.000 A 
ATOM     24  F   UNL     1      45.889   2.889  12.838  0.00  0.00    +0.000 F 
BRANCH  18  26
ATOM     25  O   UNL     1      44.023   2.596   9.803  0.00  0.00    +0.000 OA
ATOM     26  C   UNL     1      43.744   2.916  10.948  0.00  0.00    +0.000 C 
BRANCH  26  27
ATOM     27  O   UNL     1      42.954   2.161  11.742  0.00  0.00    +0.000 OA
ATOM     28  H   UNL     1      42.983   2.382  12.694  0.00  0.00    +0.000 HD
ENDBRANCH  26  27
ENDBRANCH  18  26
ENDBRANCH  16  21
ENDBRANCH   1  16
TORSDOF 8
ENDMDL
MODEL 7
REMARK VINA RESULT:    -6.472      2.562      8.388
REMARK INTER + INTRA:         -10.507
REMARK INTER:                  -9.855
REMARK INTRA:                  -0.652
REMARK UNBOUND:                -1.197
REMARK  Name = 
REMARK  8 active torsions:
REMARK  status: ('A' for Active; 'I' for Inactive)
REMARK    1  A    between atoms: C_2  and  O_3
REMARK    2  A    between atoms: C_2  and  C_4
REMARK    3  A    between atoms: C_7  and  N_8
REMARK    4  A    between atoms: N_8  and  C_9
REMARK    5  A    between atoms: C_9  and  C_10
REMARK    6  A    between atoms: C_10  and  C_13
REMARK    7  A    between atoms: C_17  and  C_18
REMARK    8  A    between atoms: C_18  and  C_19
REMARK                            x       y       z     vdW  Elec       q    Type
REMARK                         _______ _______ _______ _____ _____    ______ ____
ROOT
ATOM      1  C   UNL     1      47.416   6.137  13.347  0.00  0.00    +0.000 C 
ENDROOT
BRANCH   1   2
ATOM      2  C   UNL     1      46.320   6.863  12.522  0.00  0.00    +0.000 C 
ATOM      3  F   UNL     1      45.791   7.853  13.306  0.00  0.00    +0.000 F 
ATOM      4  F   UNL     1      46.945   7.520  11.496  0.00  0.00    +0.000 F 
BRANCH   2   5
ATOM      5  C   UNL     1      45.264   5.897  12.026  0.00  0.00    +0.000 A 
ATOM      6  C   UNL     1      44.120   5.626  12.788  0.00  0.00    +0.000 A 
ATOM      7  C   UNL     1      43.105   4.822  12.266  0.00  0.00    +0.000 A 
ATOM      8  C   UNL     1      43.217   4.292  10.976  0.00  0.00    +0.000 A 
ATOM      9  C   UNL     1      44.349   4.554  10.199  0.00  0.00    +0.000 A 
ATOM     10  C   UNL     1      45.379   5.330  10.748  0.00  0.00    +0.000 A 
BRANCH   9  11
ATOM     11  C   UNL     1      44.451   4.081   8.771  0.00  0.00    +0.000 C 
BRANCH  11  12
ATOM     12  C   UNL     1      45.838   3.558   8.443  0.00  0.00    +0.000 C 
ATOM     13  C   UNL     1      46.265   3.421   6.975  0.00  0.00    +0.000 C 
ATOM     14  O   UNL     1      46.480   1.999   7.121  0.00  0.00    +0.000 OA
ATOM     15  C   UNL     1      45.935   2.025   8.458  0.00  0.00    +0.000 C 
ENDBRANCH  11  12
ENDBRANCH   9  11
ENDBRANCH   2   5
ENDBRANCH   1   2
BRANCH   1  16
ATOM     16  N   UNL     1      46.880   5.216  14.370  0.00  0.00    +0.000 N 
ATOM     17  H   UNL     1      45.870   5.287  14.493  0.00  0.00    +0.000 HD
BRANCH  16  21
ATOM     18  C   UNL     1      48.837   4.682  18.069  0.00  0.00    +0.000 A 
ATOM     19  C   UNL     1      49.076   5.813  17.283  0.00  0.00    +0.000 A 
ATOM     20  C   UNL     1      48.431   5.954  16.047  0.00  0.00    +0.000 A 
ATOM     21  C   UNL     1      47.561   4.966  15.557  0.00  0.00    +0.000 A 
ATOM     22  C   UNL     1      47.324   3.853  16.362  0.00  0.00    +0.000 A 
ATOM     23  C   UNL     1      47.966   3.711  17.591  0.00  0.00    +0.000 A 
ATOM     24  F   UNL     1      47.701   2.618  18.326  0.00  0.00    +0.000 F 
BRANCH  18  26
ATOM     25  O   UNL     1      48.965   4.870  20.424  0.00  0.00    +0.000 OA
ATOM     26  C   UNL     1      49.515   4.561  19.378  0.00  0.00    +0.000 C 
BRANCH  26  27
ATOM     27  O   UNL     1      50.756   4.028  19.340  0.00  0.00    +0.000 OA
ATOM     28  H   UNL     1      50.879   3.300  18.697  0.00  0.00    +0.000 HD
ENDBRANCH  26  27
ENDBRANCH  18  26
ENDBRANCH  16  21
ENDBRANCH   1  16
TORSDOF 8
ENDMDL
MODEL 8
REMARK VINA RESULT:    -6.425      3.183      8.378
REMARK INTER + INTRA:         -10.439
REMARK INTER:                  -9.581
REMARK INTRA:                  -0.858
REMARK UNBOUND:                -1.197
REMARK  Name = 
REMARK  8 active torsions:
REMARK  status: ('A' for Active; 'I' for Inactive)
REMARK    1  A    between atoms: C_2  and  O_3
REMARK    2  A    between atoms: C_2  and  C_4
REMARK    3  A    between atoms: C_7  and  N_8
REMARK    4  A    between atoms: N_8  and  C_9
REMARK    5  A    between atoms: C_9  and  C_10
REMARK    6  A    between atoms: C_10  and  C_13
REMARK    7  A    between atoms: C_17  and  C_18
REMARK    8  A    between atoms: C_18  and  C_19
REMARK                            x       y       z     vdW  Elec       q    Type
REMARK                         _______ _______ _______ _____ _____    ______ ____
ROOT
ATOM      1  C   UNL     1      46.435   4.726  15.101  0.00  0.00    +0.000 C 
ENDROOT
BRANCH   1   2
ATOM      2  C   UNL     1      46.678   4.376  13.609  0.00  0.00    +0.000 C 
ATOM      3  F   UNL     1      47.590   5.268  13.112  0.00  0.00    +0.000 F 
ATOM      4  F   UNL     1      47.309   3.163  13.567  0.00  0.00    +0.000 F 
BRANCH   2   5
ATOM      5  C   UNL     1      45.385   4.378  12.819  0.00  0.00    +0.000 A 
ATOM      6  C   UNL     1      44.278   5.122  13.248  0.00  0.00    +0.000 A 
ATOM      7  C   UNL     1      43.136   5.201  12.449  0.00  0.00    +0.000 A 
ATOM      8  C   UNL     1      43.091   4.550  11.213  0.00  0.00    +0.000 A 
ATOM      9  C   UNL     1      44.186   3.804  10.766  0.00  0.00    +0.000 A 
ATOM     10  C   UNL     1      45.313   3.699  11.593  0.00  0.00    +0.000 A 
BRANCH   9  11
ATOM     11  C   UNL     1      44.205   3.176   9.395  0.00  0.00    +0.000 C 
BRANCH  11  12
ATOM     12  C   UNL     1      45.615   3.056   8.845  0.00  0.00    +0.000 C 
ATOM     13  C   UNL     1      45.887   3.431   7.381  0.00  0.00    +0.000 C 
ATOM     14  O   UNL     1      46.362   2.099   7.079  0.00  0.00    +0.000 OA
ATOM     15  C   UNL     1      45.979   1.634   8.392  0.00  0.00    +0.000 C 
ENDBRANCH  11  12
ENDBRANCH   9  11
ENDBRANCH   2   5
ENDBRANCH   1   2
BRANCH   1  16
ATOM     16  N   UNL     1      46.846   3.661  16.038  0.00  0.00    +0.000 N 
ATOM     17  H   UNL     1      46.137   3.435  16.735  0.00  0.00    +0.000 HD
BRANCH  16  21
ATOM     18  C   UNL     1      50.690   3.519  17.771  0.00  0.00    +0.000 A 
ATOM     19  C   UNL     1      49.997   4.727  17.650  0.00  0.00    +0.000 A 
ATOM     20  C   UNL     1      48.732   4.749  17.049  0.00  0.00    +0.000 A 
ATOM     21  C   UNL     1      48.144   3.583  16.532  0.00  0.00    +0.000 A 
ATOM     22  C   UNL     1      48.844   2.386  16.675  0.00  0.00    +0.000 A 
ATOM     23  C   UNL     1      50.103   2.363  17.273  0.00  0.00    +0.000 A 
ATOM     24  F   UNL     1      50.733   1.181  17.384  0.00  0.00    +0.000 F 
BRANCH  18  26
ATOM     25  O   UNL     1      53.033   3.196  17.826  0.00  0.00    +0.000 OA
ATOM     26  C   UNL     1      52.018   3.514  18.425  0.00  0.00    +0.000 C 
BRANCH  26  27
ATOM     27  O   UNL     1      52.033   3.946  19.705  0.00  0.00    +0.000 OA
ATOM     28  H   UNL     1      52.850   3.745  20.204  0.00  0.00    +0.000 HD
ENDBRANCH  26  27
ENDBRANCH  18  26
ENDBRANCH  16  21
ENDBRANCH   1  16
TORSDOF 8
ENDMDL
MODEL 9
REMARK VINA RESULT:    -6.194      4.502      6.480
REMARK INTER + INTRA:         -10.107
REMARK INTER:                  -8.626
REMARK INTRA:                  -1.481
REMARK UNBOUND:                -1.197
REMARK  Name = 
REMARK  8 active torsions:
REMARK  status: ('A' for Active; 'I' for Inactive)
REMARK    1  A    between atoms: C_2  and  O_3
REMARK    2  A    between atoms: C_2  and  C_4
REMARK    3  A    between atoms: C_7  and  N_8
REMARK    4  A    between atoms: N_8  and  C_9
REMARK    5  A    between atoms: C_9  and  C_10
REMARK    6  A    between atoms: C_10  and  C_13
REMARK    7  A    between atoms: C_17  and  C_18
REMARK    8  A    between atoms: C_18  and  C_19
REMARK                            x       y       z     vdW  Elec       q    Type
REMARK                         _______ _______ _______ _____ _____    ______ ____
ROOT
ATOM      1  C   UNL     1      49.383   7.385  14.666  0.00  0.00    +0.000 C 
ENDROOT
BRANCH   1   2
ATOM      2  C   UNL     1      48.968   8.374  15.789  0.00  0.00    +0.000 C 
ATOM      3  F   UNL     1      49.998   9.257  15.971  0.00  0.00    +0.000 F 
ATOM      4  F   UNL     1      47.933   9.130  15.311  0.00  0.00    +0.000 F 
BRANCH   2   5
ATOM      5  C   UNL     1      48.605   7.645  17.066  0.00  0.00    +0.000 A 
ATOM      6  C   UNL     1      47.978   8.315  18.126  0.00  0.00    +0.000 A 
ATOM      7  C   UNL     1      47.550   7.604  19.248  0.00  0.00    +0.000 A 
ATOM      8  C   UNL     1      47.731   6.220  19.319  0.00  0.00    +0.000 A 
ATOM      9  C   UNL     1      48.352   5.532  18.271  0.00  0.00    +0.000 A 
ATOM     10  C   UNL     1      48.813   6.261  17.167  0.00  0.00    +0.000 A 
BRANCH   9  11
ATOM     11  C   UNL     1      48.469   4.029  18.275  0.00  0.00    +0.000 C 
BRANCH  11  12
ATOM     12  C   UNL     1      49.181   3.512  17.038  0.00  0.00    +0.000 C 
ATOM     13  C   UNL     1      48.683   2.224  16.365  0.00  0.00    +0.000 C 
ATOM     14  O   UNL     1      49.957   1.571  16.567  0.00  0.00    +0.000 OA
ATOM     15  C   UNL     1      50.436   2.684  17.353  0.00  0.00    +0.000 C 
ENDBRANCH  11  12
ENDBRANCH   9  11
ENDBRANCH   2   5
ENDBRANCH   1   2
BRANCH   1  16
ATOM     16  N   UNL     1      48.567   7.498  13.441  0.00  0.00    +0.000 N 
ATOM     17  H   UNL     1      48.478   8.454  13.096  0.00  0.00    +0.000 HD
BRANCH  16  21
ATOM     18  C   UNL     1      45.035   5.209  13.153  0.00  0.00    +0.000 A 
ATOM     19  C   UNL     1      46.131   4.755  13.891  0.00  0.00    +0.000 A 
ATOM     20  C   UNL     1      47.301   5.524  13.950  0.00  0.00    +0.000 A 
ATOM     21  C   UNL     1      47.415   6.740  13.258  0.00  0.00    +0.000 A 
ATOM     22  C   UNL     1      46.306   7.184  12.540  0.00  0.00    +0.000 A 
ATOM     23  C   UNL     1      45.141   6.420  12.480  0.00  0.00    +0.000 A 
ATOM     24  F   UNL     1      44.103   6.895  11.773  0.00  0.00    +0.000 F 
BRANCH  18  26
ATOM     25  O   UNL     1      43.821   3.205  12.823  0.00  0.00    +0.000 OA
ATOM     26  C   UNL     1      43.803   4.390  13.117  0.00  0.00    +0.000 C 
BRANCH  26  27
ATOM     27  O   UNL     1      42.673   5.028  13.493  0.00  0.00    +0.000 OA
ATOM     28  H   UNL     1      42.674   5.379  14.407  0.00  0.00    +0.000 HD
ENDBRANCH  26  27
ENDBRANCH  18  26
ENDBRANCH  16  21
ENDBRANCH   1  16
TORSDOF 8
ENDMDL
