MODEL 1
REMARK VINA RESULT:    -6.522      0.000      0.000
REMARK INTER + INTRA:          -8.639
REMARK INTER:                  -8.237
REMARK INTRA:                  -0.402
REMARK UNBOUND:                -0.402
REMARK  Name = 
REMARK  5 active torsions:
REMARK  status: ('A' for Active; 'I' for Inactive)
REMARK    1  A    between atoms: N_1  and  C_2
REMARK    2  A    between atoms: C_2  and  C_3
REMARK    3  A    between atoms: N_6  and  C_7
REMARK    4  A    between atoms: C_7  and  N_8
REMARK    5  A    between atoms: C_14  and  C_15
REMARK                            x       y       z     vdW  Elec       q    Type
REMARK                         _______ _______ _______ _____ _____    ______ ____
ROOT
ATOM      1  N   UNL     1      44.326   5.725  11.445  0.00  0.00    +0.000 N 
ATOM      2  C   UNL     1      43.404   5.281  12.365  0.00  0.00    +0.000 A 
ATOM      3  C   UNL     1      43.054   3.990  12.031  0.00  0.00    +0.000 A 
ATOM      4  C   UNL     1      43.807   3.628  10.891  0.00  0.00    +0.000 A 
ATOM      5  N   UNL     1      43.782   2.467  10.193  0.00  0.00    +0.000 NA
ATOM      6  C   UNL     1      44.611   2.433   9.118  0.00  0.00    +0.000 A 
ATOM      7  C   UNL     1      45.467   3.454   8.727  0.00  0.00    +0.000 A 
ATOM      8  C   UNL     1      45.527   4.620   9.492  0.00  0.00    +0.000 A 
ATOM      9  C   UNL     1      44.634   4.705  10.564  0.00  0.00    +0.000 A 
ENDROOT
BRANCH   7  10
ATOM     10  C   UNL     1      46.261   3.283   7.491  0.00  0.00    +0.000 C 
ATOM     11  N   UNL     1      46.853   2.061   7.291  0.00  0.00    +0.000 N 
ATOM     12  O   UNL     1      46.435   4.199   6.703  0.00  0.00    +0.000 OA
ATOM     13  H   UNL     1      46.949   1.375   8.027  0.00  0.00    +0.000 HD
ATOM     14  H   UNL     1      47.503   2.004   6.519  0.00  0.00    +0.000 HD
ENDBRANCH   7  10
BRANCH   1  15
ATOM     15  C   UNL     1      44.887   7.077  11.405  0.00  0.00    +0.000 C 
BRANCH  15  19
ATOM     16  C   UNL     1      48.462   7.988  13.725  0.00  0.00    +0.000 C 
ATOM     17  C   UNL     1      48.002   6.545  13.464  0.00  0.00    +0.000 C 
ATOM     18  C   UNL     1      47.019   6.449  12.295  0.00  0.00    +0.000 C 
ATOM     19  N   UNL     1      45.829   7.283  12.522  0.00  0.00    +0.000 NA
ATOM     20  C   UNL     1      46.213   8.695  12.697  0.00  0.00    +0.000 C 
ATOM     21  C   UNL     1      47.223   8.889  13.835  0.00  0.00    +0.000 C 
BRANCH  16  22
ATOM     22  C   UNL     1      49.477   8.435  12.652  0.00  0.00    +0.000 C 
BRANCH  22  23
ATOM     23  N   UNL     1      50.512   7.434  12.410  0.00  0.00    +0.000 NA
ATOM     24  H   UNL     1      50.788   7.464  11.430  0.00  0.00    +0.000 HD
ATOM     25  H   UNL     1      50.125   6.502  12.560  0.00  0.00    +0.000 HD
ENDBRANCH  22  23
ENDBRANCH  16  22
ENDBRANCH  15  19
ENDBRANCH   1  15
TORSDOF 5
ENDMDL
MODEL 2
REMARK VINA RESULT:    -6.255      3.368      4.636
REMARK INTER + INTRA:          -8.303
REMARK INTER:                  -7.798
REMARK INTRA:                  -0.505
REMARK UNBOUND:                -0.402
REMARK  Name = 
REMARK  5 active torsions:
REMARK  status: ('A' for Active; 'I' for Inactive)
REMARK    1  A    between atoms: N_1  and  C_2
REMARK    2  A    between atoms: C_2  and  C_3
REMARK    3  A    between atoms: N_6  and  C_7
REMARK    4  A    between atoms: C_7  and  N_8
REMARK    5  A    between atoms: C_14  and  C_15
REMARK                            x       y       z     vdW  Elec       q    Type
REMARK                         _______ _______ _______ _____ _____    ______ ____
ROOT
ATOM      1  N   UNL     1      46.761   6.420  13.242  0.00  0.00    +0.000 N 
ATOM      2  C   UNL     1      46.595   7.786  13.245  0.00  0.00    +0.000 A 
ATOM      3  C   UNL     1      45.449   8.079  12.536  0.00  0.00    +0.000 A 
ATOM      4  C   UNL     1      44.886   6.853  12.116  0.00  0.00    +0.000 A 
ATOM      5  N   UNL     1      43.773   6.643  11.371  0.00  0.00    +0.000 NA
ATOM      6  C   UNL     1      43.505   5.339  11.107  0.00  0.00    +0.000 A 
ATOM      7  C   UNL     1      44.247   4.255  11.558  0.00  0.00    +0.000 A 
ATOM      8  C   UNL     1      45.355   4.485  12.375  0.00  0.00    +0.000 A 
ATOM      9  C   UNL     1      45.691   5.822  12.605  0.00  0.00    +0.000 A 
ENDROOT
BRANCH   7  10
ATOM     10  C   UNL     1      43.856   2.896  11.127  0.00  0.00    +0.000 C 
ATOM     11  N   UNL     1      44.504   2.374  10.035  0.00  0.00    +0.000 N 
ATOM     12  O   UNL     1      42.958   2.278  11.675  0.00  0.00    +0.000 OA
ATOM     13  H   UNL     1      45.056   2.942   9.407  0.00  0.00    +0.000 HD
ATOM     14  H   UNL     1      44.130   1.510   9.668  0.00  0.00    +0.000 HD
ENDBRANCH   7  10
BRANCH   1  15
ATOM     15  C   UNL     1      47.905   5.713  13.822  0.00  0.00    +0.000 C 
BRANCH  15  19
ATOM     16  C   UNL     1      48.243   4.157  17.878  0.00  0.00    +0.000 C 
ATOM     17  C   UNL     1      47.115   3.725  16.929  0.00  0.00    +0.000 C 
ATOM     18  C   UNL     1      47.435   4.036  15.465  0.00  0.00    +0.000 C 
ATOM     19  N   UNL     1      47.691   5.470  15.262  0.00  0.00    +0.000 NA
ATOM     20  C   UNL     1      48.823   5.916  16.094  0.00  0.00    +0.000 C 
ATOM     21  C   UNL     1      48.605   5.621  17.583  0.00  0.00    +0.000 C 
BRANCH  16  22
ATOM     22  C   UNL     1      49.434   3.179  17.786  0.00  0.00    +0.000 C 
BRANCH  22  23
ATOM     23  N   UNL     1      50.598   3.646  18.533  0.00  0.00    +0.000 NA
ATOM     24  H   UNL     1      50.925   2.901  19.147  0.00  0.00    +0.000 HD
ATOM     25  H   UNL     1      50.323   4.411  19.150  0.00  0.00    +0.000 HD
ENDBRANCH  22  23
ENDBRANCH  16  22
ENDBRANCH  15  19
ENDBRANCH   1  15
TORSDOF 5
ENDMDL
MODEL 3
REMARK VINA RESULT:    -6.018      3.953      7.485
REMARK INTER + INTRA:          -8.003
REMARK INTER:                  -7.502
REMARK INTRA:                  -0.501
REMARK UNBOUND:                -0.402
REMARK  Name = 
REMARK  5 active torsions:
REMARK  status: ('A' for Active; 'I' for Inactive)
REMARK    1  A    between atoms: N_1  and  C_2
REMARK    2  A    between atoms: C_2  and  C_3
REMARK    3  A    between atoms: N_6  and  C_7
REMARK    4  A    between atoms: C_7  and  N_8
REMARK    5  A    between atoms: C_14  and  C_15
REMARK                            x       y       z     vdW  Elec       q    Type
REMARK                         _______ _______ _______ _____ _____    ______ ____
ROOT
ATOM      1  N   UNL     1      48.236   6.610  14.054  0.00  0.00    +0.000 N 
ATOM      2  C   UNL     1      48.776   7.876  14.037  0.00  0.00    +0.000 A 
ATOM      3  C   UNL     1      49.137   8.204  15.327  0.00  0.00    +0.000 A 
ATOM      4  C   UNL     1      48.834   7.094  16.147  0.00  0.00    +0.000 A 
ATOM      5  N   UNL     1      48.991   6.963  17.487  0.00  0.00    +0.000 NA
ATOM      6  C   UNL     1      48.577   5.774  17.993  0.00  0.00    +0.000 A 
ATOM      7  C   UNL     1      48.057   4.719  17.253  0.00  0.00    +0.000 A 
ATOM      8  C   UNL     1      47.959   4.846  15.867  0.00  0.00    +0.000 A 
ATOM      9  C   UNL     1      48.316   6.086  15.331  0.00  0.00    +0.000 A 
ENDROOT
BRANCH   7  10
ATOM     10  C   UNL     1      47.592   3.510  17.967  0.00  0.00    +0.000 C 
ATOM     11  N   UNL     1      48.287   3.141  19.092  0.00  0.00    +0.000 N 
ATOM     12  O   UNL     1      46.667   2.831  17.553  0.00  0.00    +0.000 OA
ATOM     13  H   UNL     1      49.198   3.517  19.318  0.00  0.00    +0.000 HD
ATOM     14  H   UNL     1      48.048   2.241  19.486  0.00  0.00    +0.000 HD
ENDBRANCH   7  10
BRANCH   1  15
ATOM     15  C   UNL     1      47.658   5.929  12.893  0.00  0.00    +0.000 C 
BRANCH  15  19
ATOM     16  C   UNL     1      43.444   5.609  11.833  0.00  0.00    +0.000 C 
ATOM     17  C   UNL     1      44.311   6.796  11.387  0.00  0.00    +0.000 C 
ATOM     18  C   UNL     1      45.808   6.493  11.483  0.00  0.00    +0.000 C 
ATOM     19  N   UNL     1      46.196   6.122  12.852  0.00  0.00    +0.000 NA
ATOM     20  C   UNL     1      45.447   4.932  13.297  0.00  0.00    +0.000 C 
ATOM     21  C   UNL     1      43.929   5.132  13.211  0.00  0.00    +0.000 C 
BRANCH  16  22
ATOM     22  C   UNL     1      43.432   4.509  10.750  0.00  0.00    +0.000 C 
BRANCH  22  23
ATOM     23  N   UNL     1      42.978   3.222  11.268  0.00  0.00    +0.000 NA
ATOM     24  H   UNL     1      41.988   3.104  11.058  0.00  0.00    +0.000 HD
ATOM     25  H   UNL     1      43.047   3.220  12.285  0.00  0.00    +0.000 HD
ENDBRANCH  22  23
ENDBRANCH  16  22
ENDBRANCH  15  19
ENDBRANCH   1  15
TORSDOF 5
ENDMDL
MODEL 4
REMARK VINA RESULT:    -5.776      4.332      5.735
REMARK INTER + INTRA:          -7.697
REMARK INTER:                  -7.651
REMARK INTRA:                  -0.046
REMARK UNBOUND:                -0.402
REMARK  Name = 
REMARK  5 active torsions:
REMARK  status: ('A' for Active; 'I' for Inactive)
REMARK    1  A    between atoms: N_1  and  C_2
REMARK    2  A    between atoms: C_2  and  C_3
REMARK    3  A    between atoms: N_6  and  C_7
REMARK    4  A    between atoms: C_7  and  N_8
REMARK    5  A    between atoms: C_14  and  C_15
REMARK                            x       y       z     vdW  Elec       q    Type
REMARK                         _______ _______ _______ _____ _____    ______ ____
ROOT
ATOM      1  N   UNL     1      46.926   5.033  13.948  0.00  0.00    +0.000 N 
ATOM      2  C   UNL     1      46.837   3.674  13.747  0.00  0.00    +0.000 A 
ATOM      3  C   UNL     1      45.919   3.450  12.743  0.00  0.00    +0.000 A 
ATOM      4  C   UNL     1      45.459   4.711  12.300  0.00  0.00    +0.000 A 
ATOM      5  N   UNL     1      44.535   4.989  11.349  0.00  0.00    +0.000 NA
ATOM      6  C   UNL     1      44.285   6.311  11.169  0.00  0.00    +0.000 A 
ATOM      7  C   UNL     1      44.913   7.350  11.846  0.00  0.00    +0.000 A 
ATOM      8  C   UNL     1      45.906   7.050  12.779  0.00  0.00    +0.000 A 
ATOM      9  C   UNL     1      46.132   5.693  13.030  0.00  0.00    +0.000 A 
ENDROOT
BRANCH   7  10
ATOM     10  C   UNL     1      44.479   8.738  11.578  0.00  0.00    +0.000 C 
ATOM     11  N   UNL     1      43.367   8.906  10.792  0.00  0.00    +0.000 N 
ATOM     12  O   UNL     1      45.108   9.701  11.986  0.00  0.00    +0.000 OA
ATOM     13  H   UNL     1      42.978   8.160  10.231  0.00  0.00    +0.000 HD
ATOM     14  H   UNL     1      43.167   9.854  10.502  0.00  0.00    +0.000 HD
ENDBRANCH   7  10
BRANCH   1  15
ATOM     15  C   UNL     1      47.736   5.676  14.986  0.00  0.00    +0.000 C 
BRANCH  15  19
ATOM     16  C   UNL     1      49.041   3.655  18.619  0.00  0.00    +0.000 C 
ATOM     17  C   UNL     1      50.037   4.255  17.615  0.00  0.00    +0.000 C 
ATOM     18  C   UNL     1      49.380   5.272  16.679  0.00  0.00    +0.000 C 
ATOM     19  N   UNL     1      48.266   4.672  15.928  0.00  0.00    +0.000 NA
ATOM     20  C   UNL     1      47.240   4.154  16.852  0.00  0.00    +0.000 C 
ATOM     21  C   UNL     1      47.813   3.141  17.852  0.00  0.00    +0.000 C 
BRANCH  16  22
ATOM     22  C   UNL     1      48.712   4.675  19.730  0.00  0.00    +0.000 C 
BRANCH  22  23
ATOM     23  N   UNL     1      48.357   4.030  20.991  0.00  0.00    +0.000 NA
ATOM     24  H   UNL     1      48.321   4.732  21.730  0.00  0.00    +0.000 HD
ATOM     25  H   UNL     1      49.096   3.382  21.263  0.00  0.00    +0.000 HD
ENDBRANCH  22  23
ENDBRANCH  16  22
ENDBRANCH  15  19
ENDBRANCH   1  15
TORSDOF 5
ENDMDL
MODEL 5
REMARK VINA RESULT:    -5.757      4.126      5.522
REMARK INTER + INTRA:          -7.673
REMARK INTER:                  -7.359
REMARK INTRA:                  -0.314
REMARK UNBOUND:                -0.402
REMARK  Name = 
REMARK  5 active torsions:
REMARK  status: ('A' for Active; 'I' for Inactive)
REMARK    1  A    between atoms: N_1  and  C_2
REMARK    2  A    between atoms: C_2  and  C_3
REMARK    3  A    between atoms: N_6  and  C_7
REMARK    4  A    between atoms: C_7  and  N_8
REMARK    5  A    between atoms: C_14  and  C_15
REMARK                            x       y       z     vdW  Elec       q    Type
REMARK                         _______ _______ _______ _____ _____    ______ ____
ROOT
ATOM      1  N   UNL     1      47.499   5.494  14.416  0.00  0.00    +0.000 N 
ATOM      2  C   UNL     1      48.200   6.651  14.164  0.00  0.00    +0.000 A 
ATOM      3  C   UNL     1      47.813   7.124  12.928  0.00  0.00    +0.000 A 
ATOM      4  C   UNL     1      46.826   6.245  12.427  0.00  0.00    +0.000 A 
ATOM      5  N   UNL     1      46.173   6.292  11.241  0.00  0.00    +0.000 NA
ATOM      6  C   UNL     1      45.293   5.279  11.037  0.00  0.00    +0.000 A 
ATOM      7  C   UNL     1      45.009   4.262  11.940  0.00  0.00    +0.000 A 
ATOM      8  C   UNL     1      45.645   4.262  13.183  0.00  0.00    +0.000 A 
ATOM      9  C   UNL     1      46.605   5.257  13.389  0.00  0.00    +0.000 A 
ENDROOT
BRANCH   7  10
ATOM     10  C   UNL     1      44.069   3.195  11.538  0.00  0.00    +0.000 C 
ATOM     11  N   UNL     1      43.675   2.307  12.508  0.00  0.00    +0.000 N 
ATOM     12  O   UNL     1      43.695   3.064  10.383  0.00  0.00    +0.000 OA
ATOM     13  H   UNL     1      44.153   2.223  13.395  0.00  0.00    +0.000 HD
ATOM     14  H   UNL     1      43.149   1.505  12.190  0.00  0.00    +0.000 HD
ENDBRANCH   7  10
BRANCH   1  15
ATOM     15  C   UNL     1      47.682   4.642  15.593  0.00  0.00    +0.000 C 
BRANCH  15  19
ATOM     16  C   UNL     1      48.650   5.890  19.654  0.00  0.00    +0.000 C 
ATOM     17  C   UNL     1      47.207   5.875  19.126  0.00  0.00    +0.000 C 
ATOM     18  C   UNL     1      47.054   5.008  17.874  0.00  0.00    +0.000 C 
ATOM     19  N   UNL     1      47.941   5.461  16.792  0.00  0.00    +0.000 NA
ATOM     20  C   UNL     1      49.350   5.415  17.226  0.00  0.00    +0.000 C 
ATOM     21  C   UNL     1      49.597   6.238  18.496  0.00  0.00    +0.000 C 
BRANCH  16  22
ATOM     22  C   UNL     1      48.980   4.561  20.365  0.00  0.00    +0.000 C 
BRANCH  22  23
ATOM     23  N   UNL     1      50.409   4.404  20.618  0.00  0.00    +0.000 NA
ATOM     24  H   UNL     1      50.597   4.568  21.607  0.00  0.00    +0.000 HD
ATOM     25  H   UNL     1      50.926   5.125  20.116  0.00  0.00    +0.000 HD
ENDBRANCH  22  23
ENDBRANCH  16  22
ENDBRANCH  15  19
ENDBRANCH   1  15
TORSDOF 5
ENDMDL
MODEL 6
REMARK VINA RESULT:    -5.704      3.911      5.862
REMARK INTER + INTRA:          -7.607
REMARK INTER:                  -7.141
REMARK INTRA:                  -0.465
REMARK UNBOUND:                -0.402
REMARK  Name = 
REMARK  5 active torsions:
REMARK  status: ('A' for Active; 'I' for Inactive)
REMARK    1  A    between atoms: N_1  and  C_2
REMARK    2  A    between atoms: C_2  and  C_3
REMARK    3  A    between atoms: N_6  and  C_7
REMARK    4  A    between atoms: C_7  and  N_8
REMARK    5  A    between atoms: C_14  and  C_15
REMARK                            x       y       z     vdW  Elec       q    Type
REMARK                         _______ _______ _______ _____ _____    ______ ____
ROOT
ATOM      1  N   UNL     1      48.187   7.104  13.920  0.00  0.00    +0.000 N 
ATOM      2  C   UNL     1      49.098   7.620  13.027  0.00  0.00    +0.000 A 
ATOM      3  C   UNL     1      48.634   7.372  11.752  0.00  0.00    +0.000 A 
ATOM      4  C   UNL     1      47.390   6.713  11.874  0.00  0.00    +0.000 A 
ATOM      5  N   UNL     1      46.576   6.251  10.894  0.00  0.00    +0.000 NA
ATOM      6  C   UNL     1      45.452   5.632  11.335  0.00  0.00    +0.000 A 
ATOM      7  C   UNL     1      45.084   5.477  12.666  0.00  0.00    +0.000 A 
ATOM      8  C   UNL     1      45.903   6.011  13.662  0.00  0.00    +0.000 A 
ATOM      9  C   UNL     1      47.100   6.594  13.235  0.00  0.00    +0.000 A 
ENDROOT
BRANCH   7  10
ATOM     10  C   UNL     1      43.855   4.719  12.981  0.00  0.00    +0.000 C 
ATOM     11  N   UNL     1      42.683   5.429  13.057  0.00  0.00    +0.000 N 
ATOM     12  O   UNL     1      43.877   3.522  13.221  0.00  0.00    +0.000 OA
ATOM     13  H   UNL     1      42.660   6.438  13.122  0.00  0.00    +0.000 HD
ATOM     14  H   UNL     1      41.881   4.925  13.410  0.00  0.00    +0.000 HD
ENDBRANCH   7  10
BRANCH   1  15
ATOM     15  C   UNL     1      48.352   7.093  15.375  0.00  0.00    +0.000 C 
BRANCH  15  19
ATOM     16  C   UNL     1      49.743   3.792  17.856  0.00  0.00    +0.000 C 
ATOM     17  C   UNL     1      50.710   4.812  17.237  0.00  0.00    +0.000 C 
ATOM     18  C   UNL     1      50.000   6.094  16.796  0.00  0.00    +0.000 C 
ATOM     19  N   UNL     1      48.935   5.813  15.822  0.00  0.00    +0.000 NA
ATOM     20  C   UNL     1      47.933   4.898  16.402  0.00  0.00    +0.000 C 
ATOM     21  C   UNL     1      48.558   3.589  16.899  0.00  0.00    +0.000 C 
BRANCH  16  22
ATOM     22  C   UNL     1      49.339   4.224  19.282  0.00  0.00    +0.000 C 
BRANCH  22  23
ATOM     23  N   UNL     1      48.404   3.290  19.903  0.00  0.00    +0.000 NA
ATOM     24  H   UNL     1      48.866   2.391  20.039  0.00  0.00    +0.000 HD
ATOM     25  H   UNL     1      47.628   3.109  19.267  0.00  0.00    +0.000 HD
ENDBRANCH  22  23
ENDBRANCH  16  22
ENDBRANCH  15  19
ENDBRANCH   1  15
TORSDOF 5
ENDMDL
MODEL 7
REMARK VINA RESULT:    -5.323      3.081      6.938
REMARK INTER + INTRA:          -7.125
REMARK INTER:                  -6.717
REMARK INTRA:                  -0.408
REMARK UNBOUND:                -0.402
REMARK  Name = 
REMARK  5 active torsions:
REMARK  status: ('A' for Active; 'I' for Inactive)
REMARK    1  A    between atoms: N_1  and  C_2
REMARK    2  A    between atoms: C_2  and  C_3
REMARK    3  A    between atoms: N_6  and  C_7
REMARK    4  A    between atoms: C_7  and  N_8
REMARK    5  A    between atoms: C_14  and  C_15
REMARK                            x       y       z     vdW  Elec       q    Type
REMARK                         _______ _______ _______ _____ _____    ______ ____
ROOT
ATOM      1  N   UNL     1      46.752   7.829  12.833  0.00  0.00    +0.000 N 
ATOM      2  C   UNL     1      48.124   7.925  12.884  0.00  0.00    +0.000 A 
ATOM      3  C   UNL     1      48.484   9.167  12.406  0.00  0.00    +0.000 A 
ATOM      4  C   UNL     1      47.294   9.858  12.083  0.00  0.00    +0.000 A 
ATOM      5  N   UNL     1      47.151  11.099  11.558  0.00  0.00    +0.000 NA
ATOM      6  C   UNL     1      45.866  11.475  11.332  0.00  0.00    +0.000 A 
ATOM      7  C   UNL     1      44.740  10.716  11.622  0.00  0.00    +0.000 A 
ATOM      8  C   UNL     1      44.901   9.465  12.219  0.00  0.00    +0.000 A 
ATOM      9  C   UNL     1      46.216   9.027  12.399  0.00  0.00    +0.000 A 
ENDROOT
BRANCH   7  10
ATOM     10  C   UNL     1      43.410  11.246  11.254  0.00  0.00    +0.000 C 
ATOM     11  N   UNL     1      43.177  11.486   9.923  0.00  0.00    +0.000 N 
ATOM     12  O   UNL     1      42.567  11.516  12.095  0.00  0.00    +0.000 OA
ATOM     13  H   UNL     1      43.920  11.523   9.238  0.00  0.00    +0.000 HD
ATOM     14  H   UNL     1      42.322  11.978   9.703  0.00  0.00    +0.000 HD
ENDBRANCH   7  10
BRANCH   1  15
ATOM     15  C   UNL     1      45.981   6.633  13.179  0.00  0.00    +0.000 C 
BRANCH  15  19
ATOM     16  C   UNL     1      43.748   4.274  10.275  0.00  0.00    +0.000 C 
ATOM     17  C   UNL     1      45.056   4.993   9.911  0.00  0.00    +0.000 C 
ATOM     18  C   UNL     1      45.875   5.372  11.146  0.00  0.00    +0.000 C 
ATOM     19  N   UNL     1      45.108   6.235  12.058  0.00  0.00    +0.000 NA
ATOM     20  C   UNL     1      43.878   5.553  12.502  0.00  0.00    +0.000 C 
ATOM     21  C   UNL     1      43.000   5.108  11.326  0.00  0.00    +0.000 C 
BRANCH  16  22
ATOM     22  C   UNL     1      44.031   2.819  10.705  0.00  0.00    +0.000 C 
BRANCH  22  23
ATOM     23  N   UNL     1      44.495   1.990   9.597  0.00  0.00    +0.000 NA
ATOM     24  H   UNL     1      44.713   1.056   9.943  0.00  0.00    +0.000 HD
ATOM     25  H   UNL     1      45.373   2.363   9.236  0.00  0.00    +0.000 HD
ENDBRANCH  22  23
ENDBRANCH  16  22
ENDBRANCH  15  19
ENDBRANCH   1  15
TORSDOF 5
ENDMDL
MODEL 8
REMARK VINA RESULT:    -5.100      2.675      6.713
REMARK INTER + INTRA:          -6.843
REMARK INTER:                  -6.384
REMARK INTRA:                  -0.459
REMARK UNBOUND:                -0.402
REMARK  Name = 
REMARK  5 active torsions:
REMARK  status: ('A' for Active; 'I' for Inactive)
REMARK    1  A    between atoms: N_1  and  C_2
REMARK    2  A    between atoms: C_2  and  C_3
REMARK    3  A    between atoms: N_6  and  C_7
REMARK    4  A    between atoms: C_7  and  N_8
REMARK    5  A    between atoms: C_14  and  C_15
REMARK                            x       y       z     vdW  Elec       q    Type
REMARK                         _______ _______ _______ _____ _____    ______ ____
ROOT
ATOM      1  N   UNL     1      48.127   7.494  13.141  0.00  0.00    +0.000 N 
ATOM      2  C   UNL     1      47.562   8.498  13.894  0.00  0.00    +0.000 A 
ATOM      3  C   UNL     1      48.312   9.641  13.714  0.00  0.00    +0.000 A 
ATOM      4  C   UNL     1      49.345   9.330  12.800  0.00  0.00    +0.000 A 
ATOM      5  N   UNL     1      50.339  10.129  12.341  0.00  0.00    +0.000 NA
ATOM      6  C   UNL     1      51.203   9.526  11.485  0.00  0.00    +0.000 A 
ATOM      7  C   UNL     1      51.117   8.211  11.045  0.00  0.00    +0.000 A 
ATOM      8  C   UNL     1      50.053   7.419  11.480  0.00  0.00    +0.000 A 
ATOM      9  C   UNL     1      49.189   7.997  12.414  0.00  0.00    +0.000 A 
ENDROOT
BRANCH   7  10
ATOM     10  C   UNL     1      52.178   7.686  10.160  0.00  0.00    +0.000 C 
ATOM     11  N   UNL     1      52.708   6.460  10.475  0.00  0.00    +0.000 N 
ATOM     12  O   UNL     1      52.611   8.331   9.218  0.00  0.00    +0.000 OA
ATOM     13  H   UNL     1      52.566   6.021  11.375  0.00  0.00    +0.000 HD
ATOM     14  H   UNL     1      53.524   6.181   9.948  0.00  0.00    +0.000 HD
ENDBRANCH   7  10
BRANCH   1  15
ATOM     15  C   UNL     1      47.672   6.102  13.123  0.00  0.00    +0.000 C 
BRANCH  15  19
ATOM     16  C   UNL     1      43.795   4.826  11.597  0.00  0.00    +0.000 C 
ATOM     17  C   UNL     1      44.576   5.991  10.971  0.00  0.00    +0.000 C 
ATOM     18  C   UNL     1      46.056   5.977  11.361  0.00  0.00    +0.000 C 
ATOM     19  N   UNL     1      46.230   6.030  12.820  0.00  0.00    +0.000 NA
ATOM     20  C   UNL     1      45.564   4.882  13.463  0.00  0.00    +0.000 C 
ATOM     21  C   UNL     1      44.075   4.797  13.107  0.00  0.00    +0.000 C 
BRANCH  16  22
ATOM     22  C   UNL     1      44.118   3.504  10.867  0.00  0.00    +0.000 C 
BRANCH  22  23
ATOM     23  N   UNL     1      43.353   2.376  11.392  0.00  0.00    +0.000 NA
ATOM     24  H   UNL     1      43.809   2.021  12.232  0.00  0.00    +0.000 HD
ATOM     25  H   UNL     1      43.374   1.608  10.722  0.00  0.00    +0.000 HD
ENDBRANCH  22  23
ENDBRANCH  16  22
ENDBRANCH  15  19
ENDBRANCH   1  15
TORSDOF 5
ENDMDL
MODEL 9
REMARK VINA RESULT:    -5.080      5.870      8.808
REMARK INTER + INTRA:          -6.818
REMARK INTER:                  -6.408
REMARK INTRA:                  -0.411
REMARK UNBOUND:                -0.402
REMARK  Name = 
REMARK  5 active torsions:
REMARK  status: ('A' for Active; 'I' for Inactive)
REMARK    1  A    between atoms: N_1  and  C_2
REMARK    2  A    between atoms: C_2  and  C_3
REMARK    3  A    between atoms: N_6  and  C_7
REMARK    4  A    between atoms: C_7  and  N_8
REMARK    5  A    between atoms: C_14  and  C_15
REMARK                            x       y       z     vdW  Elec       q    Type
REMARK                         _______ _______ _______ _____ _____    ______ ____
ROOT
ATOM      1  N   UNL     1      49.669   5.445  17.467  0.00  0.00    +0.000 N 
ATOM      2  C   UNL     1      50.072   6.726  17.767  0.00  0.00    +0.000 A 
ATOM      3  C   UNL     1      51.392   6.678  18.163  0.00  0.00    +0.000 A 
ATOM      4  C   UNL     1      51.813   5.332  18.071  0.00  0.00    +0.000 A 
ATOM      5  N   UNL     1      53.020   4.800  18.379  0.00  0.00    +0.000 NA
ATOM      6  C   UNL     1      53.108   3.456  18.209  0.00  0.00    +0.000 A 
ATOM      7  C   UNL     1      52.094   2.635  17.730  0.00  0.00    +0.000 A 
ATOM      8  C   UNL     1      50.877   3.208  17.360  0.00  0.00    +0.000 A 
ATOM      9  C   UNL     1      50.740   4.579  17.589  0.00  0.00    +0.000 A 
ENDROOT
BRANCH   7  10
ATOM     10  C   UNL     1      52.330   1.177  17.664  0.00  0.00    +0.000 C 
ATOM     11  N   UNL     1      51.312   0.358  18.083  0.00  0.00    +0.000 N 
ATOM     12  O   UNL     1      53.401   0.712  17.307  0.00  0.00    +0.000 OA
ATOM     13  H   UNL     1      50.526   0.697  18.620  0.00  0.00    +0.000 HD
ATOM     14  H   UNL     1      51.538  -0.624  18.166  0.00  0.00    +0.000 HD
ENDBRANCH   7  10
BRANCH   1  15
ATOM     15  C   UNL     1      48.309   5.061  17.084  0.00  0.00    +0.000 C 
BRANCH  15  19
ATOM     16  C   UNL     1      46.710   5.201  13.033  0.00  0.00    +0.000 C 
ATOM     17  C   UNL     1      46.973   3.875  13.762  0.00  0.00    +0.000 C 
ATOM     18  C   UNL     1      47.102   4.058  15.276  0.00  0.00    +0.000 C 
ATOM     19  N   UNL     1      48.181   4.997  15.615  0.00  0.00    +0.000 NA
ATOM     20  C   UNL     1      47.931   6.315  15.003  0.00  0.00    +0.000 C 
ATOM     21  C   UNL     1      47.760   6.229  13.481  0.00  0.00    +0.000 C 
BRANCH  16  22
ATOM     22  C   UNL     1      45.249   5.655  13.243  0.00  0.00    +0.000 C 
BRANCH  22  23
ATOM     23  N   UNL     1      45.062   7.076  12.967  0.00  0.00    +0.000 NA
ATOM     24  H   UNL     1      45.907   7.584  13.227  0.00  0.00    +0.000 HD
ATOM     25  H   UNL     1      44.323   7.445  13.565  0.00  0.00    +0.000 HD
ENDBRANCH  22  23
ENDBRANCH  16  22
ENDBRANCH  15  19
ENDBRANCH   1  15
TORSDOF 5
ENDMDL
