MODEL 1
REMARK VINA RESULT:    -8.483      0.000      0.000
REMARK INTER + INTRA:         -11.631
REMARK INTER:                 -11.210
REMARK INTRA:                  -0.421
REMARK UNBOUND:                -0.421
REMARK  Name = 
REMARK  7 active torsions:
REMARK  status: ('A' for Active; 'I' for Inactive)
REMARK    1  A    between atoms: C_1  and  N_2
REMARK    2  A    between atoms: N_2  and  C_3
REMARK    3  A    between atoms: C_3  and  C_4
REMARK    4  A    between atoms: C_7  and  C_8
REMARK    5  A    between atoms: C_8  and  C_9
REMARK    6  A    between atoms: C_12  and  N_13
REMARK    7  A    between atoms: C_18  and  C_20
REMARK                            x       y       z     vdW  Elec       q    Type
REMARK                         _______ _______ _______ _____ _____    ______ ____
ROOT
ATOM      1  C   UNL     1      46.807   6.644  13.550  0.00  0.00    +0.000 C 
ENDROOT
BRANCH   1   2
ATOM      2  C   UNL     1      46.247   5.756  12.475  0.00  0.00    +0.000 A 
ATOM      3  C   UNL     1      45.888   4.430  12.763  0.00  0.00    +0.000 A 
ATOM      4  C   UNL     1      45.256   3.647  11.800  0.00  0.00    +0.000 A 
ATOM      5  C   UNL     1      44.962   4.186  10.544  0.00  0.00    +0.000 A 
ATOM      6  C   UNL     1      45.380   5.487  10.237  0.00  0.00    +0.000 A 
ATOM      7  C   UNL     1      46.025   6.266  11.195  0.00  0.00    +0.000 A 
BRANCH   5   8
ATOM      8  C   UNL     1      44.215   3.387   9.509  0.00  0.00    +0.000 C 
BRANCH   8   9
ATOM      9  C   UNL     1      45.050   2.925   8.298  0.00  0.00    +0.000 C 
ATOM     10  C   UNL     1      45.991   4.006   7.733  0.00  0.00    +0.000 C 
ATOM     11  C   UNL     1      46.831   3.457   6.573  0.00  0.00    +0.000 C 
ATOM     12  C   UNL     1      47.634   2.224   7.002  0.00  0.00    +0.000 C 
ATOM     13  C   UNL     1      46.718   1.146   7.586  0.00  0.00    +0.000 C 
ATOM     14  C   UNL     1      45.868   1.696   8.725  0.00  0.00    +0.000 C 
BRANCH  12  15
ATOM     15  N   UNL     1      48.380   1.683   5.866  0.00  0.00    +0.000 NA
ATOM     16  H   UNL     1      47.802   1.010   5.362  0.00  0.00    +0.000 HD
ATOM     17  H   UNL     1      49.183   1.156   6.209  0.00  0.00    +0.000 HD
ENDBRANCH  12  15
ENDBRANCH   8   9
ENDBRANCH   5   8
ENDBRANCH   1   2
BRANCH   1  19
ATOM     18  C   UNL     1      48.958   7.501  12.522  0.00  0.00    +0.000 C 
ATOM     19  N   UNL     1      48.252   6.839  13.614  0.00  0.00    +0.000 N 
ATOM     20  C   UNL     1      49.002   6.608  14.781  0.00  0.00    +0.000 C 
ATOM     21  O   UNL     1      50.185   6.935  14.847  0.00  0.00    +0.000 OA
BRANCH  20  22
ATOM     22  C   UNL     1      48.372   5.930  15.925  0.00  0.00    +0.000 A 
ATOM     23  C   UNL     1      47.943   4.612  15.926  0.00  0.00    +0.000 A 
ATOM     24  S   UNL     1      47.305   4.097  17.423  0.00  0.00    +0.000 S 
ATOM     25  C   UNL     1      47.729   5.566  18.164  0.00  0.00    +0.000 A 
ATOM     26  N   UNL     1      47.565   5.744  19.500  0.00  0.00    +0.000 NA
ATOM     27  C   UNL     1      47.999   6.880  19.937  0.00  0.00    +0.000 A 
ATOM     28  N   UNL     1      48.540   7.868  19.150  0.00  0.00    +0.000 N 
ATOM     29  C   UNL     1      48.587   7.791  17.773  0.00  0.00    +0.000 A 
ATOM     30  O   UNL     1      48.826   8.777  17.095  0.00  0.00    +0.000 OA
ATOM     31  C   UNL     1      48.243   6.475  17.254  0.00  0.00    +0.000 A 
ATOM     32  H   UNL     1      48.792   8.759  19.546  0.00  0.00    +0.000 HD
ENDBRANCH  20  22
ENDBRANCH   1  19
TORSDOF 6
ENDMDL
MODEL 2
REMARK VINA RESULT:    -7.699      2.977      4.738
REMARK INTER + INTRA:         -10.595
REMARK INTER:                  -9.037
REMARK INTRA:                  -1.558
REMARK UNBOUND:                -0.421
REMARK  Name = 
REMARK  7 active torsions:
REMARK  status: ('A' for Active; 'I' for Inactive)
REMARK    1  A    between atoms: C_1  and  N_2
REMARK    2  A    between atoms: N_2  and  C_3
REMARK    3  A    between atoms: C_3  and  C_4
REMARK    4  A    between atoms: C_7  and  C_8
REMARK    5  A    between atoms: C_8  and  C_9
REMARK    6  A    between atoms: C_12  and  N_13
REMARK    7  A    between atoms: C_18  and  C_20
REMARK                            x       y       z     vdW  Elec       q    Type
REMARK                         _______ _______ _______ _____ _____    ______ ____
ROOT
ATOM      1  C   UNL     1      49.463   8.347  16.151  0.00  0.00    +0.000 C 
ENDROOT
BRANCH   1   2
ATOM      2  C   UNL     1      48.666   7.964  14.937  0.00  0.00    +0.000 A 
ATOM      3  C   UNL     1      48.749   6.666  14.412  0.00  0.00    +0.000 A 
ATOM      4  C   UNL     1      47.919   6.276  13.364  0.00  0.00    +0.000 A 
ATOM      5  C   UNL     1      46.986   7.175  12.839  0.00  0.00    +0.000 A 
ATOM      6  C   UNL     1      46.950   8.490  13.321  0.00  0.00    +0.000 A 
ATOM      7  C   UNL     1      47.790   8.885  14.360  0.00  0.00    +0.000 A 
BRANCH   5   8
ATOM      8  C   UNL     1      46.026   6.759  11.756  0.00  0.00    +0.000 C 
BRANCH   8   9
ATOM      9  C   UNL     1      45.482   5.320  11.870  0.00  0.00    +0.000 C 
ATOM     10  C   UNL     1      44.349   5.156  12.902  0.00  0.00    +0.000 C 
ATOM     11  C   UNL     1      43.819   3.716  12.914  0.00  0.00    +0.000 C 
ATOM     12  C   UNL     1      43.337   3.287  11.524  0.00  0.00    +0.000 C 
ATOM     13  C   UNL     1      44.443   3.465  10.481  0.00  0.00    +0.000 C 
ATOM     14  C   UNL     1      44.986   4.888  10.481  0.00  0.00    +0.000 C 
BRANCH  12  15
ATOM     15  N   UNL     1      42.892   1.895  11.548  0.00  0.00    +0.000 NA
ATOM     16  H   UNL     1      43.174   1.427  10.686  0.00  0.00    +0.000 HD
ATOM     17  H   UNL     1      41.872   1.865  11.557  0.00  0.00    +0.000 HD
ENDBRANCH  12  15
ENDBRANCH   8   9
ENDBRANCH   5   8
ENDBRANCH   1   2
BRANCH   1  19
ATOM     18  C   UNL     1      47.868   9.293  17.877  0.00  0.00    +0.000 C 
ATOM     19  N   UNL     1      48.823   8.272  17.461  0.00  0.00    +0.000 N 
ATOM     20  C   UNL     1      48.914   7.140  18.291  0.00  0.00    +0.000 C 
ATOM     21  O   UNL     1      48.233   7.047  19.311  0.00  0.00    +0.000 OA
BRANCH  20  22
ATOM     22  C   UNL     1      49.864   6.068  17.954  0.00  0.00    +0.000 A 
ATOM     23  C   UNL     1      51.231   6.124  18.177  0.00  0.00    +0.000 A 
ATOM     24  S   UNL     1      52.059   4.700  17.731  0.00  0.00    +0.000 S 
ATOM     25  C   UNL     1      50.601   3.904  17.377  0.00  0.00    +0.000 A 
ATOM     26  N   UNL     1      50.588   2.587  17.046  0.00  0.00    +0.000 NA
ATOM     27  C   UNL     1      49.405   2.098  16.877  0.00  0.00    +0.000 A 
ATOM     28  N   UNL     1      48.238   2.819  16.964  0.00  0.00    +0.000 N 
ATOM     29  C   UNL     1      48.211   4.186  17.149  0.00  0.00    +0.000 A 
ATOM     30  O   UNL     1      47.189   4.827  16.962  0.00  0.00    +0.000 OA
ATOM     31  C   UNL     1      49.509   4.751  17.487  0.00  0.00    +0.000 A 
ATOM     32  H   UNL     1      47.353   2.390  16.749  0.00  0.00    +0.000 HD
ENDBRANCH  20  22
ENDBRANCH   1  19
TORSDOF 6
ENDMDL
MODEL 3
REMARK VINA RESULT:    -7.335      2.233      2.804
REMARK INTER + INTRA:         -10.114
REMARK INTER:                  -9.196
REMARK INTRA:                  -0.918
REMARK UNBOUND:                -0.421
REMARK  Name = 
REMARK  7 active torsions:
REMARK  status: ('A' for Active; 'I' for Inactive)
REMARK    1  A    between atoms: C_1  and  N_2
REMARK    2  A    between atoms: N_2  and  C_3
REMARK    3  A    between atoms: C_3  and  C_4
REMARK    4  A    between atoms: C_7  and  C_8
REMARK    5  A    between atoms: C_8  and  C_9
REMARK    6  A    between atoms: C_12  and  N_13
REMARK    7  A    between atoms: C_18  and  C_20
REMARK                            x       y       z     vdW  Elec       q    Type
REMARK                         _______ _______ _______ _____ _____    ______ ____
ROOT
ATOM      1  C   UNL     1      48.872   6.985  13.792  0.00  0.00    +0.000 C 
ENDROOT
BRANCH   1   2
ATOM      2  C   UNL     1      47.800   6.396  12.921  0.00  0.00    +0.000 A 
ATOM      3  C   UNL     1      47.083   5.266  13.344  0.00  0.00    +0.000 A 
ATOM      4  C   UNL     1      46.007   4.794  12.594  0.00  0.00    +0.000 A 
ATOM      5  C   UNL     1      45.628   5.455  11.423  0.00  0.00    +0.000 A 
ATOM      6  C   UNL     1      46.386   6.542  10.969  0.00  0.00    +0.000 A 
ATOM      7  C   UNL     1      47.470   7.006  11.710  0.00  0.00    +0.000 A 
BRANCH   5   8
ATOM      8  C   UNL     1      44.426   5.011  10.632  0.00  0.00    +0.000 C 
BRANCH   8   9
ATOM      9  C   UNL     1      44.727   4.116   9.413  0.00  0.00    +0.000 C 
ATOM     10  C   UNL     1      45.870   4.634   8.520  0.00  0.00    +0.000 C 
ATOM     11  C   UNL     1      46.153   3.663   7.366  0.00  0.00    +0.000 C 
ATOM     12  C   UNL     1      46.479   2.258   7.887  0.00  0.00    +0.000 C 
ATOM     13  C   UNL     1      45.363   1.736   8.795  0.00  0.00    +0.000 C 
ATOM     14  C   UNL     1      45.067   2.709   9.929  0.00  0.00    +0.000 C 
BRANCH  12  15
ATOM     15  N   UNL     1      46.686   1.338   6.770  0.00  0.00    +0.000 NA
ATOM     16  H   UNL     1      47.659   1.032   6.750  0.00  0.00    +0.000 HD
ATOM     17  H   UNL     1      46.534   1.832   5.890  0.00  0.00    +0.000 HD
ENDBRANCH  12  15
ENDBRANCH   8   9
ENDBRANCH   5   8
ENDBRANCH   1   2
BRANCH   1  19
ATOM     18  C   UNL     1      47.411   8.877  14.633  0.00  0.00    +0.000 C 
ATOM     19  N   UNL     1      48.483   7.912  14.851  0.00  0.00    +0.000 N 
ATOM     20  C   UNL     1      48.948   7.797  16.174  0.00  0.00    +0.000 C 
ATOM     21  O   UNL     1      48.477   8.492  17.071  0.00  0.00    +0.000 OA
BRANCH  20  22
ATOM     22  C   UNL     1      50.039   6.858  16.480  0.00  0.00    +0.000 A 
ATOM     23  C   UNL     1      51.382   7.198  16.540  0.00  0.00    +0.000 A 
ATOM     24  S   UNL     1      52.401   5.901  16.976  0.00  0.00    +0.000 S 
ATOM     25  C   UNL     1      51.069   4.884  17.255  0.00  0.00    +0.000 A 
ATOM     26  N   UNL     1      51.238   3.640  17.772  0.00  0.00    +0.000 NA
ATOM     27  C   UNL     1      50.134   3.010  18.001  0.00  0.00    +0.000 A 
ATOM     28  N   UNL     1      48.880   3.495  17.717  0.00  0.00    +0.000 N 
ATOM     29  C   UNL     1      48.668   4.688  17.055  0.00  0.00    +0.000 A 
ATOM     30  O   UNL     1      47.574   4.964  16.589  0.00  0.00    +0.000 OA
ATOM     31  C   UNL     1      49.872   5.492  16.909  0.00  0.00    +0.000 A 
ATOM     32  H   UNL     1      48.064   2.922  17.854  0.00  0.00    +0.000 HD
ENDBRANCH  20  22
ENDBRANCH   1  19
TORSDOF 6
ENDMDL
MODEL 4
REMARK VINA RESULT:    -7.245      2.424      3.599
REMARK INTER + INTRA:          -9.995
REMARK INTER:                  -9.175
REMARK INTRA:                  -0.821
REMARK UNBOUND:                -0.421
REMARK  Name = 
REMARK  7 active torsions:
REMARK  status: ('A' for Active; 'I' for Inactive)
REMARK    1  A    between atoms: C_1  and  N_2
REMARK    2  A    between atoms: N_2  and  C_3
REMARK    3  A    between atoms: C_3  and  C_4
REMARK    4  A    between atoms: C_7  and  C_8
REMARK    5  A    between atoms: C_8  and  C_9
REMARK    6  A    between atoms: C_12  and  N_13
REMARK    7  A    between atoms: C_18  and  C_20
REMARK                            x       y       z     vdW  Elec       q    Type
REMARK                         _______ _______ _______ _____ _____    ______ ____
ROOT
ATOM      1  C   UNL     1      49.208   6.773  15.078  0.00  0.00    +0.000 C 
ENDROOT
BRANCH   1   2
ATOM      2  C   UNL     1      48.043   6.659  14.137  0.00  0.00    +0.000 A 
ATOM      3  C   UNL     1      47.233   5.513  14.145  0.00  0.00    +0.000 A 
ATOM      4  C   UNL     1      46.082   5.459  13.362  0.00  0.00    +0.000 A 
ATOM      5  C   UNL     1      45.721   6.555  12.574  0.00  0.00    +0.000 A 
ATOM      6  C   UNL     1      46.566   7.671  12.517  0.00  0.00    +0.000 A 
ATOM      7  C   UNL     1      47.724   7.721  13.289  0.00  0.00    +0.000 A 
BRANCH   5   8
ATOM      8  C   UNL     1      44.445   6.553  11.774  0.00  0.00    +0.000 C 
BRANCH   8   9
ATOM      9  C   UNL     1      44.273   5.366  10.804  0.00  0.00    +0.000 C 
ATOM     10  C   UNL     1      45.477   5.137   9.870  0.00  0.00    +0.000 C 
ATOM     11  C   UNL     1      45.259   3.906   8.980  0.00  0.00    +0.000 C 
ATOM     12  C   UNL     1      44.990   2.652   9.819  0.00  0.00    +0.000 C 
ATOM     13  C   UNL     1      43.810   2.869  10.770  0.00  0.00    +0.000 C 
ATOM     14  C   UNL     1      44.016   4.102  11.640  0.00  0.00    +0.000 C 
BRANCH  12  15
ATOM     15  N   UNL     1      44.727   1.506   8.950  0.00  0.00    +0.000 NA
ATOM     16  H   UNL     1      44.344   0.737   9.499  0.00  0.00    +0.000 HD
ATOM     17  H   UNL     1      45.609   1.161   8.568  0.00  0.00    +0.000 HD
ENDBRANCH  12  15
ENDBRANCH   8   9
ENDBRANCH   5   8
ENDBRANCH   1   2
BRANCH   1  19
ATOM     18  C   UNL     1      49.063   8.939  16.386  0.00  0.00    +0.000 C 
ATOM     19  N   UNL     1      49.021   7.481  16.341  0.00  0.00    +0.000 N 
ATOM     20  C   UNL     1      48.588   6.842  17.517  0.00  0.00    +0.000 C 
ATOM     21  O   UNL     1      48.287   7.491  18.516  0.00  0.00    +0.000 OA
BRANCH  20  22
ATOM     22  C   UNL     1      48.531   5.372  17.564  0.00  0.00    +0.000 A 
ATOM     23  C   UNL     1      47.375   4.620  17.421  0.00  0.00    +0.000 A 
ATOM     24  S   UNL     1      47.641   2.935  17.464  0.00  0.00    +0.000 S 
ATOM     25  C   UNL     1      49.325   3.152  17.512  0.00  0.00    +0.000 A 
ATOM     26  N   UNL     1      50.167   2.089  17.443  0.00  0.00    +0.000 NA
ATOM     27  C   UNL     1      51.418   2.409  17.416  0.00  0.00    +0.000 A 
ATOM     28  N   UNL     1      51.902   3.693  17.496  0.00  0.00    +0.000 N 
ATOM     29  C   UNL     1      51.092   4.788  17.718  0.00  0.00    +0.000 A 
ATOM     30  O   UNL     1      51.565   5.866  18.043  0.00  0.00    +0.000 OA
ATOM     31  C   UNL     1      49.672   4.491  17.612  0.00  0.00    +0.000 A 
ATOM     32  H   UNL     1      52.892   3.867  17.542  0.00  0.00    +0.000 HD
ENDBRANCH  20  22
ENDBRANCH   1  19
TORSDOF 6
ENDMDL
MODEL 5
REMARK VINA RESULT:    -7.158      2.645      3.947
REMARK INTER + INTRA:          -9.880
REMARK INTER:                  -8.452
REMARK INTRA:                  -1.428
REMARK UNBOUND:                -0.421
REMARK  Name = 
REMARK  7 active torsions:
REMARK  status: ('A' for Active; 'I' for Inactive)
REMARK    1  A    between atoms: C_1  and  N_2
REMARK    2  A    between atoms: N_2  and  C_3
REMARK    3  A    between atoms: C_3  and  C_4
REMARK    4  A    between atoms: C_7  and  C_8
REMARK    5  A    between atoms: C_8  and  C_9
REMARK    6  A    between atoms: C_12  and  N_13
REMARK    7  A    between atoms: C_18  and  C_20
REMARK                            x       y       z     vdW  Elec       q    Type
REMARK                         _______ _______ _______ _____ _____    ______ ____
ROOT
ATOM      1  C   UNL     1      49.845   8.394  15.585  0.00  0.00    +0.000 C 
ENDROOT
BRANCH   1   2
ATOM      2  C   UNL     1      48.874   8.075  14.484  0.00  0.00    +0.000 A 
ATOM      3  C   UNL     1      49.125   7.015  13.599  0.00  0.00    +0.000 A 
ATOM      4  C   UNL     1      48.168   6.643  12.658  0.00  0.00    +0.000 A 
ATOM      5  C   UNL     1      46.944   7.315  12.601  0.00  0.00    +0.000 A 
ATOM      6  C   UNL     1      46.722   8.415  13.441  0.00  0.00    +0.000 A 
ATOM      7  C   UNL     1      47.684   8.797  14.373  0.00  0.00    +0.000 A 
BRANCH   5   8
ATOM      8  C   UNL     1      45.864   6.887  11.644  0.00  0.00    +0.000 C 
BRANCH   8   9
ATOM      9  C   UNL     1      45.350   5.445  11.827  0.00  0.00    +0.000 C 
ATOM     10  C   UNL     1      44.133   5.324  12.765  0.00  0.00    +0.000 C 
ATOM     11  C   UNL     1      43.642   3.874  12.849  0.00  0.00    +0.000 C 
ATOM     12  C   UNL     1      43.300   3.319  11.462  0.00  0.00    +0.000 C 
ATOM     13  C   UNL     1      44.491   3.451  10.509  0.00  0.00    +0.000 C 
ATOM     14  C   UNL     1      44.993   4.887  10.440  0.00  0.00    +0.000 C 
BRANCH  12  15
ATOM     15  N   UNL     1      42.891   1.919  11.561  0.00  0.00    +0.000 NA
ATOM     16  H   UNL     1      42.282   1.793  12.369  0.00  0.00    +0.000 HD
ATOM     17  H   UNL     1      43.711   1.338  11.739  0.00  0.00    +0.000 HD
ENDBRANCH  12  15
ENDBRANCH   8   9
ENDBRANCH   5   8
ENDBRANCH   1   2
BRANCH   1  19
ATOM     18  C   UNL     1      52.286   7.791  15.274  0.00  0.00    +0.000 C 
ATOM     19  N   UNL     1      50.965   7.487  15.814  0.00  0.00    +0.000 N 
ATOM     20  C   UNL     1      50.903   6.410  16.717  0.00  0.00    +0.000 C 
ATOM     21  O   UNL     1      51.910   5.768  17.005  0.00  0.00    +0.000 OA
BRANCH  20  22
ATOM     22  C   UNL     1      49.607   6.025  17.297  0.00  0.00    +0.000 A 
ATOM     23  C   UNL     1      48.790   5.017  16.809  0.00  0.00    +0.000 A 
ATOM     24  S   UNL     1      47.377   4.769  17.733  0.00  0.00    +0.000 S 
ATOM     25  C   UNL     1      47.887   5.888  18.904  0.00  0.00    +0.000 A 
ATOM     26  N   UNL     1      47.179   6.070  20.049  0.00  0.00    +0.000 NA
ATOM     27  C   UNL     1      47.725   6.895  20.880  0.00  0.00    +0.000 A 
ATOM     28  N   UNL     1      48.890   7.587  20.648  0.00  0.00    +0.000 N 
ATOM     29  C   UNL     1      49.560   7.547  19.443  0.00  0.00    +0.000 A 
ATOM     30  O   UNL     1      50.431   8.361  19.179  0.00  0.00    +0.000 OA
ATOM     31  C   UNL     1      49.062   6.524  18.535  0.00  0.00    +0.000 A 
ATOM     32  H   UNL     1      49.221   8.270  21.309  0.00  0.00    +0.000 HD
ENDBRANCH  20  22
ENDBRANCH   1  19
TORSDOF 6
ENDMDL
MODEL 6
REMARK VINA RESULT:    -6.838      2.395      2.999
REMARK INTER + INTRA:          -9.458
REMARK INTER:                  -8.827
REMARK INTRA:                  -0.631
REMARK UNBOUND:                -0.421
REMARK  Name = 
REMARK  7 active torsions:
REMARK  status: ('A' for Active; 'I' for Inactive)
REMARK    1  A    between atoms: C_1  and  N_2
REMARK    2  A    between atoms: N_2  and  C_3
REMARK    3  A    between atoms: C_3  and  C_4
REMARK    4  A    between atoms: C_7  and  C_8
REMARK    5  A    between atoms: C_8  and  C_9
REMARK    6  A    between atoms: C_12  and  N_13
REMARK    7  A    between atoms: C_18  and  C_20
REMARK                            x       y       z     vdW  Elec       q    Type
REMARK                         _______ _______ _______ _____ _____    ______ ____
ROOT
ATOM      1  C   UNL     1      48.701   6.910  13.773  0.00  0.00    +0.000 C 
ENDROOT
BRANCH   1   2
ATOM      2  C   UNL     1      47.649   6.293  12.895  0.00  0.00    +0.000 A 
ATOM      3  C   UNL     1      46.903   5.194  13.346  0.00  0.00    +0.000 A 
ATOM      4  C   UNL     1      45.846   4.701  12.583  0.00  0.00    +0.000 A 
ATOM      5  C   UNL     1      45.515   5.310  11.370  0.00  0.00    +0.000 A 
ATOM      6  C   UNL     1      46.303   6.365  10.891  0.00  0.00    +0.000 A 
ATOM      7  C   UNL     1      47.368   6.850  11.646  0.00  0.00    +0.000 A 
BRANCH   5   8
ATOM      8  C   UNL     1      44.334   4.845  10.561  0.00  0.00    +0.000 C 
BRANCH   8   9
ATOM      9  C   UNL     1      44.671   3.967   9.339  0.00  0.00    +0.000 C 
ATOM     10  C   UNL     1      45.793   4.534   8.448  0.00  0.00    +0.000 C 
ATOM     11  C   UNL     1      46.114   3.579   7.291  0.00  0.00    +0.000 C 
ATOM     12  C   UNL     1      46.497   2.187   7.806  0.00  0.00    +0.000 C 
ATOM     13  C   UNL     1      45.403   1.617   8.712  0.00  0.00    +0.000 C 
ATOM     14  C   UNL     1      45.068   2.573   9.850  0.00  0.00    +0.000 C 
BRANCH  12  15
ATOM     15  N   UNL     1      46.741   1.280   6.686  0.00  0.00    +0.000 NA
ATOM     16  H   UNL     1      47.726   1.014   6.665  0.00  0.00    +0.000 HD
ATOM     17  H   UNL     1      46.569   1.771   5.808  0.00  0.00    +0.000 HD
ENDBRANCH  12  15
ENDBRANCH   8   9
ENDBRANCH   5   8
ENDBRANCH   1   2
BRANCH   1  19
ATOM     18  C   UNL     1      47.353   9.011  14.208  0.00  0.00    +0.000 C 
ATOM     19  N   UNL     1      48.321   8.013  14.650  0.00  0.00    +0.000 N 
ATOM     20  C   UNL     1      48.683   8.067  16.009  0.00  0.00    +0.000 C 
ATOM     21  O   UNL     1      48.213   8.922  16.755  0.00  0.00    +0.000 OA
BRANCH  20  22
ATOM     22  C   UNL     1      49.666   7.107  16.535  0.00  0.00    +0.000 A 
ATOM     23  C   UNL     1      49.349   5.952  17.234  0.00  0.00    +0.000 A 
ATOM     24  S   UNL     1      50.707   5.013  17.663  0.00  0.00    +0.000 S 
ATOM     25  C   UNL     1      51.749   6.032  16.791  0.00  0.00    +0.000 A 
ATOM     26  N   UNL     1      53.064   5.726  16.646  0.00  0.00    +0.000 NA
ATOM     27  C   UNL     1      53.718   6.550  15.897  0.00  0.00    +0.000 A 
ATOM     28  N   UNL     1      53.184   7.677  15.318  0.00  0.00    +0.000 N 
ATOM     29  C   UNL     1      51.896   8.107  15.560  0.00  0.00    +0.000 A 
ATOM     30  O   UNL     1      51.538   9.232  15.248  0.00  0.00    +0.000 OA
ATOM     31  C   UNL     1      51.085   7.135  16.278  0.00  0.00    +0.000 A 
ATOM     32  H   UNL     1      53.768   8.315  14.804  0.00  0.00    +0.000 HD
ENDBRANCH  20  22
ENDBRANCH   1  19
TORSDOF 6
ENDMDL
MODEL 7
REMARK VINA RESULT:    -5.902      2.962      4.738
REMARK INTER + INTRA:          -8.221
REMARK INTER:                  -7.122
REMARK INTRA:                  -1.098
REMARK UNBOUND:                -0.421
REMARK  Name = 
REMARK  7 active torsions:
REMARK  status: ('A' for Active; 'I' for Inactive)
REMARK    1  A    between atoms: C_1  and  N_2
REMARK    2  A    between atoms: N_2  and  C_3
REMARK    3  A    between atoms: C_3  and  C_4
REMARK    4  A    between atoms: C_7  and  C_8
REMARK    5  A    between atoms: C_8  and  C_9
REMARK    6  A    between atoms: C_12  and  N_13
REMARK    7  A    between atoms: C_18  and  C_20
REMARK                            x       y       z     vdW  Elec       q    Type
REMARK                         _______ _______ _______ _____ _____    ______ ____
ROOT
ATOM      1  C   UNL     1      48.651   4.293  17.686  0.00  0.00    +0.000 C 
ENDROOT
BRANCH   1   2
ATOM      2  C   UNL     1      48.118   4.727  16.351  0.00  0.00    +0.000 A 
ATOM      3  C   UNL     1      47.154   3.954  15.685  0.00  0.00    +0.000 A 
ATOM      4  C   UNL     1      46.571   4.418  14.508  0.00  0.00    +0.000 A 
ATOM      5  C   UNL     1      46.932   5.666  13.993  0.00  0.00    +0.000 A 
ATOM      6  C   UNL     1      47.941   6.405  14.623  0.00  0.00    +0.000 A 
ATOM      7  C   UNL     1      48.536   5.936  15.792  0.00  0.00    +0.000 A 
BRANCH   5   8
ATOM      8  C   UNL     1      46.265   6.224  12.764  0.00  0.00    +0.000 C 
BRANCH   8   9
ATOM      9  C   UNL     1      45.945   5.198  11.659  0.00  0.00    +0.000 C 
ATOM     10  C   UNL     1      44.563   4.530  11.801  0.00  0.00    +0.000 C 
ATOM     11  C   UNL     1      44.291   3.570  10.636  0.00  0.00    +0.000 C 
ATOM     12  C   UNL     1      44.398   4.288   9.286  0.00  0.00    +0.000 C 
ATOM     13  C   UNL     1      45.757   4.976   9.135  0.00  0.00    +0.000 C 
ATOM     14  C   UNL     1      46.038   5.914  10.303  0.00  0.00    +0.000 C 
BRANCH  12  15
ATOM     15  N   UNL     1      44.193   3.342   8.190  0.00  0.00    +0.000 NA
ATOM     16  H   UNL     1      44.877   3.514   7.453  0.00  0.00    +0.000 HD
ATOM     17  H   UNL     1      43.281   3.508   7.765  0.00  0.00    +0.000 HD
ENDBRANCH  12  15
ENDBRANCH   8   9
ENDBRANCH   5   8
ENDBRANCH   1   2
BRANCH   1  19
ATOM     18  C   UNL     1      49.986   2.257  16.982  0.00  0.00    +0.000 C 
ATOM     19  N   UNL     1      49.881   3.508  17.726  0.00  0.00    +0.000 N 
ATOM     20  C   UNL     1      51.078   3.992  18.286  0.00  0.00    +0.000 C 
ATOM     21  O   UNL     1      52.131   3.373  18.159  0.00  0.00    +0.000 OA
BRANCH  20  22
ATOM     22  C   UNL     1      51.059   5.239  19.067  0.00  0.00    +0.000 A 
ATOM     23  C   UNL     1      50.725   5.328  20.409  0.00  0.00    +0.000 A 
ATOM     24  S   UNL     1      50.854   6.905  21.048  0.00  0.00    +0.000 S 
ATOM     25  C   UNL     1      51.514   7.491  19.597  0.00  0.00    +0.000 A 
ATOM     26  N   UNL     1      51.967   8.768  19.503  0.00  0.00    +0.000 NA
ATOM     27  C   UNL     1      52.510   9.052  18.366  0.00  0.00    +0.000 A 
ATOM     28  N   UNL     1      52.598   8.188  17.301  0.00  0.00    +0.000 N 
ATOM     29  C   UNL     1      52.020   6.935  17.300  0.00  0.00    +0.000 A 
ATOM     30  O   UNL     1      51.890   6.303  16.264  0.00  0.00    +0.000 OA
ATOM     31  C   UNL     1      51.526   6.523  18.605  0.00  0.00    +0.000 A 
ATOM     32  H   UNL     1      52.970   8.498  16.418  0.00  0.00    +0.000 HD
ENDBRANCH  20  22
ENDBRANCH   1  19
TORSDOF 6
ENDMDL
MODEL 8
REMARK VINA RESULT:    -5.664     10.148     11.473
REMARK INTER + INTRA:          -7.905
REMARK INTER:                  -6.645
REMARK INTRA:                  -1.260
REMARK UNBOUND:                -0.421
REMARK  Name = 
REMARK  7 active torsions:
REMARK  status: ('A' for Active; 'I' for Inactive)
REMARK    1  A    between atoms: C_1  and  N_2
REMARK    2  A    between atoms: N_2  and  C_3
REMARK    3  A    between atoms: C_3  and  C_4
REMARK    4  A    between atoms: C_7  and  C_8
REMARK    5  A    between atoms: C_8  and  C_9
REMARK    6  A    between atoms: C_12  and  N_13
REMARK    7  A    between atoms: C_18  and  C_20
REMARK                            x       y       z     vdW  Elec       q    Type
REMARK                         _______ _______ _______ _____ _____    ______ ____
ROOT
ATOM      1  C   UNL     1      40.024  -1.413  19.113  0.00  0.00    +0.000 C 
ENDROOT
BRANCH   1   2
ATOM      2  C   UNL     1      40.372  -2.167  17.862  0.00  0.00    +0.000 A 
ATOM      3  C   UNL     1      40.503  -3.564  17.886  0.00  0.00    +0.000 A 
ATOM      4  C   UNL     1      40.704  -4.273  16.704  0.00  0.00    +0.000 A 
ATOM      5  C   UNL     1      40.762  -3.596  15.483  0.00  0.00    +0.000 A 
ATOM      6  C   UNL     1      40.697  -2.196  15.469  0.00  0.00    +0.000 A 
ATOM      7  C   UNL     1      40.510  -1.485  16.651  0.00  0.00    +0.000 A 
BRANCH   5   8
ATOM      8  C   UNL     1      40.904  -4.342  14.184  0.00  0.00    +0.000 C 
BRANCH   8   9
ATOM      9  C   UNL     1      40.101  -3.769  12.999  0.00  0.00    +0.000 C 
ATOM     10  C   UNL     1      40.902  -2.803  12.105  0.00  0.00    +0.000 C 
ATOM     11  C   UNL     1      40.059  -2.323  10.916  0.00  0.00    +0.000 C 
ATOM     12  C   UNL     1      39.538  -3.504  10.089  0.00  0.00    +0.000 C 
ATOM     13  C   UNL     1      38.759  -4.488  10.965  0.00  0.00    +0.000 C 
ATOM     14  C   UNL     1      39.587  -4.948  12.158  0.00  0.00    +0.000 C 
BRANCH  12  15
ATOM     15  N   UNL     1      38.691  -3.027   8.998  0.00  0.00    +0.000 NA
ATOM     16  H   UNL     1      39.181  -2.305   8.470  0.00  0.00    +0.000 HD
ATOM     17  H   UNL     1      37.864  -2.572   9.386  0.00  0.00    +0.000 HD
ENDBRANCH  12  15
ENDBRANCH   8   9
ENDBRANCH   5   8
ENDBRANCH   1   2
BRANCH   1  19
ATOM     18  C   UNL     1      38.512  -2.477  20.846  0.00  0.00    +0.000 C 
ATOM     19  N   UNL     1      38.699  -1.599  19.696  0.00  0.00    +0.000 N 
ATOM     20  C   UNL     1      37.591  -0.809  19.341  0.00  0.00    +0.000 C 
ATOM     21  O   UNL     1      36.534  -0.883  19.964  0.00  0.00    +0.000 OA
BRANCH  20  22
ATOM     22  C   UNL     1      37.687   0.094  18.182  0.00  0.00    +0.000 A 
ATOM     23  C   UNL     1      37.159  -0.169  16.928  0.00  0.00    +0.000 A 
ATOM     24  S   UNL     1      37.383   1.098  15.807  0.00  0.00    +0.000 S 
ATOM     25  C   UNL     1      38.048   2.104  17.003  0.00  0.00    +0.000 A 
ATOM     26  N   UNL     1      38.354   3.399  16.733  0.00  0.00    +0.000 NA
ATOM     27  C   UNL     1      38.781   4.064  17.755  0.00  0.00    +0.000 A 
ATOM     28  N   UNL     1      38.972   3.536  19.010  0.00  0.00    +0.000 N 
ATOM     29  C   UNL     1      38.819   2.194  19.292  0.00  0.00    +0.000 A 
ATOM     30  O   UNL     1      39.243   1.717  20.333  0.00  0.00    +0.000 OA
ATOM     31  C   UNL     1      38.203   1.440  18.210  0.00  0.00    +0.000 A 
ATOM     32  H   UNL     1      39.377   4.093  19.744  0.00  0.00    +0.000 HD
ENDBRANCH  20  22
ENDBRANCH   1  19
TORSDOF 6
ENDMDL
MODEL 9
REMARK VINA RESULT:    -5.537     10.927     12.473
REMARK INTER + INTRA:          -7.738
REMARK INTER:                  -6.556
REMARK INTRA:                  -1.182
REMARK UNBOUND:                -0.421
REMARK  Name = 
REMARK  7 active torsions:
REMARK  status: ('A' for Active; 'I' for Inactive)
REMARK    1  A    between atoms: C_1  and  N_2
REMARK    2  A    between atoms: N_2  and  C_3
REMARK    3  A    between atoms: C_3  and  C_4
REMARK    4  A    between atoms: C_7  and  C_8
REMARK    5  A    between atoms: C_8  and  C_9
REMARK    6  A    between atoms: C_12  and  N_13
REMARK    7  A    between atoms: C_18  and  C_20
REMARK                            x       y       z     vdW  Elec       q    Type
REMARK                         _______ _______ _______ _____ _____    ______ ____
ROOT
ATOM      1  C   UNL     1      39.685  -0.953  16.273  0.00  0.00    +0.000 C 
ENDROOT
BRANCH   1   2
ATOM      2  C   UNL     1      40.375  -2.140  16.883  0.00  0.00    +0.000 A 
ATOM      3  C   UNL     1      41.144  -3.002  16.086  0.00  0.00    +0.000 A 
ATOM      4  C   UNL     1      41.883  -4.028  16.670  0.00  0.00    +0.000 A 
ATOM      5  C   UNL     1      41.872  -4.196  18.057  0.00  0.00    +0.000 A 
ATOM      6  C   UNL     1      41.052  -3.376  18.844  0.00  0.00    +0.000 A 
ATOM      7  C   UNL     1      40.302  -2.358  18.260  0.00  0.00    +0.000 A 
BRANCH   5   8
ATOM      8  C   UNL     1      42.717  -5.250  18.721  0.00  0.00    +0.000 C 
BRANCH   8   9
ATOM      9  C   UNL     1      44.032  -5.600  17.995  0.00  0.00    +0.000 C 
ATOM     10  C   UNL     1      45.304  -5.241  18.788  0.00  0.00    +0.000 C 
ATOM     11  C   UNL     1      46.567  -5.674  18.032  0.00  0.00    +0.000 C 
ATOM     12  C   UNL     1      46.542  -7.173  17.717  0.00  0.00    +0.000 C 
ATOM     13  C   UNL     1      45.274  -7.553  16.948  0.00  0.00    +0.000 C 
ATOM     14  C   UNL     1      44.019  -7.106  17.688  0.00  0.00    +0.000 C 
BRANCH  12  15
ATOM     15  N   UNL     1      47.725  -7.550  16.946  0.00  0.00    +0.000 NA
ATOM     16  H   UNL     1      47.479  -7.646  15.960  0.00  0.00    +0.000 HD
ATOM     17  H   UNL     1      48.043  -8.473  17.242  0.00  0.00    +0.000 HD
ENDBRANCH  12  15
ENDBRANCH   8   9
ENDBRANCH   5   8
ENDBRANCH   1   2
BRANCH   1  19
ATOM     18  C   UNL     1      38.038  -1.903  14.598  0.00  0.00    +0.000 C 
ATOM     19  N   UNL     1      38.316  -1.111  15.792  0.00  0.00    +0.000 N 
ATOM     20  C   UNL     1      37.194  -0.708  16.538  0.00  0.00    +0.000 C 
ATOM     21  O   UNL     1      36.056  -1.001  16.177  0.00  0.00    +0.000 OA
BRANCH  20  22
ATOM     22  C   UNL     1      37.383   0.108  17.748  0.00  0.00    +0.000 A 
ATOM     23  C   UNL     1      37.454  -0.395  19.038  0.00  0.00    +0.000 A 
ATOM     24  S   UNL     1      37.736   0.796  20.226  0.00  0.00    +0.000 S 
ATOM     25  C   UNL     1      37.933   1.999  19.043  0.00  0.00    +0.000 A 
ATOM     26  N   UNL     1      38.317   3.256  19.385  0.00  0.00    +0.000 NA
ATOM     27  C   UNL     1      38.500   4.043  18.377  0.00  0.00    +0.000 A 
ATOM     28  N   UNL     1      38.289   3.698  17.064  0.00  0.00    +0.000 N 
ATOM     29  C   UNL     1      37.756   2.484  16.683  0.00  0.00    +0.000 A 
ATOM     30  O   UNL     1      37.340   2.307  15.548  0.00  0.00    +0.000 OA
ATOM     31  C   UNL     1      37.673   1.520  17.770  0.00  0.00    +0.000 A 
ATOM     32  H   UNL     1      38.380   4.383  16.332  0.00  0.00    +0.000 HD
ENDBRANCH  20  22
ENDBRANCH   1  19
TORSDOF 6
ENDMDL
