MODEL 1
REMARK VINA RESULT:    -8.954      0.000      0.000
REMARK INTER + INTRA:         -13.308
REMARK INTER:                 -12.356
REMARK INTRA:                  -0.952
REMARK UNBOUND:                -0.952
REMARK  Name = 
REMARK  7 active torsions:
REMARK  status: ('A' for Active; 'I' for Inactive)
REMARK    1  A    between atoms: C_2  and  C_5
REMARK    2  A    between atoms: N_3  and  O_4
REMARK    3  A    between atoms: C_8  and  O_9
REMARK    4  A    between atoms: O_9  and  C_10
REMARK    5  A    between atoms: C_10  and  C_11
REMARK    6  A    between atoms: C_11  and  C_14
REMARK    7  A    between atoms: C_18  and  C_19
REMARK                            x       y       z     vdW  Elec       q    Type
REMARK                         _______ _______ _______ _____ _____    ______ ____
ROOT
ATOM      1  C   UNL     1      43.642   5.314  12.508  0.00  0.00    +0.000 C 
ATOM      2  F   UNL     1      43.286   6.301  11.635  0.00  0.00    +0.000 F 
ATOM      3  F   UNL     1      42.730   5.373  13.523  0.00  0.00    +0.000 F 
ENDROOT
BRANCH   1   4
ATOM      4  C   UNL     1      45.065   5.490  13.012  0.00  0.00    +0.000 A 
ATOM      5  C   UNL     1      45.785   6.651  12.697  0.00  0.00    +0.000 A 
ATOM      6  C   UNL     1      47.071   6.840  13.197  0.00  0.00    +0.000 A 
ATOM      7  C   UNL     1      47.646   5.880  14.030  0.00  0.00    +0.000 A 
ATOM      8  C   UNL     1      46.954   4.711  14.365  0.00  0.00    +0.000 A 
ATOM      9  C   UNL     1      45.664   4.523  13.843  0.00  0.00    +0.000 A 
BRANCH   8  10
ATOM     10  C   UNL     1      47.495   3.743  15.333  0.00  0.00    +0.000 C 
ATOM     11  C   UNL     1      47.498   3.820  16.671  0.00  0.00    +0.000 C 
ATOM     12  C   UNL     1      47.914   2.870  17.769  0.00  0.00    +0.000 C 
ATOM     13  N   UNL     1      47.939   4.054  18.647  0.00  0.00    +0.000 NA
ATOM     14  C   UNL     1      47.096   4.828  17.716  0.00  0.00    +0.000 C 
ATOM     15  H   UNL     1      48.876   4.447  18.722  0.00  0.00    +0.000 HD
ENDBRANCH   8  10
ENDBRANCH   1   4
BRANCH   1  16
ATOM     16  C   UNL     1      43.501   3.952  11.800  0.00  0.00    +0.000 C 
BRANCH  16  17
ATOM     17  O   UNL     1      43.269   4.118  10.390  0.00  0.00    +0.000 OA
BRANCH  17  21
ATOM     18  C   UNL     1      46.069   2.270   8.013  0.00  0.00    +0.000 A 
ATOM     19  C   UNL     1      45.905   3.639   7.834  0.00  0.00    +0.000 A 
ATOM     20  C   UNL     1      44.961   4.304   8.615  0.00  0.00    +0.000 A 
ATOM     21  C   UNL     1      44.214   3.596   9.551  0.00  0.00    +0.000 A 
ATOM     22  C   UNL     1      44.444   2.224   9.647  0.00  0.00    +0.000 A 
ATOM     23  N   UNL     1      45.348   1.535   8.903  0.00  0.00    +0.000 NA
BRANCH  18  25
ATOM     24  O   UNL     1      47.323   0.350   7.346  0.00  0.00    +0.000 OA
ATOM     25  C   UNL     1      47.095   1.549   7.203  0.00  0.00    +0.000 C 
ATOM     26  N   UNL     1      47.756   2.321   6.284  0.00  0.00    +0.000 N 
ATOM     27  H   UNL     1      47.566   3.309   6.146  0.00  0.00    +0.000 HD
BRANCH  26  28
ATOM     28  O   UNL     1      48.712   1.679   5.467  0.00  0.00    +0.000 OA
ATOM     29  H   UNL     1      49.115   2.433   4.988  0.00  0.00    +0.000 HD
ENDBRANCH  26  28
ENDBRANCH  18  25
ENDBRANCH  17  21
ENDBRANCH  16  17
ENDBRANCH   1  16
TORSDOF 7
ENDMDL
MODEL 2
REMARK VINA RESULT:    -8.811      3.217      8.123
REMARK INTER + INTRA:         -13.111
REMARK INTER:                 -12.391
REMARK INTRA:                  -0.720
REMARK UNBOUND:                -0.952
REMARK  Name = 
REMARK  7 active torsions:
REMARK  status: ('A' for Active; 'I' for Inactive)
REMARK    1  A    between atoms: C_2  and  C_5
REMARK    2  A    between atoms: N_3  and  O_4
REMARK    3  A    between atoms: C_8  and  O_9
REMARK    4  A    between atoms: O_9  and  C_10
REMARK    5  A    between atoms: C_10  and  C_11
REMARK    6  A    between atoms: C_11  and  C_14
REMARK    7  A    between atoms: C_18  and  C_19
REMARK                            x       y       z     vdW  Elec       q    Type
REMARK                         _______ _______ _______ _____ _____    ______ ____
ROOT
ATOM      1  C   UNL     1      44.652   6.123  11.325  0.00  0.00    +0.000 C 
ATOM      2  F   UNL     1      43.371   6.587  11.403  0.00  0.00    +0.000 F 
ATOM      3  F   UNL     1      45.372   7.126  10.741  0.00  0.00    +0.000 F 
ENDROOT
BRANCH   1   4
ATOM      4  C   UNL     1      44.739   4.828  10.534  0.00  0.00    +0.000 A 
ATOM      5  C   UNL     1      44.114   3.668  11.012  0.00  0.00    +0.000 A 
ATOM      6  C   UNL     1      44.147   2.491  10.268  0.00  0.00    +0.000 A 
ATOM      7  C   UNL     1      44.792   2.464   9.031  0.00  0.00    +0.000 A 
ATOM      8  C   UNL     1      45.425   3.605   8.524  0.00  0.00    +0.000 A 
ATOM      9  C   UNL     1      45.398   4.781   9.290  0.00  0.00    +0.000 A 
BRANCH   8  10
ATOM     10  C   UNL     1      46.009   3.629   7.173  0.00  0.00    +0.000 C 
ATOM     11  C   UNL     1      46.864   2.756   6.623  0.00  0.00    +0.000 C 
ATOM     12  C   UNL     1      47.450   2.602   5.240  0.00  0.00    +0.000 C 
ATOM     13  N   UNL     1      48.473   1.752   5.876  0.00  0.00    +0.000 NA
ATOM     14  C   UNL     1      47.629   1.537   7.067  0.00  0.00    +0.000 C 
ATOM     15  H   UNL     1      49.314   2.282   6.101  0.00  0.00    +0.000 HD
ENDBRANCH   8  10
ENDBRANCH   1   4
BRANCH   1  16
ATOM     16  C   UNL     1      45.186   5.902  12.753  0.00  0.00    +0.000 C 
BRANCH  16  17
ATOM     17  O   UNL     1      46.578   5.539  12.740  0.00  0.00    +0.000 OA
BRANCH  17  21
ATOM     18  C   UNL     1      48.061   3.887  16.202  0.00  0.00    +0.000 A 
ATOM     19  C   UNL     1      48.128   5.272  16.093  0.00  0.00    +0.000 A 
ATOM     20  C   UNL     1      47.643   5.873  14.932  0.00  0.00    +0.000 A 
ATOM     21  C   UNL     1      47.102   5.086  13.920  0.00  0.00    +0.000 A 
ATOM     22  C   UNL     1      47.089   3.707  14.119  0.00  0.00    +0.000 A 
ATOM     23  N   UNL     1      47.556   3.079  15.230  0.00  0.00    +0.000 NA
BRANCH  18  25
ATOM     24  O   UNL     1      49.578   2.557  17.479  0.00  0.00    +0.000 OA
ATOM     25  C   UNL     1      48.551   3.232  17.450  0.00  0.00    +0.000 C 
ATOM     26  N   UNL     1      47.776   3.444  18.560  0.00  0.00    +0.000 N 
ATOM     27  H   UNL     1      46.934   4.011  18.551  0.00  0.00    +0.000 HD
BRANCH  26  28
ATOM     28  O   UNL     1      48.217   2.876  19.775  0.00  0.00    +0.000 OA
ATOM     29  H   UNL     1      47.519   2.212  19.958  0.00  0.00    +0.000 HD
ENDBRANCH  26  28
ENDBRANCH  18  25
ENDBRANCH  17  21
ENDBRANCH  16  17
ENDBRANCH   1  16
TORSDOF 7
ENDMDL
MODEL 3
REMARK VINA RESULT:    -8.791      2.715      4.062
REMARK INTER + INTRA:         -13.083
REMARK INTER:                 -12.178
REMARK INTRA:                  -0.905
REMARK UNBOUND:                -0.952
REMARK  Name = 
REMARK  7 active torsions:
REMARK  status: ('A' for Active; 'I' for Inactive)
REMARK    1  A    between atoms: C_2  and  C_5
REMARK    2  A    between atoms: N_3  and  O_4
REMARK    3  A    between atoms: C_8  and  O_9
REMARK    4  A    between atoms: O_9  and  C_10
REMARK    5  A    between atoms: C_10  and  C_11
REMARK    6  A    between atoms: C_11  and  C_14
REMARK    7  A    between atoms: C_18  and  C_19
REMARK                            x       y       z     vdW  Elec       q    Type
REMARK                         _______ _______ _______ _____ _____    ______ ____
ROOT
ATOM      1  C   UNL     1      43.298   4.586  12.844  0.00  0.00    +0.000 C 
ATOM      2  F   UNL     1      42.311   5.487  12.566  0.00  0.00    +0.000 F 
ATOM      3  F   UNL     1      42.937   3.996  14.022  0.00  0.00    +0.000 F 
ENDROOT
BRANCH   1   4
ATOM      4  C   UNL     1      44.662   5.250  12.937  0.00  0.00    +0.000 A 
ATOM      5  C   UNL     1      45.821   4.468  13.034  0.00  0.00    +0.000 A 
ATOM      6  C   UNL     1      47.077   5.070  13.068  0.00  0.00    +0.000 A 
ATOM      7  C   UNL     1      47.190   6.458  12.992  0.00  0.00    +0.000 A 
ATOM      8  C   UNL     1      46.052   7.268  12.893  0.00  0.00    +0.000 A 
ATOM      9  C   UNL     1      44.791   6.652  12.874  0.00  0.00    +0.000 A 
BRANCH   8  10
ATOM     10  C   UNL     1      46.155   8.723  12.695  0.00  0.00    +0.000 C 
ATOM     11  C   UNL     1      45.364   9.518  11.960  0.00  0.00    +0.000 C 
ATOM     12  C   UNL     1      45.290  11.012  11.756  0.00  0.00    +0.000 C 
ATOM     13  N   UNL     1      44.506  10.708  10.545  0.00  0.00    +0.000 NA
ATOM     14  C   UNL     1      44.197   9.347  11.023  0.00  0.00    +0.000 C 
ATOM     15  H   UNL     1      45.094  10.691   9.712  0.00  0.00    +0.000 HD
ENDBRANCH   8  10
ENDBRANCH   1   4
BRANCH   1  16
ATOM     16  C   UNL     1      43.313   3.510  11.741  0.00  0.00    +0.000 C 
BRANCH  16  17
ATOM     17  O   UNL     1      43.344   4.106  10.432  0.00  0.00    +0.000 OA
BRANCH  17  21
ATOM     18  C   UNL     1      46.106   2.353   7.940  0.00  0.00    +0.000 A 
ATOM     19  C   UNL     1      45.996   3.737   7.873  0.00  0.00    +0.000 A 
ATOM     20  C   UNL     1      45.066   4.372   8.696  0.00  0.00    +0.000 A 
ATOM     21  C   UNL     1      44.280   3.618   9.562  0.00  0.00    +0.000 A 
ATOM     22  C   UNL     1      44.457   2.235   9.547  0.00  0.00    +0.000 A 
ATOM     23  N   UNL     1      45.346   1.576   8.758  0.00  0.00    +0.000 NA
BRANCH  18  25
ATOM     24  O   UNL     1      47.368   0.466   7.200  0.00  0.00    +0.000 OA
ATOM     25  C   UNL     1      47.115   1.662   7.084  0.00  0.00    +0.000 C 
ATOM     26  N   UNL     1      47.733   2.460   6.157  0.00  0.00    +0.000 N 
ATOM     27  H   UNL     1      47.522   3.446   6.041  0.00  0.00    +0.000 HD
BRANCH  26  28
ATOM     28  O   UNL     1      48.670   1.847   5.297  0.00  0.00    +0.000 OA
ATOM     29  H   UNL     1      48.100   1.516   4.572  0.00  0.00    +0.000 HD
ENDBRANCH  26  28
ENDBRANCH  18  25
ENDBRANCH  17  21
ENDBRANCH  16  17
ENDBRANCH   1  16
TORSDOF 7
ENDMDL
MODEL 4
REMARK VINA RESULT:    -8.435      2.233      2.431
REMARK INTER + INTRA:         -12.592
REMARK INTER:                 -11.471
REMARK INTRA:                  -1.121
REMARK UNBOUND:                -0.952
REMARK  Name = 
REMARK  7 active torsions:
REMARK  status: ('A' for Active; 'I' for Inactive)
REMARK    1  A    between atoms: C_2  and  C_5
REMARK    2  A    between atoms: N_3  and  O_4
REMARK    3  A    between atoms: C_8  and  O_9
REMARK    4  A    between atoms: O_9  and  C_10
REMARK    5  A    between atoms: C_10  and  C_11
REMARK    6  A    between atoms: C_11  and  C_14
REMARK    7  A    between atoms: C_18  and  C_19
REMARK                            x       y       z     vdW  Elec       q    Type
REMARK                         _______ _______ _______ _____ _____    ______ ____
ROOT
ATOM      1  C   UNL     1      43.432   4.497  12.708  0.00  0.00    +0.000 C 
ATOM      2  F   UNL     1      42.177   4.972  12.459  0.00  0.00    +0.000 F 
ATOM      3  F   UNL     1      43.427   4.110  14.017  0.00  0.00    +0.000 F 
ENDROOT
BRANCH   1   4
ATOM      4  C   UNL     1      44.499   5.544  12.430  0.00  0.00    +0.000 A 
ATOM      5  C   UNL     1      44.190   6.679  11.667  0.00  0.00    +0.000 A 
ATOM      6  C   UNL     1      45.148   7.666  11.451  0.00  0.00    +0.000 A 
ATOM      7  C   UNL     1      46.421   7.538  12.007  0.00  0.00    +0.000 A 
ATOM      8  C   UNL     1      46.762   6.418  12.775  0.00  0.00    +0.000 A 
ATOM      9  C   UNL     1      45.793   5.422  12.973  0.00  0.00    +0.000 A 
BRANCH   8  10
ATOM     10  C   UNL     1      48.058   6.320  13.465  0.00  0.00    +0.000 C 
ATOM     11  C   UNL     1      48.588   7.164  14.362  0.00  0.00    +0.000 C 
ATOM     12  C   UNL     1      49.834   7.133  15.212  0.00  0.00    +0.000 C 
ATOM     13  N   UNL     1      49.642   8.586  15.372  0.00  0.00    +0.000 NA
ATOM     14  C   UNL     1      48.227   8.496  14.966  0.00  0.00    +0.000 C 
ATOM     15  H   UNL     1      50.195   9.114  14.698  0.00  0.00    +0.000 HD
ENDBRANCH   8  10
ENDBRANCH   1   4
BRANCH   1  16
ATOM     16  C   UNL     1      43.675   3.255  11.829  0.00  0.00    +0.000 C 
BRANCH  16  17
ATOM     17  O   UNL     1      43.333   3.512  10.456  0.00  0.00    +0.000 OA
BRANCH  17  21
ATOM     18  C   UNL     1      46.292   2.598   7.751  0.00  0.00    +0.000 A 
ATOM     19  C   UNL     1      45.998   3.946   7.920  0.00  0.00    +0.000 A 
ATOM     20  C   UNL     1      44.995   4.300   8.823  0.00  0.00    +0.000 A 
ATOM     21  C   UNL     1      44.322   3.311   9.532  0.00  0.00    +0.000 A 
ATOM     22  C   UNL     1      44.683   1.987   9.284  0.00  0.00    +0.000 A 
ATOM     23  N   UNL     1      45.648   1.597   8.410  0.00  0.00    +0.000 NA
BRANCH  18  25
ATOM     24  O   UNL     1      48.205   1.335   7.080  0.00  0.00    +0.000 OA
ATOM     25  C   UNL     1      47.381   2.205   6.808  0.00  0.00    +0.000 C 
ATOM     26  N   UNL     1      47.389   2.881   5.616  0.00  0.00    +0.000 N 
ATOM     27  H   UNL     1      46.705   3.592   5.374  0.00  0.00    +0.000 HD
BRANCH  26  28
ATOM     28  O   UNL     1      48.377   2.521   4.674  0.00  0.00    +0.000 OA
ATOM     29  H   UNL     1      48.101   3.029   3.882  0.00  0.00    +0.000 HD
ENDBRANCH  26  28
ENDBRANCH  18  25
ENDBRANCH  17  21
ENDBRANCH  16  17
ENDBRANCH   1  16
TORSDOF 7
ENDMDL
MODEL 5
REMARK VINA RESULT:    -7.435      2.678      3.960
REMARK INTER + INTRA:         -11.213
REMARK INTER:                 -10.600
REMARK INTRA:                  -0.613
REMARK UNBOUND:                -0.952
REMARK  Name = 
REMARK  7 active torsions:
REMARK  status: ('A' for Active; 'I' for Inactive)
REMARK    1  A    between atoms: C_2  and  C_5
REMARK    2  A    between atoms: N_3  and  O_4
REMARK    3  A    between atoms: C_8  and  O_9
REMARK    4  A    between atoms: O_9  and  C_10
REMARK    5  A    between atoms: C_10  and  C_11
REMARK    6  A    between atoms: C_11  and  C_14
REMARK    7  A    between atoms: C_18  and  C_19
REMARK                            x       y       z     vdW  Elec       q    Type
REMARK                         _______ _______ _______ _____ _____    ______ ____
ROOT
ATOM      1  C   UNL     1      44.438   6.164  12.230  0.00  0.00    +0.000 C 
ATOM      2  F   UNL     1      44.047   7.022  11.243  0.00  0.00    +0.000 F 
ATOM      3  F   UNL     1      43.623   6.429  13.293  0.00  0.00    +0.000 F 
ENDROOT
BRANCH   1   4
ATOM      4  C   UNL     1      45.906   6.340  12.585  0.00  0.00    +0.000 A 
ATOM      5  C   UNL     1      46.519   5.469  13.497  0.00  0.00    +0.000 A 
ATOM      6  C   UNL     1      47.876   5.593  13.787  0.00  0.00    +0.000 A 
ATOM      7  C   UNL     1      48.638   6.578  13.159  0.00  0.00    +0.000 A 
ATOM      8  C   UNL     1      48.057   7.462  12.242  0.00  0.00    +0.000 A 
ATOM      9  C   UNL     1      46.686   7.338  11.968  0.00  0.00    +0.000 A 
BRANCH   8  10
ATOM     10  C   UNL     1      48.866   8.431  11.484  0.00  0.00    +0.000 C 
ATOM     11  C   UNL     1      50.091   8.893  11.769  0.00  0.00    +0.000 C 
ATOM     12  C   UNL     1      51.063   9.789  11.040  0.00  0.00    +0.000 C 
ATOM     13  N   UNL     1      51.726   9.965  12.345  0.00  0.00    +0.000 NA
ATOM     14  C   UNL     1      51.085   8.756  12.894  0.00  0.00    +0.000 C 
ATOM     15  H   UNL     1      51.406  10.810  12.817  0.00  0.00    +0.000 HD
ENDBRANCH   8  10
ENDBRANCH   1   4
BRANCH   1  16
ATOM     16  C   UNL     1      44.181   4.719  11.762  0.00  0.00    +0.000 C 
BRANCH  16  17
ATOM     17  O   UNL     1      43.825   4.678  10.369  0.00  0.00    +0.000 OA
BRANCH  17  21
ATOM     18  C   UNL     1      46.198   2.502   7.810  0.00  0.00    +0.000 A 
ATOM     19  C   UNL     1      45.429   1.778   8.714  0.00  0.00    +0.000 A 
ATOM     20  C   UNL     1      44.615   2.477   9.606  0.00  0.00    +0.000 A 
ATOM     21  C   UNL     1      44.583   3.867   9.570  0.00  0.00    +0.000 A 
ATOM     22  C   UNL     1      45.399   4.502   8.634  0.00  0.00    +0.000 A 
ATOM     23  N   UNL     1      46.211   3.861   7.752  0.00  0.00    +0.000 NA
BRANCH  18  25
ATOM     24  O   UNL     1      47.072   0.541   6.766  0.00  0.00    +0.000 OA
ATOM     25  C   UNL     1      47.054   1.767   6.833  0.00  0.00    +0.000 C 
ATOM     26  N   UNL     1      47.810   2.562   6.011  0.00  0.00    +0.000 N 
ATOM     27  H   UNL     1      47.792   3.577   6.047  0.00  0.00    +0.000 HD
BRANCH  26  28
ATOM     28  O   UNL     1      48.609   1.917   5.043  0.00  0.00    +0.000 OA
ATOM     29  H   UNL     1      49.223   1.392   5.598  0.00  0.00    +0.000 HD
ENDBRANCH  26  28
ENDBRANCH  18  25
ENDBRANCH  17  21
ENDBRANCH  16  17
ENDBRANCH   1  16
TORSDOF 7
ENDMDL
MODEL 6
REMARK VINA RESULT:    -7.301      1.925      2.366
REMARK INTER + INTRA:         -11.028
REMARK INTER:                 -10.450
REMARK INTRA:                  -0.578
REMARK UNBOUND:                -0.952
REMARK  Name = 
REMARK  7 active torsions:
REMARK  status: ('A' for Active; 'I' for Inactive)
REMARK    1  A    between atoms: C_2  and  C_5
REMARK    2  A    between atoms: N_3  and  O_4
REMARK    3  A    between atoms: C_8  and  O_9
REMARK    4  A    between atoms: O_9  and  C_10
REMARK    5  A    between atoms: C_10  and  C_11
REMARK    6  A    between atoms: C_11  and  C_14
REMARK    7  A    between atoms: C_18  and  C_19
REMARK                            x       y       z     vdW  Elec       q    Type
REMARK                         _______ _______ _______ _____ _____    ______ ____
ROOT
ATOM      1  C   UNL     1      44.508   6.094  12.165  0.00  0.00    +0.000 C 
ATOM      2  F   UNL     1      44.008   6.886  11.172  0.00  0.00    +0.000 F 
ATOM      3  F   UNL     1      43.750   6.364  13.268  0.00  0.00    +0.000 F 
ENDROOT
BRANCH   1   4
ATOM      4  C   UNL     1      45.984   6.360  12.412  0.00  0.00    +0.000 A 
ATOM      5  C   UNL     1      46.783   6.897  11.393  0.00  0.00    +0.000 A 
ATOM      6  C   UNL     1      48.125   7.189  11.629  0.00  0.00    +0.000 A 
ATOM      7  C   UNL     1      48.679   6.962  12.890  0.00  0.00    +0.000 A 
ATOM      8  C   UNL     1      47.908   6.427  13.929  0.00  0.00    +0.000 A 
ATOM      9  C   UNL     1      46.561   6.122  13.676  0.00  0.00    +0.000 A 
BRANCH   8  10
ATOM     10  C   UNL     1      48.441   6.289  15.294  0.00  0.00    +0.000 C 
ATOM     11  C   UNL     1      49.621   6.710  15.771  0.00  0.00    +0.000 C 
ATOM     12  C   UNL     1      50.241   6.730  17.147  0.00  0.00    +0.000 C 
ATOM     13  N   UNL     1      51.530   6.911  16.455  0.00  0.00    +0.000 NA
ATOM     14  C   UNL     1      50.863   7.359  15.218  0.00  0.00    +0.000 C 
ATOM     15  H   UNL     1      52.014   6.024  16.323  0.00  0.00    +0.000 HD
ENDBRANCH   8  10
ENDBRANCH   1   4
BRANCH   1  16
ATOM     16  C   UNL     1      44.299   4.619  11.774  0.00  0.00    +0.000 C 
BRANCH  16  17
ATOM     17  O   UNL     1      43.841   4.498  10.416  0.00  0.00    +0.000 OA
BRANCH  17  21
ATOM     18  C   UNL     1      46.218   2.475   7.738  0.00  0.00    +0.000 A 
ATOM     19  C   UNL     1      45.553   1.706   8.686  0.00  0.00    +0.000 A 
ATOM     20  C   UNL     1      44.742   2.352   9.619  0.00  0.00    +0.000 A 
ATOM     21  C   UNL     1      44.610   3.737   9.579  0.00  0.00    +0.000 A 
ATOM     22  C   UNL     1      45.326   4.420   8.597  0.00  0.00    +0.000 A 
ATOM     23  N   UNL     1      46.131   3.831   7.673  0.00  0.00    +0.000 NA
BRANCH  18  25
ATOM     24  O   UNL     1      47.164   0.572   6.649  0.00  0.00    +0.000 OA
ATOM     25  C   UNL     1      47.068   1.795   6.717  0.00  0.00    +0.000 C 
ATOM     26  N   UNL     1      47.728   2.635   5.858  0.00  0.00    +0.000 N 
ATOM     27  H   UNL     1      47.645   3.646   5.895  0.00  0.00    +0.000 HD
BRANCH  26  28
ATOM     28  O   UNL     1      48.517   2.040   4.850  0.00  0.00    +0.000 OA
ATOM     29  H   UNL     1      49.191   1.559   5.372  0.00  0.00    +0.000 HD
ENDBRANCH  26  28
ENDBRANCH  18  25
ENDBRANCH  17  21
ENDBRANCH  16  17
ENDBRANCH   1  16
TORSDOF 7
ENDMDL
MODEL 7
REMARK VINA RESULT:    -7.207      3.451      4.646
REMARK INTER + INTRA:         -10.898
REMARK INTER:                 -10.445
REMARK INTRA:                  -0.453
REMARK UNBOUND:                -0.952
REMARK  Name = 
REMARK  7 active torsions:
REMARK  status: ('A' for Active; 'I' for Inactive)
REMARK    1  A    between atoms: C_2  and  C_5
REMARK    2  A    between atoms: N_3  and  O_4
REMARK    3  A    between atoms: C_8  and  O_9
REMARK    4  A    between atoms: O_9  and  C_10
REMARK    5  A    between atoms: C_10  and  C_11
REMARK    6  A    between atoms: C_11  and  C_14
REMARK    7  A    between atoms: C_18  and  C_19
REMARK                            x       y       z     vdW  Elec       q    Type
REMARK                         _______ _______ _______ _____ _____    ______ ____
ROOT
ATOM      1  C   UNL     1      45.678   6.134  12.351  0.00  0.00    +0.000 C 
ATOM      2  F   UNL     1      45.031   6.298  13.542  0.00  0.00    +0.000 F 
ATOM      3  F   UNL     1      46.318   4.931  12.441  0.00  0.00    +0.000 F 
ENDROOT
BRANCH   1   4
ATOM      4  C   UNL     1      46.647   7.273  12.072  0.00  0.00    +0.000 A 
ATOM      5  C   UNL     1      46.221   8.603  12.187  0.00  0.00    +0.000 A 
ATOM      6  C   UNL     1      47.117   9.650  11.982  0.00  0.00    +0.000 A 
ATOM      7  C   UNL     1      48.450   9.380  11.674  0.00  0.00    +0.000 A 
ATOM      8  C   UNL     1      48.908   8.062  11.552  0.00  0.00    +0.000 A 
ATOM      9  C   UNL     1      47.993   7.015  11.746  0.00  0.00    +0.000 A 
BRANCH   8  10
ATOM     10  C   UNL     1      50.332   7.755  11.343  0.00  0.00    +0.000 C 
ATOM     11  C   UNL     1      51.373   8.600  11.346  0.00  0.00    +0.000 C 
ATOM     12  C   UNL     1      52.867   8.412  11.253  0.00  0.00    +0.000 C 
ATOM     13  N   UNL     1      52.925   9.842  10.898  0.00  0.00    +0.000 NA
ATOM     14  C   UNL     1      51.581  10.088  11.454  0.00  0.00    +0.000 C 
ATOM     15  H   UNL     1      52.947   9.978   9.889  0.00  0.00    +0.000 HD
ENDBRANCH   8  10
ENDBRANCH   1   4
BRANCH   1  16
ATOM     16  C   UNL     1      44.630   6.050  11.225  0.00  0.00    +0.000 C 
BRANCH  16  17
ATOM     17  O   UNL     1      44.262   4.686  10.956  0.00  0.00    +0.000 OA
BRANCH  17  21
ATOM     18  C   UNL     1      46.193   3.167   7.658  0.00  0.00    +0.000 A 
ATOM     19  C   UNL     1      45.571   2.247   8.495  0.00  0.00    +0.000 A 
ATOM     20  C   UNL     1      44.910   2.719   9.629  0.00  0.00    +0.000 A 
ATOM     21  C   UNL     1      44.881   4.084   9.895  0.00  0.00    +0.000 A 
ATOM     22  C   UNL     1      45.544   4.925   9.001  0.00  0.00    +0.000 A 
ATOM     23  N   UNL     1      46.204   4.508   7.889  0.00  0.00    +0.000 NA
BRANCH  18  25
ATOM     24  O   UNL     1      46.417   2.852   5.302  0.00  0.00    +0.000 OA
ATOM     25  C   UNL     1      46.881   2.680   6.426  0.00  0.00    +0.000 C 
ATOM     26  N   UNL     1      48.070   2.033   6.643  0.00  0.00    +0.000 N 
ATOM     27  H   UNL     1      48.470   1.898   7.566  0.00  0.00    +0.000 HD
BRANCH  26  28
ATOM     28  O   UNL     1      48.779   1.585   5.508  0.00  0.00    +0.000 OA
ATOM     29  H   UNL     1      48.741   2.367   4.918  0.00  0.00    +0.000 HD
ENDBRANCH  26  28
ENDBRANCH  18  25
ENDBRANCH  17  21
ENDBRANCH  16  17
ENDBRANCH   1  16
TORSDOF 7
ENDMDL
MODEL 8
REMARK VINA RESULT:    -6.644      4.450      7.994
REMARK INTER + INTRA:         -10.121
REMARK INTER:                  -9.219
REMARK INTRA:                  -0.902
REMARK UNBOUND:                -0.952
REMARK  Name = 
REMARK  7 active torsions:
REMARK  status: ('A' for Active; 'I' for Inactive)
REMARK    1  A    between atoms: C_2  and  C_5
REMARK    2  A    between atoms: N_3  and  O_4
REMARK    3  A    between atoms: C_8  and  O_9
REMARK    4  A    between atoms: O_9  and  C_10
REMARK    5  A    between atoms: C_10  and  C_11
REMARK    6  A    between atoms: C_11  and  C_14
REMARK    7  A    between atoms: C_18  and  C_19
REMARK                            x       y       z     vdW  Elec       q    Type
REMARK                         _______ _______ _______ _____ _____    ______ ____
ROOT
ATOM      1  C   UNL     1      48.565   8.519  12.233  0.00  0.00    +0.000 C 
ATOM      2  F   UNL     1      48.831   9.709  11.619  0.00  0.00    +0.000 F 
ATOM      3  F   UNL     1      49.502   7.644  11.764  0.00  0.00    +0.000 F 
ENDROOT
BRANCH   1   4
ATOM      4  C   UNL     1      47.150   8.040  11.952  0.00  0.00    +0.000 A 
ATOM      5  C   UNL     1      46.062   8.903  12.151  0.00  0.00    +0.000 A 
ATOM      6  C   UNL     1      44.768   8.487  11.848  0.00  0.00    +0.000 A 
ATOM      7  C   UNL     1      44.547   7.211  11.329  0.00  0.00    +0.000 A 
ATOM      8  C   UNL     1      45.611   6.326  11.117  0.00  0.00    +0.000 A 
ATOM      9  C   UNL     1      46.909   6.750  11.441  0.00  0.00    +0.000 A 
BRANCH   8  10
ATOM     10  C   UNL     1      45.413   5.022  10.464  0.00  0.00    +0.000 C 
ATOM     11  C   UNL     1      44.495   4.085  10.741  0.00  0.00    +0.000 C 
ATOM     12  C   UNL     1      44.116   2.774  10.095  0.00  0.00    +0.000 C 
ATOM     13  N   UNL     1      43.447   2.454  11.370  0.00  0.00    +0.000 NA
ATOM     14  C   UNL     1      43.415   3.874  11.770  0.00  0.00    +0.000 C 
ATOM     15  H   UNL     1      44.048   1.903  11.981  0.00  0.00    +0.000 HD
ENDBRANCH   8  10
ENDBRANCH   1   4
BRANCH   1  16
ATOM     16  C   UNL     1      48.769   8.689  13.751  0.00  0.00    +0.000 C 
BRANCH  16  17
ATOM     17  O   UNL     1      49.799   7.813  14.241  0.00  0.00    +0.000 OA
BRANCH  17  21
ATOM     18  C   UNL     1      48.394   4.894  16.774  0.00  0.00    +0.000 A 
ATOM     19  C   UNL     1      49.494   5.624  17.212  0.00  0.00    +0.000 A 
ATOM     20  C   UNL     1      50.007   6.619  16.381  0.00  0.00    +0.000 A 
ATOM     21  C   UNL     1      49.413   6.864  15.147  0.00  0.00    +0.000 A 
ATOM     22  C   UNL     1      48.322   6.072  14.793  0.00  0.00    +0.000 A 
ATOM     23  N   UNL     1      47.794   5.089  15.569  0.00  0.00    +0.000 NA
BRANCH  18  25
ATOM     24  O   UNL     1      46.763   3.269  17.406  0.00  0.00    +0.000 OA
ATOM     25  C   UNL     1      47.817   3.844  17.664  0.00  0.00    +0.000 C 
ATOM     26  N   UNL     1      48.554   3.566  18.786  0.00  0.00    +0.000 N 
ATOM     27  H   UNL     1      49.434   4.024  19.003  0.00  0.00    +0.000 HD
BRANCH  26  28
ATOM     28  O   UNL     1      48.071   2.554  19.643  0.00  0.00    +0.000 OA
ATOM     29  H   UNL     1      48.877   2.024  19.813  0.00  0.00    +0.000 HD
ENDBRANCH  26  28
ENDBRANCH  18  25
ENDBRANCH  17  21
ENDBRANCH  16  17
ENDBRANCH   1  16
TORSDOF 7
ENDMDL
MODEL 9
REMARK VINA RESULT:    -6.476      4.786      8.277
REMARK INTER + INTRA:          -9.889
REMARK INTER:                  -9.046
REMARK INTRA:                  -0.843
REMARK UNBOUND:                -0.952
REMARK  Name = 
REMARK  7 active torsions:
REMARK  status: ('A' for Active; 'I' for Inactive)
REMARK    1  A    between atoms: C_2  and  C_5
REMARK    2  A    between atoms: N_3  and  O_4
REMARK    3  A    between atoms: C_8  and  O_9
REMARK    4  A    between atoms: O_9  and  C_10
REMARK    5  A    between atoms: C_10  and  C_11
REMARK    6  A    between atoms: C_11  and  C_14
REMARK    7  A    between atoms: C_18  and  C_19
REMARK                            x       y       z     vdW  Elec       q    Type
REMARK                         _______ _______ _______ _____ _____    ______ ____
ROOT
ATOM      1  C   UNL     1      48.283   6.925  14.640  0.00  0.00    +0.000 C 
ATOM      2  F   UNL     1      48.330   7.881  15.613  0.00  0.00    +0.000 F 
ATOM      3  F   UNL     1      49.533   6.897  14.091  0.00  0.00    +0.000 F 
ENDROOT
BRANCH   1   4
ATOM      4  C   UNL     1      47.214   7.226  13.602  0.00  0.00    +0.000 A 
ATOM      5  C   UNL     1      46.699   8.524  13.477  0.00  0.00    +0.000 A 
ATOM      6  C   UNL     1      45.756   8.817  12.495  0.00  0.00    +0.000 A 
ATOM      7  C   UNL     1      45.328   7.820  11.617  0.00  0.00    +0.000 A 
ATOM      8  C   UNL     1      45.823   6.514  11.714  0.00  0.00    +0.000 A 
ATOM      9  C   UNL     1      46.761   6.227  12.717  0.00  0.00    +0.000 A 
BRANCH   8  10
ATOM     10  C   UNL     1      45.472   5.480  10.727  0.00  0.00    +0.000 C 
ATOM     11  C   UNL     1      44.731   4.378  10.908  0.00  0.00    +0.000 C 
ATOM     12  C   UNL     1      44.213   3.307   9.978  0.00  0.00    +0.000 C 
ATOM     13  N   UNL     1      44.009   2.493  11.190  0.00  0.00    +0.000 NA
ATOM     14  C   UNL     1      44.056   3.683  12.062  0.00  0.00    +0.000 C 
ATOM     15  H   UNL     1      44.798   1.870  11.361  0.00  0.00    +0.000 HD
ENDBRANCH   8  10
ENDBRANCH   1   4
BRANCH   1  16
ATOM     16  C   UNL     1      48.005   5.560  15.299  0.00  0.00    +0.000 C 
BRANCH  16  17
ATOM     17  O   UNL     1      48.452   5.540  16.666  0.00  0.00    +0.000 OA
BRANCH  17  21
ATOM     18  C   UNL     1      51.266   2.667  17.524  0.00  0.00    +0.000 A 
ATOM     19  C   UNL     1      51.665   3.992  17.665  0.00  0.00    +0.000 A 
ATOM     20  C   UNL     1      50.743   4.998  17.377  0.00  0.00    +0.000 A 
ATOM     21  C   UNL     1      49.458   4.662  16.966  0.00  0.00    +0.000 A 
ATOM     22  C   UNL     1      49.159   3.306  16.844  0.00  0.00    +0.000 A 
ATOM     23  N   UNL     1      50.026   2.294  17.108  0.00  0.00    +0.000 NA
BRANCH  18  25
ATOM     24  O   UNL     1      53.446   1.769  17.907  0.00  0.00    +0.000 OA
ATOM     25  C   UNL     1      52.233   1.578  17.854  0.00  0.00    +0.000 C 
ATOM     26  N   UNL     1      51.667   0.355  18.101  0.00  0.00    +0.000 N 
ATOM     27  H   UNL     1      50.666   0.189  18.075  0.00  0.00    +0.000 HD
BRANCH  26  28
ATOM     28  O   UNL     1      52.536  -0.701  18.455  0.00  0.00    +0.000 OA
ATOM     29  H   UNL     1      53.262  -0.226  18.911  0.00  0.00    +0.000 HD
ENDBRANCH  26  28
ENDBRANCH  18  25
ENDBRANCH  17  21
ENDBRANCH  16  17
ENDBRANCH   1  16
TORSDOF 7
ENDMDL
