MODEL 1
REMARK VINA RESULT:    -8.132      0.000      0.000
REMARK INTER + INTRA:         -13.820
REMARK INTER:                 -12.173
REMARK INTRA:                  -1.647
REMARK UNBOUND:                -1.647
REMARK  Name = 
REMARK  10 active torsions:
REMARK  status: ('A' for Active; 'I' for Inactive)
REMARK    1  A    between atoms: C_1  and  C_2
REMARK    2  A    between atoms: C_2  and  C_3
REMARK    3  A    between atoms: C_2  and  C_20
REMARK    4  A    between atoms: C_3  and  N_4
REMARK    5  A    between atoms: C_9  and  C_10
REMARK    6  A    between atoms: C_13  and  C_14
REMARK    7  A    between atoms: C_14  and  O_16
REMARK    8  A    between atoms: C_24  and  O_25
REMARK    9  A    between atoms: O_25  and  C_26
REMARK   10  A    between atoms: C_26  and  C_27
REMARK                            x       y       z     vdW  Elec       q    Type
REMARK                         _______ _______ _______ _____ _____    ______ ____
ROOT
ATOM      1  N   UNL     1      44.309   7.528  12.530  0.00  0.00    +0.000 N 
ATOM      2  C   UNL     1      44.023   6.239  12.120  0.00  0.00    +0.000 A 
ATOM      3  N   UNL     1      43.101   5.591  12.838  0.00  0.00    +0.000 NA
ATOM      4  C   UNL     1      42.843   4.321  12.487  0.00  0.00    +0.000 A 
ATOM      5  C   UNL     1      43.457   3.686  11.436  0.00  0.00    +0.000 A 
ATOM      6  C   UNL     1      44.379   4.431  10.731  0.00  0.00    +0.000 A 
ATOM      7  N   UNL     1      44.663   5.706  11.073  0.00  0.00    +0.000 NA
ATOM      8  H   UNL     1      43.533   7.828  13.112  0.00  0.00    +0.000 HD
ENDROOT
BRANCH   6   9
ATOM      9  C   UNL     1      45.130   3.907   9.570  0.00  0.00    +0.000 A 
ATOM     10  C   UNL     1      45.756   4.755   8.634  0.00  0.00    +0.000 A 
ATOM     11  C   UNL     1      46.478   4.242   7.547  0.00  0.00    +0.000 A 
ATOM     12  C   UNL     1      46.583   2.860   7.367  0.00  0.00    +0.000 A 
ATOM     13  C   UNL     1      45.987   2.002   8.291  0.00  0.00    +0.000 A 
ATOM     14  C   UNL     1      45.271   2.521   9.374  0.00  0.00    +0.000 A 
BRANCH  12  15
ATOM     15  C   UNL     1      47.367   2.252   6.254  0.00  0.00    +0.000 C 
ATOM     16  O   UNL     1      47.805   1.120   6.305  0.00  0.00    +0.000 OA
BRANCH  15  17
ATOM     17  O   UNL     1      47.515   3.055   5.181  0.00  0.00    +0.000 OA
ATOM     18  H   UNL     1      48.225   3.715   5.242  0.00  0.00    +0.000 HD
ENDBRANCH  15  17
ENDBRANCH  12  15
ENDBRANCH   6   9
BRANCH   1  19
ATOM     19  C   UNL     1      44.714   8.453  11.480  0.00  0.00    +0.000 C 
BRANCH  19  21
ATOM     20  C   UNL     1      45.680  10.744  11.134  0.00  0.00    +0.000 C 
ATOM     21  C   UNL     1      45.761   9.475  12.008  0.00  0.00    +0.000 C 
BRANCH  21  22
ATOM     22  C   UNL     1      47.186   8.923  12.120  0.00  0.00    +0.000 A 
ATOM     23  C   UNL     1      48.312   9.704  11.813  0.00  0.00    +0.000 A 
ATOM     24  C   UNL     1      49.605   9.219  12.025  0.00  0.00    +0.000 A 
ATOM     25  C   UNL     1      49.801   7.936  12.532  0.00  0.00    +0.000 A 
ATOM     26  C   UNL     1      48.702   7.133  12.809  0.00  0.00    +0.000 A 
ATOM     27  C   UNL     1      47.414   7.605  12.552  0.00  0.00    +0.000 A 
BRANCH  26  28
ATOM     28  O   UNL     1      48.762   5.872  13.334  0.00  0.00    +0.000 OA
BRANCH  28  29
ATOM     29  C   UNL     1      47.839   5.620  14.401  0.00  0.00    +0.000 C 
BRANCH  29  30
ATOM     30  C   UNL     1      46.929   4.433  14.097  0.00  0.00    +0.000 C 
ATOM     31  F   UNL     1      45.647   4.631  14.469  0.00  0.00    +0.000 F 
ATOM     32  F   UNL     1      46.930   4.154  12.771  0.00  0.00    +0.000 F 
ATOM     33  F   UNL     1      47.367   3.320  14.736  0.00  0.00    +0.000 F 
ENDBRANCH  29  30
ENDBRANCH  28  29
ENDBRANCH  26  28
ENDBRANCH  21  22
ENDBRANCH  19  21
ENDBRANCH   1  19
TORSDOF 9
ENDMDL
MODEL 2
REMARK VINA RESULT:    -8.112      1.686      2.274
REMARK INTER + INTRA:         -13.790
REMARK INTER:                 -12.625
REMARK INTRA:                  -1.165
REMARK UNBOUND:                -1.647
REMARK  Name = 
REMARK  10 active torsions:
REMARK  status: ('A' for Active; 'I' for Inactive)
REMARK    1  A    between atoms: C_1  and  C_2
REMARK    2  A    between atoms: C_2  and  C_3
REMARK    3  A    between atoms: C_2  and  C_20
REMARK    4  A    between atoms: C_3  and  N_4
REMARK    5  A    between atoms: C_9  and  C_10
REMARK    6  A    between atoms: C_13  and  C_14
REMARK    7  A    between atoms: C_14  and  O_16
REMARK    8  A    between atoms: C_24  and  O_25
REMARK    9  A    between atoms: O_25  and  C_26
REMARK   10  A    between atoms: C_26  and  C_27
REMARK                            x       y       z     vdW  Elec       q    Type
REMARK                         _______ _______ _______ _____ _____    ______ ____
ROOT
ATOM      1  N   UNL     1      45.367   7.171  13.219  0.00  0.00    +0.000 N 
ATOM      2  C   UNL     1      44.761   6.072  12.638  0.00  0.00    +0.000 A 
ATOM      3  N   UNL     1      43.702   5.581  13.287  0.00  0.00    +0.000 NA
ATOM      4  C   UNL     1      43.128   4.484  12.766  0.00  0.00    +0.000 A 
ATOM      5  C   UNL     1      43.563   3.876  11.615  0.00  0.00    +0.000 A 
ATOM      6  C   UNL     1      44.648   4.458  10.993  0.00  0.00    +0.000 A 
ATOM      7  N   UNL     1      45.247   5.554  11.504  0.00  0.00    +0.000 NA
ATOM      8  H   UNL     1      44.691   7.569  13.864  0.00  0.00    +0.000 HD
ENDROOT
BRANCH   6   9
ATOM      9  C   UNL     1      45.244   3.938   9.744  0.00  0.00    +0.000 A 
ATOM     10  C   UNL     1      45.829   4.783   8.780  0.00  0.00    +0.000 A 
ATOM     11  C   UNL     1      46.405   4.273   7.608  0.00  0.00    +0.000 A 
ATOM     12  C   UNL     1      46.399   2.896   7.369  0.00  0.00    +0.000 A 
ATOM     13  C   UNL     1      45.841   2.038   8.317  0.00  0.00    +0.000 A 
ATOM     14  C   UNL     1      45.272   2.555   9.486  0.00  0.00    +0.000 A 
BRANCH  12  15
ATOM     15  C   UNL     1      47.027   2.288   6.161  0.00  0.00    +0.000 C 
ATOM     16  O   UNL     1      46.805   2.690   5.036  0.00  0.00    +0.000 OA
BRANCH  15  17
ATOM     17  O   UNL     1      47.885   1.283   6.431  0.00  0.00    +0.000 OA
ATOM     18  H   UNL     1      47.499   0.505   6.867  0.00  0.00    +0.000 HD
ENDBRANCH  15  17
ENDBRANCH  12  15
ENDBRANCH   6   9
BRANCH   1  19
ATOM     19  C   UNL     1      45.999   8.107  12.299  0.00  0.00    +0.000 C 
BRANCH  19  21
ATOM     20  C   UNL     1      48.145   7.030  11.567  0.00  0.00    +0.000 C 
ATOM     21  C   UNL     1      47.543   8.116  12.484  0.00  0.00    +0.000 C 
BRANCH  21  22
ATOM     22  C   UNL     1      48.009   7.989  13.938  0.00  0.00    +0.000 A 
ATOM     23  C   UNL     1      47.931   9.062  14.840  0.00  0.00    +0.000 A 
ATOM     24  C   UNL     1      48.259   8.896  16.189  0.00  0.00    +0.000 A 
ATOM     25  C   UNL     1      48.689   7.658  16.660  0.00  0.00    +0.000 A 
ATOM     26  C   UNL     1      48.808   6.591  15.777  0.00  0.00    +0.000 A 
ATOM     27  C   UNL     1      48.523   6.774  14.424  0.00  0.00    +0.000 A 
BRANCH  26  28
ATOM     28  O   UNL     1      49.191   5.324  16.122  0.00  0.00    +0.000 OA
BRANCH  28  29
ATOM     29  C   UNL     1      48.366   4.695  17.112  0.00  0.00    +0.000 C 
BRANCH  29  30
ATOM     30  C   UNL     1      47.805   3.364  16.621  0.00  0.00    +0.000 C 
ATOM     31  F   UNL     1      46.829   2.869  17.411  0.00  0.00    +0.000 F 
ATOM     32  F   UNL     1      47.294   3.489  15.372  0.00  0.00    +0.000 F 
ATOM     33  F   UNL     1      48.785   2.428  16.556  0.00  0.00    +0.000 F 
ENDBRANCH  29  30
ENDBRANCH  28  29
ENDBRANCH  26  28
ENDBRANCH  21  22
ENDBRANCH  19  21
ENDBRANCH   1  19
TORSDOF 9
ENDMDL
MODEL 3
REMARK VINA RESULT:    -7.545      5.113      8.667
REMARK INTER + INTRA:         -12.942
REMARK INTER:                 -11.933
REMARK INTRA:                  -1.008
REMARK UNBOUND:                -1.647
REMARK  Name = 
REMARK  10 active torsions:
REMARK  status: ('A' for Active; 'I' for Inactive)
REMARK    1  A    between atoms: C_1  and  C_2
REMARK    2  A    between atoms: C_2  and  C_3
REMARK    3  A    between atoms: C_2  and  C_20
REMARK    4  A    between atoms: C_3  and  N_4
REMARK    5  A    between atoms: C_9  and  C_10
REMARK    6  A    between atoms: C_13  and  C_14
REMARK    7  A    between atoms: C_14  and  O_16
REMARK    8  A    between atoms: C_24  and  O_25
REMARK    9  A    between atoms: O_25  and  C_26
REMARK   10  A    between atoms: C_26  and  C_27
REMARK                            x       y       z     vdW  Elec       q    Type
REMARK                         _______ _______ _______ _____ _____    ______ ____
ROOT
ATOM      1  N   UNL     1      47.642   5.857  15.465  0.00  0.00    +0.000 N 
ATOM      2  C   UNL     1      48.496   5.734  16.546  0.00  0.00    +0.000 A 
ATOM      3  N   UNL     1      48.457   6.732  17.434  0.00  0.00    +0.000 NA
ATOM      4  C   UNL     1      49.313   6.656  18.466  0.00  0.00    +0.000 A 
ATOM      5  C   UNL     1      50.187   5.614  18.651  0.00  0.00    +0.000 A 
ATOM      6  C   UNL     1      50.147   4.613  17.702  0.00  0.00    +0.000 A 
ATOM      7  N   UNL     1      49.304   4.674  16.650  0.00  0.00    +0.000 NA
ATOM      8  H   UNL     1      46.936   6.538  15.727  0.00  0.00    +0.000 HD
ENDROOT
BRANCH   6   9
ATOM      9  C   UNL     1      51.016   3.417  17.747  0.00  0.00    +0.000 A 
ATOM     10  C   UNL     1      50.560   2.141  17.359  0.00  0.00    +0.000 A 
ATOM     11  C   UNL     1      51.400   1.020  17.392  0.00  0.00    +0.000 A 
ATOM     12  C   UNL     1      52.722   1.150  17.826  0.00  0.00    +0.000 A 
ATOM     13  C   UNL     1      53.201   2.406  18.198  0.00  0.00    +0.000 A 
ATOM     14  C   UNL     1      52.358   3.521  18.159  0.00  0.00    +0.000 A 
BRANCH  12  15
ATOM     15  C   UNL     1      53.676   0.004  17.849  0.00  0.00    +0.000 C 
ATOM     16  O   UNL     1      54.130  -0.449  18.882  0.00  0.00    +0.000 OA
BRANCH  15  17
ATOM     17  O   UNL     1      53.959  -0.504  16.632  0.00  0.00    +0.000 OA
ATOM     18  H   UNL     1      53.693   0.044  15.875  0.00  0.00    +0.000 HD
ENDBRANCH  15  17
ENDBRANCH  12  15
ENDBRANCH   6   9
BRANCH   1  19
ATOM     19  C   UNL     1      47.146   4.608  14.902  0.00  0.00    +0.000 C 
BRANCH  19  21
ATOM     20  C   UNL     1      47.688   6.016  12.896  0.00  0.00    +0.000 C 
ATOM     21  C   UNL     1      47.018   4.704  13.355  0.00  0.00    +0.000 C 
BRANCH  21  22
ATOM     22  C   UNL     1      45.588   4.551  12.826  0.00  0.00    +0.000 A 
ATOM     23  C   UNL     1      44.542   5.379  13.264  0.00  0.00    +0.000 A 
ATOM     24  C   UNL     1      43.270   5.297  12.691  0.00  0.00    +0.000 A 
ATOM     25  C   UNL     1      43.012   4.372  11.681  0.00  0.00    +0.000 A 
ATOM     26  C   UNL     1      44.024   3.519  11.258  0.00  0.00    +0.000 A 
ATOM     27  C   UNL     1      45.278   3.574  11.865  0.00  0.00    +0.000 A 
BRANCH  26  28
ATOM     28  O   UNL     1      43.904   2.591  10.260  0.00  0.00    +0.000 OA
BRANCH  28  29
ATOM     29  C   UNL     1      45.028   2.513   9.374  0.00  0.00    +0.000 C 
BRANCH  29  30
ATOM     30  C   UNL     1      45.069   3.689   8.403  0.00  0.00    +0.000 C 
ATOM     31  F   UNL     1      43.904   4.367   8.333  0.00  0.00    +0.000 F 
ATOM     32  F   UNL     1      46.033   4.573   8.758  0.00  0.00    +0.000 F 
ATOM     33  F   UNL     1      45.364   3.264   7.150  0.00  0.00    +0.000 F 
ENDBRANCH  29  30
ENDBRANCH  28  29
ENDBRANCH  26  28
ENDBRANCH  21  22
ENDBRANCH  19  21
ENDBRANCH   1  19
TORSDOF 9
ENDMDL
MODEL 4
REMARK VINA RESULT:    -7.294      4.713      8.338
REMARK INTER + INTRA:         -12.566
REMARK INTER:                 -11.583
REMARK INTRA:                  -0.983
REMARK UNBOUND:                -1.647
REMARK  Name = 
REMARK  10 active torsions:
REMARK  status: ('A' for Active; 'I' for Inactive)
REMARK    1  A    between atoms: C_1  and  C_2
REMARK    2  A    between atoms: C_2  and  C_3
REMARK    3  A    between atoms: C_2  and  C_20
REMARK    4  A    between atoms: C_3  and  N_4
REMARK    5  A    between atoms: C_9  and  C_10
REMARK    6  A    between atoms: C_13  and  C_14
REMARK    7  A    between atoms: C_14  and  O_16
REMARK    8  A    between atoms: C_24  and  O_25
REMARK    9  A    between atoms: O_25  and  C_26
REMARK   10  A    between atoms: C_26  and  C_27
REMARK                            x       y       z     vdW  Elec       q    Type
REMARK                         _______ _______ _______ _____ _____    ______ ____
ROOT
ATOM      1  N   UNL     1      48.140   7.395  14.683  0.00  0.00    +0.000 N 
ATOM      2  C   UNL     1      48.678   7.093  15.921  0.00  0.00    +0.000 A 
ATOM      3  N   UNL     1      48.489   8.008  16.876  0.00  0.00    +0.000 NA
ATOM      4  C   UNL     1      49.045   7.758  18.073  0.00  0.00    +0.000 A 
ATOM      5  C   UNL     1      49.762   6.620  18.351  0.00  0.00    +0.000 A 
ATOM      6  C   UNL     1      49.890   5.715  17.318  0.00  0.00    +0.000 A 
ATOM      7  N   UNL     1      49.350   5.952  16.104  0.00  0.00    +0.000 NA
ATOM      8  H   UNL     1      47.444   8.118  14.836  0.00  0.00    +0.000 HD
ENDROOT
BRANCH   6   9
ATOM      9  C   UNL     1      50.626   4.438  17.444  0.00  0.00    +0.000 A 
ATOM     10  C   UNL     1      52.004   4.389  17.732  0.00  0.00    +0.000 A 
ATOM     11  C   UNL     1      52.684   3.170  17.863  0.00  0.00    +0.000 A 
ATOM     12  C   UNL     1      51.995   1.965  17.700  0.00  0.00    +0.000 A 
ATOM     13  C   UNL     1      50.626   1.989  17.433  0.00  0.00    +0.000 A 
ATOM     14  C   UNL     1      49.955   3.209  17.307  0.00  0.00    +0.000 A 
BRANCH  12  15
ATOM     15  C   UNL     1      52.652   0.636  17.864  0.00  0.00    +0.000 C 
ATOM     16  O   UNL     1      53.795   0.423  17.511  0.00  0.00    +0.000 OA
BRANCH  15  17
ATOM     17  O   UNL     1      51.880  -0.290  18.468  0.00  0.00    +0.000 OA
ATOM     18  H   UNL     1      52.322  -1.126  18.692  0.00  0.00    +0.000 HD
ENDBRANCH  15  17
ENDBRANCH  12  15
ENDBRANCH   6   9
BRANCH   1  19
ATOM     19  C   UNL     1      47.712   6.256  13.882  0.00  0.00    +0.000 C 
BRANCH  19  21
ATOM     20  C   UNL     1      46.097   7.980  13.033  0.00  0.00    +0.000 C 
ATOM     21  C   UNL     1      46.897   6.719  12.641  0.00  0.00    +0.000 C 
BRANCH  21  22
ATOM     22  C   UNL     1      46.018   5.631  12.016  0.00  0.00    +0.000 A 
ATOM     23  C   UNL     1      45.318   4.700  12.800  0.00  0.00    +0.000 A 
ATOM     24  C   UNL     1      44.437   3.785  12.218  0.00  0.00    +0.000 A 
ATOM     25  C   UNL     1      44.252   3.768  10.838  0.00  0.00    +0.000 A 
ATOM     26  C   UNL     1      44.963   4.656  10.039  0.00  0.00    +0.000 A 
ATOM     27  C   UNL     1      45.874   5.536  10.622  0.00  0.00    +0.000 A 
BRANCH  26  28
ATOM     28  O   UNL     1      44.848   4.756   8.680  0.00  0.00    +0.000 OA
BRANCH  28  29
ATOM     29  C   UNL     1      44.886   3.506   7.980  0.00  0.00    +0.000 C 
BRANCH  29  30
ATOM     30  C   UNL     1      46.249   3.253   7.343  0.00  0.00    +0.000 C 
ATOM     31  F   UNL     1      46.906   2.204   7.881  0.00  0.00    +0.000 F 
ATOM     32  F   UNL     1      46.122   3.016   6.015  0.00  0.00    +0.000 F 
ATOM     33  F   UNL     1      47.047   4.341   7.476  0.00  0.00    +0.000 F 
ENDBRANCH  29  30
ENDBRANCH  28  29
ENDBRANCH  26  28
ENDBRANCH  21  22
ENDBRANCH  19  21
ENDBRANCH   1  19
TORSDOF 9
ENDMDL
MODEL 5
REMARK VINA RESULT:    -7.277      2.536      3.340
REMARK INTER + INTRA:         -12.540
REMARK INTER:                 -11.501
REMARK INTRA:                  -1.039
REMARK UNBOUND:                -1.647
REMARK  Name = 
REMARK  10 active torsions:
REMARK  status: ('A' for Active; 'I' for Inactive)
REMARK    1  A    between atoms: C_1  and  C_2
REMARK    2  A    between atoms: C_2  and  C_3
REMARK    3  A    between atoms: C_2  and  C_20
REMARK    4  A    between atoms: C_3  and  N_4
REMARK    5  A    between atoms: C_9  and  C_10
REMARK    6  A    between atoms: C_13  and  C_14
REMARK    7  A    between atoms: C_14  and  O_16
REMARK    8  A    between atoms: C_24  and  O_25
REMARK    9  A    between atoms: O_25  and  C_26
REMARK   10  A    between atoms: C_26  and  C_27
REMARK                            x       y       z     vdW  Elec       q    Type
REMARK                         _______ _______ _______ _____ _____    ______ ____
ROOT
ATOM      1  N   UNL     1      45.963   5.321  14.133  0.00  0.00    +0.000 N 
ATOM      2  C   UNL     1      45.124   5.186  13.042  0.00  0.00    +0.000 A 
ATOM      3  N   UNL     1      43.861   5.580  13.228  0.00  0.00    +0.000 NA
ATOM      4  C   UNL     1      43.017   5.413  12.196  0.00  0.00    +0.000 A 
ATOM      5  C   UNL     1      43.395   4.887  10.986  0.00  0.00    +0.000 A 
ATOM      6  C   UNL     1      44.722   4.527  10.868  0.00  0.00    +0.000 A 
ATOM      7  N   UNL     1      45.585   4.675  11.895  0.00  0.00    +0.000 NA
ATOM      8  H   UNL     1      45.517   5.980  14.764  0.00  0.00    +0.000 HD
ENDROOT
BRANCH   6   9
ATOM      9  C   UNL     1      45.300   3.949   9.636  0.00  0.00    +0.000 A 
ATOM     10  C   UNL     1      45.879   4.748   8.629  0.00  0.00    +0.000 A 
ATOM     11  C   UNL     1      46.437   4.183   7.474  0.00  0.00    +0.000 A 
ATOM     12  C   UNL     1      46.421   2.797   7.296  0.00  0.00    +0.000 A 
ATOM     13  C   UNL     1      45.870   1.985   8.287  0.00  0.00    +0.000 A 
ATOM     14  C   UNL     1      45.318   2.556   9.438  0.00  0.00    +0.000 A 
BRANCH  12  15
ATOM     15  C   UNL     1      47.031   2.133   6.108  0.00  0.00    +0.000 C 
ATOM     16  O   UNL     1      47.322   0.953   6.096  0.00  0.00    +0.000 OA
BRANCH  15  17
ATOM     17  O   UNL     1      47.197   2.946   5.046  0.00  0.00    +0.000 OA
ATOM     18  H   UNL     1      48.115   3.186   4.837  0.00  0.00    +0.000 HD
ENDBRANCH  15  17
ENDBRANCH  12  15
ENDBRANCH   6   9
BRANCH   1  19
ATOM     19  C   UNL     1      47.364   5.575  13.829  0.00  0.00    +0.000 C 
BRANCH  19  21
ATOM     20  C   UNL     1      48.368   7.641  12.816  0.00  0.00    +0.000 C 
ATOM     21  C   UNL     1      47.735   7.061  14.098  0.00  0.00    +0.000 C 
BRANCH  21  22
ATOM     22  C   UNL     1      48.604   7.283  15.341  0.00  0.00    +0.000 A 
ATOM     23  C   UNL     1      49.177   8.531  15.634  0.00  0.00    +0.000 A 
ATOM     24  C   UNL     1      49.875   8.742  16.825  0.00  0.00    +0.000 A 
ATOM     25  C   UNL     1      50.030   7.705  17.742  0.00  0.00    +0.000 A 
ATOM     26  C   UNL     1      49.503   6.452  17.456  0.00  0.00    +0.000 A 
ATOM     27  C   UNL     1      48.846   6.235  16.245  0.00  0.00    +0.000 A 
BRANCH  26  28
ATOM     28  O   UNL     1      49.564   5.365  18.284  0.00  0.00    +0.000 OA
BRANCH  28  29
ATOM     29  C   UNL     1      50.322   4.261  17.771  0.00  0.00    +0.000 C 
BRANCH  29  30
ATOM     30  C   UNL     1      49.467   3.005  17.628  0.00  0.00    +0.000 C 
ATOM     31  F   UNL     1      50.194   1.878  17.469  0.00  0.00    +0.000 F 
ATOM     32  F   UNL     1      48.681   2.832  18.717  0.00  0.00    +0.000 F 
ATOM     33  F   UNL     1      48.643   3.108  16.556  0.00  0.00    +0.000 F 
ENDBRANCH  29  30
ENDBRANCH  28  29
ENDBRANCH  26  28
ENDBRANCH  21  22
ENDBRANCH  19  21
ENDBRANCH   1  19
TORSDOF 9
ENDMDL
MODEL 6
REMARK VINA RESULT:    -7.160      3.710      8.418
REMARK INTER + INTRA:         -12.365
REMARK INTER:                 -11.390
REMARK INTRA:                  -0.975
REMARK UNBOUND:                -1.647
REMARK  Name = 
REMARK  10 active torsions:
REMARK  status: ('A' for Active; 'I' for Inactive)
REMARK    1  A    between atoms: C_1  and  C_2
REMARK    2  A    between atoms: C_2  and  C_3
REMARK    3  A    between atoms: C_2  and  C_20
REMARK    4  A    between atoms: C_3  and  N_4
REMARK    5  A    between atoms: C_9  and  C_10
REMARK    6  A    between atoms: C_13  and  C_14
REMARK    7  A    between atoms: C_14  and  O_16
REMARK    8  A    between atoms: C_24  and  O_25
REMARK    9  A    between atoms: O_25  and  C_26
REMARK   10  A    between atoms: C_26  and  C_27
REMARK                            x       y       z     vdW  Elec       q    Type
REMARK                         _______ _______ _______ _____ _____    ______ ____
ROOT
ATOM      1  N   UNL     1      46.392   6.336  11.853  0.00  0.00    +0.000 N 
ATOM      2  C   UNL     1      47.434   6.712  12.681  0.00  0.00    +0.000 A 
ATOM      3  N   UNL     1      48.319   7.562  12.152  0.00  0.00    +0.000 NA
ATOM      4  C   UNL     1      49.366   7.902  12.922  0.00  0.00    +0.000 A 
ATOM      5  C   UNL     1      49.547   7.440  14.202  0.00  0.00    +0.000 A 
ATOM      6  C   UNL     1      48.576   6.585  14.682  0.00  0.00    +0.000 A 
ATOM      7  N   UNL     1      47.522   6.220  13.922  0.00  0.00    +0.000 NA
ATOM      8  H   UNL     1      46.346   7.027  11.110  0.00  0.00    +0.000 HD
ENDROOT
BRANCH   6   9
ATOM      9  C   UNL     1      48.610   5.996  16.038  0.00  0.00    +0.000 A 
ATOM     10  C   UNL     1      49.273   6.621  17.113  0.00  0.00    +0.000 A 
ATOM     11  C   UNL     1      49.283   6.057  18.396  0.00  0.00    +0.000 A 
ATOM     12  C   UNL     1      48.633   4.843  18.631  0.00  0.00    +0.000 A 
ATOM     13  C   UNL     1      47.955   4.215  17.586  0.00  0.00    +0.000 A 
ATOM     14  C   UNL     1      47.946   4.785  16.310  0.00  0.00    +0.000 A 
BRANCH  12  15
ATOM     15  C   UNL     1      48.575   4.210  19.981  0.00  0.00    +0.000 C 
ATOM     16  O   UNL     1      48.795   4.830  21.003  0.00  0.00    +0.000 OA
BRANCH  15  17
ATOM     17  O   UNL     1      48.223   2.909  19.966  0.00  0.00    +0.000 OA
ATOM     18  H   UNL     1      47.315   2.720  19.676  0.00  0.00    +0.000 HD
ENDBRANCH  15  17
ENDBRANCH  12  15
ENDBRANCH   6   9
BRANCH   1  19
ATOM     19  C   UNL     1      45.133   6.029  12.518  0.00  0.00    +0.000 C 
BRANCH  19  21
ATOM     20  C   UNL     1      42.671   5.632  12.228  0.00  0.00    +0.000 C 
ATOM     21  C   UNL     1      44.021   5.694  11.483  0.00  0.00    +0.000 C 
BRANCH  21  22
ATOM     22  C   UNL     1      44.293   4.441  10.643  0.00  0.00    +0.000 A 
ATOM     23  C   UNL     1      43.981   3.153  11.108  0.00  0.00    +0.000 A 
ATOM     24  C   UNL     1      44.134   2.034  10.286  0.00  0.00    +0.000 A 
ATOM     25  C   UNL     1      44.621   2.176   8.989  0.00  0.00    +0.000 A 
ATOM     26  C   UNL     1      44.969   3.437   8.521  0.00  0.00    +0.000 A 
ATOM     27  C   UNL     1      44.857   4.545   9.361  0.00  0.00    +0.000 A 
BRANCH  26  28
ATOM     28  O   UNL     1      45.429   3.709   7.262  0.00  0.00    +0.000 OA
BRANCH  28  29
ATOM     29  C   UNL     1      46.857   3.759   7.142  0.00  0.00    +0.000 C 
BRANCH  29  30
ATOM     30  C   UNL     1      47.396   2.610   6.294  0.00  0.00    +0.000 C 
ATOM     31  F   UNL     1      47.292   2.828   4.966  0.00  0.00    +0.000 F 
ATOM     32  F   UNL     1      48.703   2.383   6.568  0.00  0.00    +0.000 F 
ATOM     33  F   UNL     1      46.729   1.462   6.568  0.00  0.00    +0.000 F 
ENDBRANCH  29  30
ENDBRANCH  28  29
ENDBRANCH  26  28
ENDBRANCH  21  22
ENDBRANCH  19  21
ENDBRANCH   1  19
TORSDOF 9
ENDMDL
MODEL 7
REMARK VINA RESULT:    -7.113      4.626      8.535
REMARK INTER + INTRA:         -12.295
REMARK INTER:                 -11.368
REMARK INTRA:                  -0.927
REMARK UNBOUND:                -1.647
REMARK  Name = 
REMARK  10 active torsions:
REMARK  status: ('A' for Active; 'I' for Inactive)
REMARK    1  A    between atoms: C_1  and  C_2
REMARK    2  A    between atoms: C_2  and  C_3
REMARK    3  A    between atoms: C_2  and  C_20
REMARK    4  A    between atoms: C_3  and  N_4
REMARK    5  A    between atoms: C_9  and  C_10
REMARK    6  A    between atoms: C_13  and  C_14
REMARK    7  A    between atoms: C_14  and  O_16
REMARK    8  A    between atoms: C_24  and  O_25
REMARK    9  A    between atoms: O_25  and  C_26
REMARK   10  A    between atoms: C_26  and  C_27
REMARK                            x       y       z     vdW  Elec       q    Type
REMARK                         _______ _______ _______ _____ _____    ______ ____
ROOT
ATOM      1  N   UNL     1      46.740   5.110  14.896  0.00  0.00    +0.000 N 
ATOM      2  C   UNL     1      47.402   4.445  15.912  0.00  0.00    +0.000 A 
ATOM      3  N   UNL     1      46.664   3.588  16.623  0.00  0.00    +0.000 NA
ATOM      4  C   UNL     1      47.275   2.967  17.645  0.00  0.00    +0.000 A 
ATOM      5  C   UNL     1      48.597   3.156  17.966  0.00  0.00    +0.000 A 
ATOM      6  C   UNL     1      49.295   4.039  17.167  0.00  0.00    +0.000 A 
ATOM      7  N   UNL     1      48.698   4.683  16.142  0.00  0.00    +0.000 NA
ATOM      8  H   UNL     1      45.895   4.581  14.703  0.00  0.00    +0.000 HD
ENDROOT
BRANCH   6   9
ATOM      9  C   UNL     1      50.724   4.359  17.367  0.00  0.00    +0.000 A 
ATOM     10  C   UNL     1      51.273   5.607  17.013  0.00  0.00    +0.000 A 
ATOM     11  C   UNL     1      52.627   5.901  17.223  0.00  0.00    +0.000 A 
ATOM     12  C   UNL     1      53.471   4.941  17.789  0.00  0.00    +0.000 A 
ATOM     13  C   UNL     1      52.946   3.704  18.165  0.00  0.00    +0.000 A 
ATOM     14  C   UNL     1      51.593   3.420  17.955  0.00  0.00    +0.000 A 
BRANCH  12  15
ATOM     15  C   UNL     1      54.911   5.204  18.073  0.00  0.00    +0.000 C 
ATOM     16  O   UNL     1      55.404   6.312  17.981  0.00  0.00    +0.000 OA
BRANCH  15  17
ATOM     17  O   UNL     1      55.603   4.118  18.472  0.00  0.00    +0.000 OA
ATOM     18  H   UNL     1      55.591   3.363  17.861  0.00  0.00    +0.000 HD
ENDBRANCH  15  17
ENDBRANCH  12  15
ENDBRANCH   6   9
BRANCH   1  19
ATOM     19  C   UNL     1      47.549   5.467  13.738  0.00  0.00    +0.000 C 
BRANCH  19  21
ATOM     20  C   UNL     1      46.450   7.656  13.188  0.00  0.00    +0.000 C 
ATOM     21  C   UNL     1      46.701   6.222  12.675  0.00  0.00    +0.000 C 
BRANCH  21  22
ATOM     22  C   UNL     1      45.411   5.504  12.266  0.00  0.00    +0.000 A 
ATOM     23  C   UNL     1      44.183   5.763  12.897  0.00  0.00    +0.000 A 
ATOM     24  C   UNL     1      42.999   5.181  12.439  0.00  0.00    +0.000 A 
ATOM     25  C   UNL     1      43.019   4.311  11.351  0.00  0.00    +0.000 A 
ATOM     26  C   UNL     1      44.228   4.012  10.734  0.00  0.00    +0.000 A 
ATOM     27  C   UNL     1      45.412   4.561  11.224  0.00  0.00    +0.000 A 
BRANCH  26  28
ATOM     28  O   UNL     1      44.374   3.199   9.644  0.00  0.00    +0.000 OA
BRANCH  28  29
ATOM     29  C   UNL     1      44.566   3.887   8.402  0.00  0.00    +0.000 C 
BRANCH  29  30
ATOM     30  C   UNL     1      45.870   3.478   7.722  0.00  0.00    +0.000 C 
ATOM     31  F   UNL     1      45.725   3.197   6.409  0.00  0.00    +0.000 F 
ATOM     32  F   UNL     1      46.796   4.461   7.827  0.00  0.00    +0.000 F 
ATOM     33  F   UNL     1      46.392   2.376   8.315  0.00  0.00    +0.000 F 
ENDBRANCH  29  30
ENDBRANCH  28  29
ENDBRANCH  26  28
ENDBRANCH  21  22
ENDBRANCH  19  21
ENDBRANCH   1  19
TORSDOF 9
ENDMDL
MODEL 8
REMARK VINA RESULT:    -7.109      3.381      4.783
REMARK INTER + INTRA:         -12.290
REMARK INTER:                 -11.280
REMARK INTRA:                  -1.010
REMARK UNBOUND:                -1.647
REMARK  Name = 
REMARK  10 active torsions:
REMARK  status: ('A' for Active; 'I' for Inactive)
REMARK    1  A    between atoms: C_1  and  C_2
REMARK    2  A    between atoms: C_2  and  C_3
REMARK    3  A    between atoms: C_2  and  C_20
REMARK    4  A    between atoms: C_3  and  N_4
REMARK    5  A    between atoms: C_9  and  C_10
REMARK    6  A    between atoms: C_13  and  C_14
REMARK    7  A    between atoms: C_14  and  O_16
REMARK    8  A    between atoms: C_24  and  O_25
REMARK    9  A    between atoms: O_25  and  C_26
REMARK   10  A    between atoms: C_26  and  C_27
REMARK                            x       y       z     vdW  Elec       q    Type
REMARK                         _______ _______ _______ _____ _____    ______ ____
ROOT
ATOM      1  N   UNL     1      45.539   4.792  14.215  0.00  0.00    +0.000 N 
ATOM      2  C   UNL     1      44.798   4.788  13.047  0.00  0.00    +0.000 A 
ATOM      3  N   UNL     1      43.544   5.237  13.152  0.00  0.00    +0.000 NA
ATOM      4  C   UNL     1      42.792   5.197  12.040  0.00  0.00    +0.000 A 
ATOM      5  C   UNL     1      43.254   4.745  10.829  0.00  0.00    +0.000 A 
ATOM      6  C   UNL     1      44.567   4.322  10.800  0.00  0.00    +0.000 A 
ATOM      7  N   UNL     1      45.338   4.342  11.908  0.00  0.00    +0.000 NA
ATOM      8  H   UNL     1      45.070   5.425  14.856  0.00  0.00    +0.000 HD
ENDROOT
BRANCH   6   9
ATOM      9  C   UNL     1      45.228   3.808   9.581  0.00  0.00    +0.000 A 
ATOM     10  C   UNL     1      45.821   4.661   8.629  0.00  0.00    +0.000 A 
ATOM     11  C   UNL     1      46.457   4.158   7.486  0.00  0.00    +0.000 A 
ATOM     12  C   UNL     1      46.507   2.779   7.265  0.00  0.00    +0.000 A 
ATOM     13  C   UNL     1      45.943   1.913   8.202  0.00  0.00    +0.000 A 
ATOM     14  C   UNL     1      45.313   2.423   9.341  0.00  0.00    +0.000 A 
BRANCH  12  15
ATOM     15  C   UNL     1      47.201   2.179   6.089  0.00  0.00    +0.000 C 
ATOM     16  O   UNL     1      47.971   1.244   6.191  0.00  0.00    +0.000 OA
BRANCH  15  17
ATOM     17  O   UNL     1      46.872   2.740   4.908  0.00  0.00    +0.000 OA
ATOM     18  H   UNL     1      47.554   3.301   4.503  0.00  0.00    +0.000 HD
ENDBRANCH  15  17
ENDBRANCH  12  15
ENDBRANCH   6   9
BRANCH   1  19
ATOM     19  C   UNL     1      46.973   4.990  14.057  0.00  0.00    +0.000 C 
BRANCH  19  21
ATOM     20  C   UNL     1      48.697   6.682  14.740  0.00  0.00    +0.000 C 
ATOM     21  C   UNL     1      47.566   5.771  15.264  0.00  0.00    +0.000 C 
BRANCH  21  22
ATOM     22  C   UNL     1      48.011   4.888  16.435  0.00  0.00    +0.000 A 
ATOM     23  C   UNL     1      47.762   3.506  16.460  0.00  0.00    +0.000 A 
ATOM     24  C   UNL     1      48.270   2.700  17.482  0.00  0.00    +0.000 A 
ATOM     25  C   UNL     1      49.021   3.262  18.512  0.00  0.00    +0.000 A 
ATOM     26  C   UNL     1      49.250   4.632  18.526  0.00  0.00    +0.000 A 
ATOM     27  C   UNL     1      48.702   5.438  17.528  0.00  0.00    +0.000 A 
BRANCH  26  28
ATOM     28  O   UNL     1      49.993   5.296  19.463  0.00  0.00    +0.000 OA
BRANCH  28  29
ATOM     29  C   UNL     1      51.348   4.846  19.584  0.00  0.00    +0.000 C 
BRANCH  29  30
ATOM     30  C   UNL     1      52.238   5.420  18.485  0.00  0.00    +0.000 C 
ATOM     31  F   UNL     1      51.845   6.640  18.060  0.00  0.00    +0.000 F 
ATOM     32  F   UNL     1      53.518   5.531  18.913  0.00  0.00    +0.000 F 
ATOM     33  F   UNL     1      52.250   4.601  17.405  0.00  0.00    +0.000 F 
ENDBRANCH  29  30
ENDBRANCH  28  29
ENDBRANCH  26  28
ENDBRANCH  21  22
ENDBRANCH  19  21
ENDBRANCH   1  19
TORSDOF 9
ENDMDL
MODEL 9
REMARK VINA RESULT:    -7.046      3.492      4.841
REMARK INTER + INTRA:         -12.195
REMARK INTER:                 -11.223
REMARK INTRA:                  -0.972
REMARK UNBOUND:                -1.647
REMARK  Name = 
REMARK  10 active torsions:
REMARK  status: ('A' for Active; 'I' for Inactive)
REMARK    1  A    between atoms: C_1  and  C_2
REMARK    2  A    between atoms: C_2  and  C_3
REMARK    3  A    between atoms: C_2  and  C_20
REMARK    4  A    between atoms: C_3  and  N_4
REMARK    5  A    between atoms: C_9  and  C_10
REMARK    6  A    between atoms: C_13  and  C_14
REMARK    7  A    between atoms: C_14  and  O_16
REMARK    8  A    between atoms: C_24  and  O_25
REMARK    9  A    between atoms: O_25  and  C_26
REMARK   10  A    between atoms: C_26  and  C_27
REMARK                            x       y       z     vdW  Elec       q    Type
REMARK                         _______ _______ _______ _____ _____    ______ ____
ROOT
ATOM      1  N   UNL     1      45.289   4.365  14.147  0.00  0.00    +0.000 N 
ATOM      2  C   UNL     1      44.639   4.526  12.938  0.00  0.00    +0.000 A 
ATOM      3  N   UNL     1      43.425   5.081  12.998  0.00  0.00    +0.000 NA
ATOM      4  C   UNL     1      42.756   5.202  11.840  0.00  0.00    +0.000 A 
ATOM      5  C   UNL     1      43.264   4.808  10.627  0.00  0.00    +0.000 A 
ATOM      6  C   UNL     1      44.533   4.266  10.647  0.00  0.00    +0.000 A 
ATOM      7  N   UNL     1      45.219   4.124  11.801  0.00  0.00    +0.000 NA
ATOM      8  H   UNL     1      44.832   4.986  14.809  0.00  0.00    +0.000 HD
ENDROOT
BRANCH   6   9
ATOM      9  C   UNL     1      45.233   3.792   9.434  0.00  0.00    +0.000 A 
ATOM     10  C   UNL     1      45.802   4.680   8.499  0.00  0.00    +0.000 A 
ATOM     11  C   UNL     1      46.476   4.214   7.362  0.00  0.00    +0.000 A 
ATOM     12  C   UNL     1      46.590   2.841   7.130  0.00  0.00    +0.000 A 
ATOM     13  C   UNL     1      46.051   1.944   8.051  0.00  0.00    +0.000 A 
ATOM     14  C   UNL     1      45.383   2.415   9.185  0.00  0.00    +0.000 A 
BRANCH  12  15
ATOM     15  C   UNL     1      47.327   2.283   5.959  0.00  0.00    +0.000 C 
ATOM     16  O   UNL     1      47.100   2.630   4.817  0.00  0.00    +0.000 OA
BRANCH  15  17
ATOM     17  O   UNL     1      48.285   1.392   6.285  0.00  0.00    +0.000 OA
ATOM     18  H   UNL     1      47.983   0.478   6.418  0.00  0.00    +0.000 HD
ENDBRANCH  15  17
ENDBRANCH  12  15
ENDBRANCH   6   9
BRANCH   1  19
ATOM     19  C   UNL     1      46.743   4.439  14.102  0.00  0.00    +0.000 C 
BRANCH  19  21
ATOM     20  C   UNL     1      48.288   6.398  14.371  0.00  0.00    +0.000 C 
ATOM     21  C   UNL     1      47.281   5.493  15.111  0.00  0.00    +0.000 C 
BRANCH  21  22
ATOM     22  C   UNL     1      47.855   4.900  16.402  0.00  0.00    +0.000 A 
ATOM     23  C   UNL     1      47.712   3.541  16.723  0.00  0.00    +0.000 A 
ATOM     24  C   UNL     1      48.335   2.997  17.850  0.00  0.00    +0.000 A 
ATOM     25  C   UNL     1      49.097   3.805  18.690  0.00  0.00    +0.000 A 
ATOM     26  C   UNL     1      49.222   5.160  18.411  0.00  0.00    +0.000 A 
ATOM     27  C   UNL     1      48.562   5.706  17.311  0.00  0.00    +0.000 A 
BRANCH  26  28
ATOM     28  O   UNL     1      49.963   6.048  19.141  0.00  0.00    +0.000 OA
BRANCH  28  29
ATOM     29  C   UNL     1      49.535   7.413  19.041  0.00  0.00    +0.000 C 
BRANCH  29  30
ATOM     30  C   UNL     1      48.721   7.842  20.259  0.00  0.00    +0.000 C 
ATOM     31  F   UNL     1      49.263   8.884  20.925  0.00  0.00    +0.000 F 
ATOM     32  F   UNL     1      47.466   8.200  19.895  0.00  0.00    +0.000 F 
ATOM     33  F   UNL     1      48.602   6.818  21.139  0.00  0.00    +0.000 F 
ENDBRANCH  29  30
ENDBRANCH  28  29
ENDBRANCH  26  28
ENDBRANCH  21  22
ENDBRANCH  19  21
ENDBRANCH   1  19
TORSDOF 9
ENDMDL
