MODEL 1
REMARK VINA RESULT:    -7.648      0.000      0.000
REMARK INTER + INTRA:          -9.850
REMARK INTER:                  -9.436
REMARK INTRA:                  -0.414
REMARK UNBOUND:                -0.414
REMARK  Name = 
REMARK  4 active torsions:
REMARK  status: ('A' for Active; 'I' for Inactive)
REMARK    1  A    between atoms: C_2  and  C_4
REMARK    2  A    between atoms: C_7  and  N_8
REMARK    3  A    between atoms: N_8  and  C_9
REMARK    4  A    between atoms: C_9  and  C_10
REMARK                            x       y       z     vdW  Elec       q    Type
REMARK                         _______ _______ _______ _____ _____    ______ ____
ROOT
ATOM      1  C   UNL     1      46.429   2.708   7.601  0.00  0.00    +0.000 A 
ATOM      2  N   UNL     1      46.122   4.024   7.669  0.00  0.00    +0.000 NA
ATOM      3  C   UNL     1      45.195   4.348   8.594  0.00  0.00    +0.000 A 
ATOM      4  C   UNL     1      44.547   3.444   9.427  0.00  0.00    +0.000 A 
ATOM      5  C   UNL     1      44.988   2.140   9.278  0.00  0.00    +0.000 A 
ATOM      6  N   UNL     1      45.908   1.739   8.377  0.00  0.00    +0.000 NA
ENDROOT
BRANCH   1   8
ATOM      7  N   UNL     1      47.418   3.003   5.383  0.00  0.00    +0.000 N 
ATOM      8  C   UNL     1      47.461   2.308   6.573  0.00  0.00    +0.000 C 
ATOM      9  O   UNL     1      48.297   1.428   6.746  0.00  0.00    +0.000 OA
ATOM     10  H   UNL     1      48.097   2.787   4.669  0.00  0.00    +0.000 HD
ATOM     11  H   UNL     1      46.734   3.737   5.247  0.00  0.00    +0.000 HD
ENDBRANCH   1   8
BRANCH   4  12
ATOM     12  N   UNL     1      43.630   3.899  10.377  0.00  0.00    +0.000 N 
ATOM     13  H   UNL     1      43.687   4.915  10.468  0.00  0.00    +0.000 HD
BRANCH  12  14
ATOM     14  C   UNL     1      43.659   3.278  11.708  0.00  0.00    +0.000 C 
BRANCH  14  15
ATOM     15  C   UNL     1      44.837   3.796  12.498  0.00  0.00    +0.000 A 
ATOM     16  C   UNL     1      44.953   5.148  12.806  0.00  0.00    +0.000 A 
ATOM     17  C   UNL     1      46.045   5.574  13.547  0.00  0.00    +0.000 A 
ATOM     18  C   UNL     1      46.964   4.626  13.945  0.00  0.00    +0.000 A 
ATOM     19  N   UNL     1      46.840   3.320  13.639  0.00  0.00    +0.000 NA
ATOM     20  N   UNL     1      45.765   2.901  12.907  0.00  0.00    +0.000 NA
ENDBRANCH  14  15
ENDBRANCH  12  14
ENDBRANCH   4  12
TORSDOF 4
ENDMDL
MODEL 2
REMARK VINA RESULT:    -7.264      2.458      6.174
REMARK INTER + INTRA:          -9.376
REMARK INTER:                  -9.097
REMARK INTRA:                  -0.279
REMARK UNBOUND:                -0.414
REMARK  Name = 
REMARK  4 active torsions:
REMARK  status: ('A' for Active; 'I' for Inactive)
REMARK    1  A    between atoms: C_2  and  C_4
REMARK    2  A    between atoms: C_7  and  N_8
REMARK    3  A    between atoms: N_8  and  C_9
REMARK    4  A    between atoms: C_9  and  C_10
REMARK                            x       y       z     vdW  Elec       q    Type
REMARK                         _______ _______ _______ _____ _____    ______ ____
ROOT
ATOM      1  C   UNL     1      46.565   4.310  13.798  0.00  0.00    +0.000 A 
ATOM      2  N   UNL     1      45.862   3.322  13.199  0.00  0.00    +0.000 NA
ATOM      3  C   UNL     1      45.239   3.678  12.055  0.00  0.00    +0.000 A 
ATOM      4  C   UNL     1      45.256   4.950  11.497  0.00  0.00    +0.000 A 
ATOM      5  C   UNL     1      46.047   5.849  12.193  0.00  0.00    +0.000 A 
ATOM      6  N   UNL     1      46.699   5.570  13.340  0.00  0.00    +0.000 NA
ENDROOT
BRANCH   1   8
ATOM      7  N   UNL     1      47.266   4.923  16.060  0.00  0.00    +0.000 N 
ATOM      8  C   UNL     1      47.274   3.950  15.084  0.00  0.00    +0.000 C 
ATOM      9  O   UNL     1      47.830   2.877  15.283  0.00  0.00    +0.000 OA
ATOM     10  H   UNL     1      47.709   4.727  16.946  0.00  0.00    +0.000 HD
ATOM     11  H   UNL     1      46.795   5.805  15.898  0.00  0.00    +0.000 HD
ENDBRANCH   1   8
BRANCH   4  12
ATOM     12  N   UNL     1      44.606   5.193  10.286  0.00  0.00    +0.000 N 
ATOM     13  H   UNL     1      43.848   5.866  10.419  0.00  0.00    +0.000 HD
BRANCH  12  14
ATOM     14  C   UNL     1      44.115   4.035   9.527  0.00  0.00    +0.000 C 
BRANCH  14  15
ATOM     15  C   UNL     1      45.204   3.507   8.624  0.00  0.00    +0.000 A 
ATOM     16  C   UNL     1      45.559   2.162   8.642  0.00  0.00    +0.000 A 
ATOM     17  C   UNL     1      46.554   1.721   7.783  0.00  0.00    +0.000 A 
ATOM     18  C   UNL     1      47.142   2.647   6.947  0.00  0.00    +0.000 A 
ATOM     19  N   UNL     1      46.788   3.947   6.940  0.00  0.00    +0.000 NA
ATOM     20  N   UNL     1      45.809   4.382   7.788  0.00  0.00    +0.000 NA
ENDBRANCH  14  15
ENDBRANCH  12  14
ENDBRANCH   4  12
TORSDOF 4
ENDMDL
MODEL 3
REMARK VINA RESULT:    -6.804      3.080      6.081
REMARK INTER + INTRA:          -8.808
REMARK INTER:                  -8.484
REMARK INTRA:                  -0.325
REMARK UNBOUND:                -0.414
REMARK  Name = 
REMARK  4 active torsions:
REMARK  status: ('A' for Active; 'I' for Inactive)
REMARK    1  A    between atoms: C_2  and  C_4
REMARK    2  A    between atoms: C_7  and  N_8
REMARK    3  A    between atoms: N_8  and  C_9
REMARK    4  A    between atoms: C_9  and  C_10
REMARK                            x       y       z     vdW  Elec       q    Type
REMARK                         _______ _______ _______ _____ _____    ______ ____
ROOT
ATOM      1  C   UNL     1      45.592   6.421  12.308  0.00  0.00    +0.000 A 
ATOM      2  N   UNL     1      45.909   5.353  13.075  0.00  0.00    +0.000 NA
ATOM      3  C   UNL     1      45.663   4.152  12.510  0.00  0.00    +0.000 A 
ATOM      4  C   UNL     1      45.104   3.958  11.254  0.00  0.00    +0.000 A 
ATOM      5  C   UNL     1      44.869   5.137  10.565  0.00  0.00    +0.000 A 
ATOM      6  N   UNL     1      45.087   6.372  11.061  0.00  0.00    +0.000 NA
ENDROOT
BRANCH   1   8
ATOM      7  N   UNL     1      44.870   8.727  12.688  0.00  0.00    +0.000 N 
ATOM      8  C   UNL     1      45.850   7.784  12.909  0.00  0.00    +0.000 C 
ATOM      9  O   UNL     1      46.851   8.071  13.554  0.00  0.00    +0.000 OA
ATOM     10  H   UNL     1      44.984   9.649  13.083  0.00  0.00    +0.000 HD
ATOM     11  H   UNL     1      44.038   8.485  12.165  0.00  0.00    +0.000 HD
ENDBRANCH   1   8
BRANCH   4  12
ATOM     12  N   UNL     1      44.931   2.666  10.755  0.00  0.00    +0.000 N 
ATOM     13  H   UNL     1      45.793   2.127  10.857  0.00  0.00    +0.000 HD
BRANCH  12  14
ATOM     14  C   UNL     1      44.415   2.524   9.387  0.00  0.00    +0.000 C 
BRANCH  14  15
ATOM     15  C   UNL     1      45.551   2.252   8.429  0.00  0.00    +0.000 A 
ATOM     16  C   UNL     1      46.095   3.274   7.657  0.00  0.00    +0.000 A 
ATOM     17  C   UNL     1      47.147   2.979   6.803  0.00  0.00    +0.000 A 
ATOM     18  C   UNL     1      47.604   1.678   6.766  0.00  0.00    +0.000 A 
ATOM     19  N   UNL     1      47.067   0.699   7.519  0.00  0.00    +0.000 NA
ATOM     20  N   UNL     1      46.029   0.989   8.359  0.00  0.00    +0.000 NA
ENDBRANCH  14  15
ENDBRANCH  12  14
ENDBRANCH   4  12
TORSDOF 4
ENDMDL
MODEL 4
REMARK VINA RESULT:    -6.527      3.108      6.805
REMARK INTER + INTRA:          -8.466
REMARK INTER:                  -8.146
REMARK INTRA:                  -0.320
REMARK UNBOUND:                -0.414
REMARK  Name = 
REMARK  4 active torsions:
REMARK  status: ('A' for Active; 'I' for Inactive)
REMARK    1  A    between atoms: C_2  and  C_4
REMARK    2  A    between atoms: C_7  and  N_8
REMARK    3  A    between atoms: N_8  and  C_9
REMARK    4  A    between atoms: C_9  and  C_10
REMARK                            x       y       z     vdW  Elec       q    Type
REMARK                         _______ _______ _______ _____ _____    ______ ____
ROOT
ATOM      1  C   UNL     1      47.382   4.821  15.076  0.00  0.00    +0.000 A 
ATOM      2  N   UNL     1      46.362   4.152  14.490  0.00  0.00    +0.000 NA
ATOM      3  C   UNL     1      45.997   4.617  13.277  0.00  0.00    +0.000 A 
ATOM      4  C   UNL     1      46.565   5.709  12.635  0.00  0.00    +0.000 A 
ATOM      5  C   UNL     1      47.623   6.271  13.330  0.00  0.00    +0.000 A 
ATOM      6  N   UNL     1      48.045   5.865  14.544  0.00  0.00    +0.000 NA
ENDROOT
BRANCH   1   8
ATOM      7  N   UNL     1      47.071   4.793  17.502  0.00  0.00    +0.000 N 
ATOM      8  C   UNL     1      47.816   4.331  16.438  0.00  0.00    +0.000 C 
ATOM      9  O   UNL     1      48.761   3.575  16.626  0.00  0.00    +0.000 OA
ATOM     10  H   UNL     1      47.308   4.482  18.433  0.00  0.00    +0.000 HD
ATOM     11  H   UNL     1      46.283   5.409  17.344  0.00  0.00    +0.000 HD
ENDBRANCH   1   8
BRANCH   4  12
ATOM     12  N   UNL     1      46.131   6.077  11.360  0.00  0.00    +0.000 N 
ATOM     13  H   UNL     1      46.028   7.092  11.298  0.00  0.00    +0.000 HD
BRANCH  12  14
ATOM     14  C   UNL     1      44.928   5.422  10.830  0.00  0.00    +0.000 C 
BRANCH  14  15
ATOM     15  C   UNL     1      45.292   4.526   9.670  0.00  0.00    +0.000 A 
ATOM     16  C   UNL     1      44.961   3.175   9.679  0.00  0.00    +0.000 A 
ATOM     17  C   UNL     1      45.303   2.396   8.584  0.00  0.00    +0.000 A 
ATOM     18  C   UNL     1      45.956   3.008   7.534  0.00  0.00    +0.000 A 
ATOM     19  N   UNL     1      46.269   4.318   7.539  0.00  0.00    +0.000 NA
ATOM     20  N   UNL     1      45.934   5.085   8.619  0.00  0.00    +0.000 NA
ENDBRANCH  14  15
ENDBRANCH  12  14
ENDBRANCH   4  12
TORSDOF 4
ENDMDL
MODEL 5
REMARK VINA RESULT:    -6.513      3.230      5.502
REMARK INTER + INTRA:          -8.449
REMARK INTER:                  -8.139
REMARK INTRA:                  -0.310
REMARK UNBOUND:                -0.414
REMARK  Name = 
REMARK  4 active torsions:
REMARK  status: ('A' for Active; 'I' for Inactive)
REMARK    1  A    between atoms: C_2  and  C_4
REMARK    2  A    between atoms: C_7  and  N_8
REMARK    3  A    between atoms: N_8  and  C_9
REMARK    4  A    between atoms: C_9  and  C_10
REMARK                            x       y       z     vdW  Elec       q    Type
REMARK                         _______ _______ _______ _____ _____    ______ ____
ROOT
ATOM      1  C   UNL     1      44.992   4.245  11.818  0.00  0.00    +0.000 A 
ATOM      2  N   UNL     1      45.494   3.205  12.522  0.00  0.00    +0.000 NA
ATOM      3  C   UNL     1      46.271   3.548  13.572  0.00  0.00    +0.000 A 
ATOM      4  C   UNL     1      46.591   4.848  13.939  0.00  0.00    +0.000 A 
ATOM      5  C   UNL     1      45.976   5.811  13.156  0.00  0.00    +0.000 A 
ATOM      6  N   UNL     1      45.190   5.549  12.093  0.00  0.00    +0.000 NA
ENDROOT
BRANCH   1   8
ATOM      7  N   UNL     1      43.731   4.965   9.850  0.00  0.00    +0.000 N 
ATOM      8  C   UNL     1      44.121   3.900  10.632  0.00  0.00    +0.000 C 
ATOM      9  O   UNL     1      43.764   2.762  10.352  0.00  0.00    +0.000 OA
ATOM     10  H   UNL     1      43.162   4.788   9.035  0.00  0.00    +0.000 HD
ATOM     11  H   UNL     1      44.037   5.904  10.076  0.00  0.00    +0.000 HD
ENDBRANCH   1   8
BRANCH   4  12
ATOM     12  N   UNL     1      47.373   5.085  15.070  0.00  0.00    +0.000 N 
ATOM     13  H   UNL     1      48.364   5.098  14.821  0.00  0.00    +0.000 HD
BRANCH  12  14
ATOM     14  C   UNL     1      47.166   4.221  16.240  0.00  0.00    +0.000 C 
BRANCH  14  15
ATOM     15  C   UNL     1      48.441   3.481  16.571  0.00  0.00    +0.000 A 
ATOM     16  C   UNL     1      49.310   3.955  17.548  0.00  0.00    +0.000 A 
ATOM     17  C   UNL     1      50.460   3.233  17.828  0.00  0.00    +0.000 A 
ATOM     18  C   UNL     1      50.681   2.070  17.118  0.00  0.00    +0.000 A 
ATOM     19  N   UNL     1      49.830   1.623  16.175  0.00  0.00    +0.000 NA
ATOM     20  N   UNL     1      48.698   2.336  15.898  0.00  0.00    +0.000 NA
ENDBRANCH  14  15
ENDBRANCH  12  14
ENDBRANCH   4  12
TORSDOF 4
ENDMDL
MODEL 6
REMARK VINA RESULT:    -6.399      2.719      6.054
REMARK INTER + INTRA:          -8.309
REMARK INTER:                  -7.988
REMARK INTRA:                  -0.321
REMARK UNBOUND:                -0.414
REMARK  Name = 
REMARK  4 active torsions:
REMARK  status: ('A' for Active; 'I' for Inactive)
REMARK    1  A    between atoms: C_2  and  C_4
REMARK    2  A    between atoms: C_7  and  N_8
REMARK    3  A    between atoms: N_8  and  C_9
REMARK    4  A    between atoms: C_9  and  C_10
REMARK                            x       y       z     vdW  Elec       q    Type
REMARK                         _______ _______ _______ _____ _____    ______ ____
ROOT
ATOM      1  C   UNL     1      46.264   5.633  12.630  0.00  0.00    +0.000 A 
ATOM      2  N   UNL     1      46.181   6.223  11.415  0.00  0.00    +0.000 NA
ATOM      3  C   UNL     1      45.475   5.535  10.494  0.00  0.00    +0.000 A 
ATOM      4  C   UNL     1      44.878   4.299  10.703  0.00  0.00    +0.000 A 
ATOM      5  C   UNL     1      45.008   3.834  12.001  0.00  0.00    +0.000 A 
ATOM      6  N   UNL     1      45.697   4.462  12.975  0.00  0.00    +0.000 NA
ENDROOT
BRANCH   1   8
ATOM      7  N   UNL     1      47.455   5.617  14.767  0.00  0.00    +0.000 N 
ATOM      8  C   UNL     1      47.051   6.373  13.687  0.00  0.00    +0.000 C 
ATOM      9  O   UNL     1      47.330   7.564  13.626  0.00  0.00    +0.000 OA
ATOM     10  H   UNL     1      47.999   6.059  15.493  0.00  0.00    +0.000 HD
ATOM     11  H   UNL     1      47.233   4.630  14.810  0.00  0.00    +0.000 HD
ENDBRANCH   1   8
BRANCH   4  12
ATOM     12  N   UNL     1      44.137   3.697   9.685  0.00  0.00    +0.000 N 
ATOM     13  H   UNL     1      43.144   3.689   9.924  0.00  0.00    +0.000 HD
BRANCH  12  14
ATOM     14  C   UNL     1      44.549   2.360   9.236  0.00  0.00    +0.000 C 
BRANCH  14  15
ATOM     15  C   UNL     1      45.621   2.475   8.178  0.00  0.00    +0.000 A 
ATOM     16  C   UNL     1      46.531   1.445   7.967  0.00  0.00    +0.000 A 
ATOM     17  C   UNL     1      47.488   1.590   6.973  0.00  0.00    +0.000 A 
ATOM     18  C   UNL     1      47.483   2.757   6.238  0.00  0.00    +0.000 A 
ATOM     19  N   UNL     1      46.595   3.747   6.453  0.00  0.00    +0.000 NA
ATOM     20  N   UNL     1      45.654   3.605   7.434  0.00  0.00    +0.000 NA
ENDBRANCH  14  15
ENDBRANCH  12  14
ENDBRANCH   4  12
TORSDOF 4
ENDMDL
MODEL 7
REMARK VINA RESULT:    -6.252      3.067      6.397
REMARK INTER + INTRA:          -8.128
REMARK INTER:                  -7.862
REMARK INTRA:                  -0.265
REMARK UNBOUND:                -0.414
REMARK  Name = 
REMARK  4 active torsions:
REMARK  status: ('A' for Active; 'I' for Inactive)
REMARK    1  A    between atoms: C_2  and  C_4
REMARK    2  A    between atoms: C_7  and  N_8
REMARK    3  A    between atoms: N_8  and  C_9
REMARK    4  A    between atoms: C_9  and  C_10
REMARK                            x       y       z     vdW  Elec       q    Type
REMARK                         _______ _______ _______ _____ _____    ______ ____
ROOT
ATOM      1  C   UNL     1      43.935   4.663  11.750  0.00  0.00    +0.000 A 
ATOM      2  N   UNL     1      43.506   3.387  11.892  0.00  0.00    +0.000 NA
ATOM      3  C   UNL     1      43.754   2.581  10.838  0.00  0.00    +0.000 A 
ATOM      4  C   UNL     1      44.374   2.974   9.659  0.00  0.00    +0.000 A 
ATOM      5  C   UNL     1      44.796   4.294   9.669  0.00  0.00    +0.000 A 
ATOM      6  N   UNL     1      44.585   5.159  10.680  0.00  0.00    +0.000 NA
ENDROOT
BRANCH   1   8
ATOM      7  N   UNL     1      44.545   6.654  13.033  0.00  0.00    +0.000 N 
ATOM      8  C   UNL     1      43.671   5.596  12.909  0.00  0.00    +0.000 C 
ATOM      9  O   UNL     1      42.752   5.455  13.708  0.00  0.00    +0.000 OA
ATOM     10  H   UNL     1      44.403   7.318  13.780  0.00  0.00    +0.000 HD
ATOM     11  H   UNL     1      45.296   6.776  12.365  0.00  0.00    +0.000 HD
ENDBRANCH   1   8
BRANCH   4  12
ATOM     12  N   UNL     1      44.614   2.042   8.648  0.00  0.00    +0.000 N 
ATOM     13  H   UNL     1      43.904   1.307   8.666  0.00  0.00    +0.000 HD
BRANCH  12  14
ATOM     14  C   UNL     1      45.952   1.440   8.576  0.00  0.00    +0.000 C 
BRANCH  14  15
ATOM     15  C   UNL     1      46.657   1.889   7.318  0.00  0.00    +0.000 A 
ATOM     16  C   UNL     1      46.171   2.955   6.568  0.00  0.00    +0.000 A 
ATOM     17  C   UNL     1      46.862   3.342   5.429  0.00  0.00    +0.000 A 
ATOM     18  C   UNL     1      48.006   2.644   5.100  0.00  0.00    +0.000 A 
ATOM     19  N   UNL     1      48.464   1.613   5.836  0.00  0.00    +0.000 NA
ATOM     20  N   UNL     1      47.782   1.231   6.957  0.00  0.00    +0.000 NA
ENDBRANCH  14  15
ENDBRANCH  12  14
ENDBRANCH   4  12
TORSDOF 4
ENDMDL
MODEL 8
REMARK VINA RESULT:    -5.727      4.570      7.830
REMARK INTER + INTRA:          -7.480
REMARK INTER:                  -7.179
REMARK INTRA:                  -0.301
REMARK UNBOUND:                -0.414
REMARK  Name = 
REMARK  4 active torsions:
REMARK  status: ('A' for Active; 'I' for Inactive)
REMARK    1  A    between atoms: C_2  and  C_4
REMARK    2  A    between atoms: C_7  and  N_8
REMARK    3  A    between atoms: N_8  and  C_9
REMARK    4  A    between atoms: C_9  and  C_10
REMARK                            x       y       z     vdW  Elec       q    Type
REMARK                         _______ _______ _______ _____ _____    ______ ____
ROOT
ATOM      1  C   UNL     1      50.186   2.561  17.053  0.00  0.00    +0.000 A 
ATOM      2  N   UNL     1      49.336   1.835  16.291  0.00  0.00    +0.000 NA
ATOM      3  C   UNL     1      48.233   2.495  15.879  0.00  0.00    +0.000 A 
ATOM      4  C   UNL     1      47.921   3.810  16.199  0.00  0.00    +0.000 A 
ATOM      5  C   UNL     1      48.899   4.443  16.950  0.00  0.00    +0.000 A 
ATOM      6  N   UNL     1      50.024   3.852  17.399  0.00  0.00    +0.000 NA
ENDROOT
BRANCH   1   8
ATOM      7  N   UNL     1      52.192   2.547  18.453  0.00  0.00    +0.000 N 
ATOM      8  C   UNL     1      51.431   1.853  17.537  0.00  0.00    +0.000 C 
ATOM      9  O   UNL     1      51.775   0.739  17.162  0.00  0.00    +0.000 OA
ATOM     10  H   UNL     1      53.025   2.112  18.822  0.00  0.00    +0.000 HD
ATOM     11  H   UNL     1      51.899   3.463  18.769  0.00  0.00    +0.000 HD
ENDBRANCH   1   8
BRANCH   4  12
ATOM     12  N   UNL     1      46.768   4.404  15.683  0.00  0.00    +0.000 N 
ATOM     13  H   UNL     1      45.985   3.748  15.716  0.00  0.00    +0.000 HD
BRANCH  12  14
ATOM     14  C   UNL     1      46.850   5.012  14.348  0.00  0.00    +0.000 C 
BRANCH  14  15
ATOM     15  C   UNL     1      45.624   4.657  13.540  0.00  0.00    +0.000 A 
ATOM     16  C   UNL     1      44.703   5.633  13.172  0.00  0.00    +0.000 A 
ATOM     17  C   UNL     1      43.601   5.261  12.416  0.00  0.00    +0.000 A 
ATOM     18  C   UNL     1      43.478   3.933  12.064  0.00  0.00    +0.000 A 
ATOM     19  N   UNL     1      44.378   2.999  12.427  0.00  0.00    +0.000 NA
ATOM     20  N   UNL     1      45.463   3.365  13.174  0.00  0.00    +0.000 NA
ENDBRANCH  14  15
ENDBRANCH  12  14
ENDBRANCH   4  12
TORSDOF 4
ENDMDL
MODEL 9
REMARK VINA RESULT:    -5.571      4.461      6.857
REMARK INTER + INTRA:          -7.288
REMARK INTER:                  -7.047
REMARK INTRA:                  -0.241
REMARK UNBOUND:                -0.414
REMARK  Name = 
REMARK  4 active torsions:
REMARK  status: ('A' for Active; 'I' for Inactive)
REMARK    1  A    between atoms: C_2  and  C_4
REMARK    2  A    between atoms: C_7  and  N_8
REMARK    3  A    between atoms: N_8  and  C_9
REMARK    4  A    between atoms: C_9  and  C_10
REMARK                            x       y       z     vdW  Elec       q    Type
REMARK                         _______ _______ _______ _____ _____    ______ ____
ROOT
ATOM      1  C   UNL     1      47.664   3.897  15.729  0.00  0.00    +0.000 A 
ATOM      2  N   UNL     1      47.223   3.303  14.596  0.00  0.00    +0.000 NA
ATOM      3  C   UNL     1      47.140   4.115  13.521  0.00  0.00    +0.000 A 
ATOM      4  C   UNL     1      47.443   5.471  13.517  0.00  0.00    +0.000 A 
ATOM      5  C   UNL     1      47.920   5.934  14.732  0.00  0.00    +0.000 A 
ATOM      6  N   UNL     1      48.031   5.187  15.849  0.00  0.00    +0.000 NA
ENDROOT
BRANCH   1   8
ATOM      7  N   UNL     1      49.042   2.638  17.309  0.00  0.00    +0.000 N 
ATOM      8  C   UNL     1      47.766   3.020  16.955  0.00  0.00    +0.000 C 
ATOM      9  O   UNL     1      46.803   2.650  17.616  0.00  0.00    +0.000 OA
ATOM     10  H   UNL     1      49.168   2.066  18.132  0.00  0.00    +0.000 HD
ATOM     11  H   UNL     1      49.838   2.954  16.769  0.00  0.00    +0.000 HD
ENDBRANCH   1   8
BRANCH   4  12
ATOM     12  N   UNL     1      47.358   6.205  12.333  0.00  0.00    +0.000 N 
ATOM     13  H   UNL     1      48.176   6.808  12.229  0.00  0.00    +0.000 HD
BRANCH  12  14
ATOM     14  C   UNL     1      46.134   6.982  12.096  0.00  0.00    +0.000 C 
BRANCH  14  15
ATOM     15  C   UNL     1      44.968   6.053  11.852  0.00  0.00    +0.000 A 
ATOM     16  C   UNL     1      44.877   5.312  10.679  0.00  0.00    +0.000 A 
ATOM     17  C   UNL     1      43.796   4.461  10.507  0.00  0.00    +0.000 A 
ATOM     18  C   UNL     1      42.861   4.392  11.520  0.00  0.00    +0.000 A 
ATOM     19  N   UNL     1      42.962   5.117  12.651  0.00  0.00    +0.000 NA
ATOM     20  N   UNL     1      44.026   5.957  12.819  0.00  0.00    +0.000 NA
ENDBRANCH  14  15
ENDBRANCH  12  14
ENDBRANCH   4  12
TORSDOF 4
ENDMDL
