MODEL 1
REMARK VINA RESULT:    -6.882      0.000      0.000
REMARK INTER + INTRA:          -9.987
REMARK INTER:                  -9.095
REMARK INTRA:                  -0.892
REMARK UNBOUND:                -0.892
REMARK  Name = 
REMARK  8 active torsions:
REMARK  status: ('A' for Active; 'I' for Inactive)
REMARK    1  A    between atoms: C_1  and  C_2
REMARK    2  A    between atoms: C_2  and  C_3
REMARK    3  A    between atoms: C_2  and  N_4
REMARK    4  A    between atoms: C_2  and  C_5
REMARK    5  A    between atoms: C_5  and  C_6
REMARK    6  A    between atoms: C_9  and  C_10
REMARK    7  A    between atoms: C_10  and  N_11
REMARK    8  A    between atoms: C_17  and  C_18
REMARK                            x       y       z     vdW  Elec       q    Type
REMARK                         _______ _______ _______ _____ _____    ______ ____
ROOT
ATOM      1  C   UNL     1      43.910   6.475  10.971  0.00  0.00    +0.000 C 
ENDROOT
BRANCH   1   2
ATOM      2  N   UNL     1      43.832   5.025  11.076  0.00  0.00    +0.000 N 
ATOM      3  C   UNL     1      43.016   4.272  11.873  0.00  0.00    +0.000 A 
ATOM      4  N   UNL     1      43.028   3.003  11.528  0.00  0.00    +0.000 NA
ATOM      5  C   UNL     1      43.892   2.929  10.472  0.00  0.00    +0.000 A 
ATOM      6  N   UNL     1      44.171   1.817   9.756  0.00  0.00    +0.000 NA
ATOM      7  C   UNL     1      45.044   2.010   8.732  0.00  0.00    +0.000 A 
ATOM      8  C   UNL     1      45.668   3.212   8.399  0.00  0.00    +0.000 A 
ATOM      9  C   UNL     1      45.373   4.345   9.163  0.00  0.00    +0.000 A 
ATOM     10  C   UNL     1      44.448   4.169  10.191  0.00  0.00    +0.000 A 
BRANCH   8  11
ATOM     11  C   UNL     1      46.617   3.371   7.270  0.00  0.00    +0.000 C 
ATOM     12  N   UNL     1      47.555   2.404   7.039  0.00  0.00    +0.000 N 
ATOM     13  O   UNL     1      46.559   4.352   6.534  0.00  0.00    +0.000 OA
ATOM     14  H   UNL     1      47.661   1.543   7.546  0.00  0.00    +0.000 HD
ATOM     15  H   UNL     1      48.162   2.552   6.240  0.00  0.00    +0.000 HD
ENDBRANCH   8  11
ENDBRANCH   1   2
BRANCH   1  19
ATOM     16  C   UNL     1      46.959   8.280  13.311  0.00  0.00    +0.000 A 
ATOM     17  C   UNL     1      46.045   9.110  12.668  0.00  0.00    +0.000 A 
ATOM     18  C   UNL     1      45.016   8.535  11.928  0.00  0.00    +0.000 A 
ATOM     19  C   UNL     1      44.912   7.144  11.857  0.00  0.00    +0.000 A 
ATOM     20  C   UNL     1      45.830   6.396  12.583  0.00  0.00    +0.000 A 
ATOM     21  N   UNL     1      46.842   6.930  13.298  0.00  0.00    +0.000 NA
BRANCH  16  22
ATOM     22  C   UNL     1      48.186   8.853  13.980  0.00  0.00    +0.000 C 
BRANCH  22  24
ATOM     23  C   UNL     1      50.730   9.169  13.950  0.00  0.00    +0.000 C 
ATOM     24  C   UNL     1      49.535   8.427  13.332  0.00  0.00    +0.000 C 
ATOM     25  C   UNL     1      49.536   8.628  11.807  0.00  0.00    +0.000 C 
BRANCH  24  26
ATOM     26  N   UNL     1      49.743   6.987  13.600  0.00  0.00    +0.000 NA
ATOM     27  H   UNL     1      49.775   6.830  14.608  0.00  0.00    +0.000 HD
ATOM     28  H   UNL     1      50.658   6.704  13.249  0.00  0.00    +0.000 HD
ENDBRANCH  24  26
ENDBRANCH  22  24
ENDBRANCH  16  22
ENDBRANCH   1  19
TORSDOF 6
ENDMDL
MODEL 2
REMARK VINA RESULT:    -6.814      1.594      1.996
REMARK INTER + INTRA:          -9.897
REMARK INTER:                  -8.949
REMARK INTRA:                  -0.948
REMARK UNBOUND:                -0.892
REMARK  Name = 
REMARK  8 active torsions:
REMARK  status: ('A' for Active; 'I' for Inactive)
REMARK    1  A    between atoms: C_1  and  C_2
REMARK    2  A    between atoms: C_2  and  C_3
REMARK    3  A    between atoms: C_2  and  N_4
REMARK    4  A    between atoms: C_2  and  C_5
REMARK    5  A    between atoms: C_5  and  C_6
REMARK    6  A    between atoms: C_9  and  C_10
REMARK    7  A    between atoms: C_10  and  N_11
REMARK    8  A    between atoms: C_17  and  C_18
REMARK                            x       y       z     vdW  Elec       q    Type
REMARK                         _______ _______ _______ _____ _____    ______ ____
ROOT
ATOM      1  C   UNL     1      44.889   7.156  11.384  0.00  0.00    +0.000 C 
ENDROOT
BRANCH   1   2
ATOM      2  N   UNL     1      44.430   5.789  11.586  0.00  0.00    +0.000 N 
ATOM      3  C   UNL     1      43.543   5.317  12.511  0.00  0.00    +0.000 A 
ATOM      4  N   UNL     1      43.165   4.086  12.245  0.00  0.00    +0.000 NA
ATOM      5  C   UNL     1      43.840   3.744  11.107  0.00  0.00    +0.000 A 
ATOM      6  N   UNL     1      43.713   2.578  10.434  0.00  0.00    +0.000 NA
ATOM      7  C   UNL     1      44.473   2.491   9.310  0.00  0.00    +0.000 A 
ATOM      8  C   UNL     1      45.357   3.461   8.838  0.00  0.00    +0.000 A 
ATOM      9  C   UNL     1      45.480   4.653   9.559  0.00  0.00    +0.000 A 
ATOM     10  C   UNL     1      44.675   4.771  10.692  0.00  0.00    +0.000 A 
BRANCH   8  11
ATOM     11  C   UNL     1      46.167   3.317   7.604  0.00  0.00    +0.000 C 
ATOM     12  N   UNL     1      46.685   2.095   7.278  0.00  0.00    +0.000 N 
ATOM     13  O   UNL     1      46.365   4.279   6.866  0.00  0.00    +0.000 OA
ATOM     14  H   UNL     1      46.547   1.236   7.781  0.00  0.00    +0.000 HD
ATOM     15  H   UNL     1      47.210   2.049   6.412  0.00  0.00    +0.000 HD
ENDBRANCH   8  11
ENDBRANCH   1   2
BRANCH   1  19
ATOM     16  C   UNL     1      48.414   8.068  13.569  0.00  0.00    +0.000 A 
ATOM     17  C   UNL     1      48.530   7.263  12.439  0.00  0.00    +0.000 A 
ATOM     18  C   UNL     1      47.391   6.985  11.688  0.00  0.00    +0.000 A 
ATOM     19  C   UNL     1      46.163   7.528  12.073  0.00  0.00    +0.000 A 
ATOM     20  C   UNL     1      46.153   8.372  13.176  0.00  0.00    +0.000 A 
ATOM     21  N   UNL     1      47.242   8.647  13.924  0.00  0.00    +0.000 NA
BRANCH  16  22
ATOM     22  C   UNL     1      49.583   8.257  14.506  0.00  0.00    +0.000 C 
BRANCH  22  24
ATOM     23  C   UNL     1      49.121   8.492  17.018  0.00  0.00    +0.000 C 
ATOM     24  C   UNL     1      49.442   7.521  15.870  0.00  0.00    +0.000 C 
ATOM     25  C   UNL     1      50.697   6.704  16.223  0.00  0.00    +0.000 C 
BRANCH  24  26
ATOM     26  N   UNL     1      48.301   6.584  15.775  0.00  0.00    +0.000 NA
ATOM     27  H   UNL     1      47.426   7.107  15.822  0.00  0.00    +0.000 HD
ATOM     28  H   UNL     1      48.297   5.968  16.589  0.00  0.00    +0.000 HD
ENDBRANCH  24  26
ENDBRANCH  22  24
ENDBRANCH  16  22
ENDBRANCH   1  19
TORSDOF 6
ENDMDL
MODEL 3
REMARK VINA RESULT:    -6.319      3.746      5.117
REMARK INTER + INTRA:          -9.243
REMARK INTER:                  -8.348
REMARK INTRA:                  -0.895
REMARK UNBOUND:                -0.892
REMARK  Name = 
REMARK  8 active torsions:
REMARK  status: ('A' for Active; 'I' for Inactive)
REMARK    1  A    between atoms: C_1  and  C_2
REMARK    2  A    between atoms: C_2  and  C_3
REMARK    3  A    between atoms: C_2  and  N_4
REMARK    4  A    between atoms: C_2  and  C_5
REMARK    5  A    between atoms: C_5  and  C_6
REMARK    6  A    between atoms: C_9  and  C_10
REMARK    7  A    between atoms: C_10  and  N_11
REMARK    8  A    between atoms: C_17  and  C_18
REMARK                            x       y       z     vdW  Elec       q    Type
REMARK                         _______ _______ _______ _____ _____    ______ ____
ROOT
ATOM      1  C   UNL     1      47.672   6.535  12.666  0.00  0.00    +0.000 C 
ENDROOT
BRANCH   1   2
ATOM      2  N   UNL     1      46.325   7.014  12.394  0.00  0.00    +0.000 N 
ATOM      3  C   UNL     1      45.881   8.303  12.301  0.00  0.00    +0.000 A 
ATOM      4  N   UNL     1      44.671   8.370  11.792  0.00  0.00    +0.000 NA
ATOM      5  C   UNL     1      44.312   7.073  11.552  0.00  0.00    +0.000 A 
ATOM      6  N   UNL     1      43.161   6.667  10.972  0.00  0.00    +0.000 NA
ATOM      7  C   UNL     1      43.053   5.321  10.817  0.00  0.00    +0.000 A 
ATOM      8  C   UNL     1      43.988   4.369  11.221  0.00  0.00    +0.000 A 
ATOM      9  C   UNL     1      45.165   4.814  11.831  0.00  0.00    +0.000 A 
ATOM     10  C   UNL     1      45.306   6.195  11.959  0.00  0.00    +0.000 A 
BRANCH   8  11
ATOM     11  C   UNL     1      43.822   2.907  11.030  0.00  0.00    +0.000 C 
ATOM     12  N   UNL     1      44.615   2.252  10.131  0.00  0.00    +0.000 N 
ATOM     13  O   UNL     1      42.992   2.279  11.682  0.00  0.00    +0.000 OA
ATOM     14  H   UNL     1      45.354   2.656   9.583  0.00  0.00    +0.000 HD
ATOM     15  H   UNL     1      44.476   1.251  10.058  0.00  0.00    +0.000 HD
ENDBRANCH   8  11
ENDBRANCH   1   2
BRANCH   1  19
ATOM     16  C   UNL     1      48.711   5.461  16.641  0.00  0.00    +0.000 A 
ATOM     17  C   UNL     1      49.192   6.667  16.139  0.00  0.00    +0.000 A 
ATOM     18  C   UNL     1      48.829   7.054  14.852  0.00  0.00    +0.000 A 
ATOM     19  C   UNL     1      47.984   6.236  14.098  0.00  0.00    +0.000 A 
ATOM     20  C   UNL     1      47.502   5.083  14.704  0.00  0.00    +0.000 A 
ATOM     21  N   UNL     1      47.847   4.683  15.946  0.00  0.00    +0.000 NA
BRANCH  16  22
ATOM     22  C   UNL     1      49.210   4.920  17.960  0.00  0.00    +0.000 C 
BRANCH  22  24
ATOM     23  C   UNL     1      48.270   6.637  19.616  0.00  0.00    +0.000 C 
ATOM     24  C   UNL     1      48.254   5.169  19.163  0.00  0.00    +0.000 C 
ATOM     25  C   UNL     1      48.576   4.258  20.360  0.00  0.00    +0.000 C 
BRANCH  24  26
ATOM     26  N   UNL     1      46.872   4.874  18.725  0.00  0.00    +0.000 NA
ATOM     27  H   UNL     1      46.877   4.062  18.107  0.00  0.00    +0.000 HD
ATOM     28  H   UNL     1      46.522   5.647  18.159  0.00  0.00    +0.000 HD
ENDBRANCH  24  26
ENDBRANCH  22  24
ENDBRANCH  16  22
ENDBRANCH   1  19
TORSDOF 6
ENDMDL
MODEL 4
REMARK VINA RESULT:    -5.991      2.312      3.091
REMARK INTER + INTRA:          -8.810
REMARK INTER:                  -7.921
REMARK INTRA:                  -0.889
REMARK UNBOUND:                -0.892
REMARK  Name = 
REMARK  8 active torsions:
REMARK  status: ('A' for Active; 'I' for Inactive)
REMARK    1  A    between atoms: C_1  and  C_2
REMARK    2  A    between atoms: C_2  and  C_3
REMARK    3  A    between atoms: C_2  and  N_4
REMARK    4  A    between atoms: C_2  and  C_5
REMARK    5  A    between atoms: C_5  and  C_6
REMARK    6  A    between atoms: C_9  and  C_10
REMARK    7  A    between atoms: C_10  and  N_11
REMARK    8  A    between atoms: C_17  and  C_18
REMARK                            x       y       z     vdW  Elec       q    Type
REMARK                         _______ _______ _______ _____ _____    ______ ____
ROOT
ATOM      1  C   UNL     1      46.159   3.577  13.481  0.00  0.00    +0.000 C 
ENDROOT
BRANCH   1   2
ATOM      2  N   UNL     1      45.081   4.106  12.658  0.00  0.00    +0.000 N 
ATOM      3  C   UNL     1      44.179   5.086  12.963  0.00  0.00    +0.000 A 
ATOM      4  N   UNL     1      43.516   5.490  11.902  0.00  0.00    +0.000 NA
ATOM      5  C   UNL     1      44.000   4.736  10.870  0.00  0.00    +0.000 A 
ATOM      6  N   UNL     1      43.643   4.854   9.571  0.00  0.00    +0.000 NA
ATOM      7  C   UNL     1      44.293   4.006   8.730  0.00  0.00    +0.000 A 
ATOM      8  C   UNL     1      45.237   3.047   9.096  0.00  0.00    +0.000 A 
ATOM      9  C   UNL     1      45.579   2.937  10.448  0.00  0.00    +0.000 A 
ATOM     10  C   UNL     1      44.950   3.828  11.315  0.00  0.00    +0.000 A 
BRANCH   8  11
ATOM     11  C   UNL     1      45.918   2.142   8.138  0.00  0.00    +0.000 C 
ATOM     12  N   UNL     1      46.461   2.659   6.996  0.00  0.00    +0.000 N 
ATOM     13  O   UNL     1      46.011   0.939   8.368  0.00  0.00    +0.000 OA
ATOM     14  H   UNL     1      46.484   3.628   6.732  0.00  0.00    +0.000 HD
ATOM     15  H   UNL     1      46.935   1.999   6.388  0.00  0.00    +0.000 HD
ENDBRANCH   8  11
ENDBRANCH   1   2
BRANCH   1  19
ATOM     16  C   UNL     1      48.642   6.645  15.047  0.00  0.00    +0.000 A 
ATOM     17  C   UNL     1      48.141   5.691  15.928  0.00  0.00    +0.000 A 
ATOM     18  C   UNL     1      47.357   4.656  15.426  0.00  0.00    +0.000 A 
ATOM     19  C   UNL     1      47.101   4.587  14.054  0.00  0.00    +0.000 A 
ATOM     20  C   UNL     1      47.697   5.544  13.244  0.00  0.00    +0.000 A 
ATOM     21  N   UNL     1      48.452   6.562  13.708  0.00  0.00    +0.000 NA
BRANCH  16  22
ATOM     22  C   UNL     1      49.352   7.875  15.562  0.00  0.00    +0.000 C 
BRANCH  22  24
ATOM     23  C   UNL     1      49.127  10.386  15.094  0.00  0.00    +0.000 C 
ATOM     24  C   UNL     1      48.450   9.138  15.682  0.00  0.00    +0.000 C 
ATOM     25  C   UNL     1      48.030   9.416  17.135  0.00  0.00    +0.000 C 
BRANCH  24  26
ATOM     26  N   UNL     1      47.222   8.907  14.890  0.00  0.00    +0.000 NA
ATOM     27  H   UNL     1      46.818   9.804  14.620  0.00  0.00    +0.000 HD
ATOM     28  H   UNL     1      46.519   8.454  15.475  0.00  0.00    +0.000 HD
ENDBRANCH  24  26
ENDBRANCH  22  24
ENDBRANCH  16  22
ENDBRANCH   1  19
TORSDOF 6
ENDMDL
MODEL 5
REMARK VINA RESULT:    -5.856      3.861      7.622
REMARK INTER + INTRA:          -8.631
REMARK INTER:                  -7.530
REMARK INTRA:                  -1.100
REMARK UNBOUND:                -0.892
REMARK  Name = 
REMARK  8 active torsions:
REMARK  status: ('A' for Active; 'I' for Inactive)
REMARK    1  A    between atoms: C_1  and  C_2
REMARK    2  A    between atoms: C_2  and  C_3
REMARK    3  A    between atoms: C_2  and  N_4
REMARK    4  A    between atoms: C_2  and  C_5
REMARK    5  A    between atoms: C_5  and  C_6
REMARK    6  A    between atoms: C_9  and  C_10
REMARK    7  A    between atoms: C_10  and  N_11
REMARK    8  A    between atoms: C_17  and  C_18
REMARK                            x       y       z     vdW  Elec       q    Type
REMARK                         _______ _______ _______ _____ _____    ______ ____
ROOT
ATOM      1  C   UNL     1      49.447   8.003  14.471  0.00  0.00    +0.000 C 
ENDROOT
BRANCH   1   2
ATOM      2  N   UNL     1      49.217   8.001  15.908  0.00  0.00    +0.000 N 
ATOM      3  C   UNL     1      49.186   9.064  16.767  0.00  0.00    +0.000 A 
ATOM      4  N   UNL     1      48.699   8.730  17.942  0.00  0.00    +0.000 NA
ATOM      5  C   UNL     1      48.411   7.398  17.845  0.00  0.00    +0.000 A 
ATOM      6  N   UNL     1      47.833   6.643  18.805  0.00  0.00    +0.000 NA
ATOM      7  C   UNL     1      47.623   5.347  18.452  0.00  0.00    +0.000 A 
ATOM      8  C   UNL     1      47.971   4.759  17.237  0.00  0.00    +0.000 A 
ATOM      9  C   UNL     1      48.580   5.558  16.264  0.00  0.00    +0.000 A 
ATOM     10  C   UNL     1      48.764   6.899  16.599  0.00  0.00    +0.000 A 
BRANCH   8  11
ATOM     11  C   UNL     1      47.721   3.336  16.900  0.00  0.00    +0.000 C 
ATOM     12  N   UNL     1      46.919   2.584  17.710  0.00  0.00    +0.000 N 
ATOM     13  O   UNL     1      48.216   2.833  15.894  0.00  0.00    +0.000 OA
ATOM     14  H   UNL     1      46.428   2.905  18.526  0.00  0.00    +0.000 HD
ATOM     15  H   UNL     1      46.763   1.625  17.420  0.00  0.00    +0.000 HD
ENDBRANCH   8  11
ENDBRANCH   1   2
BRANCH   1  19
ATOM     16  C   UNL     1      45.968   7.186  12.177  0.00  0.00    +0.000 A 
ATOM     17  C   UNL     1      45.954   8.294  13.021  0.00  0.00    +0.000 A 
ATOM     18  C   UNL     1      47.099   8.599  13.751  0.00  0.00    +0.000 A 
ATOM     19  C   UNL     1      48.238   7.801  13.613  0.00  0.00    +0.000 A 
ATOM     20  C   UNL     1      48.181   6.757  12.700  0.00  0.00    +0.000 A 
ATOM     21  N   UNL     1      47.080   6.436  11.989  0.00  0.00    +0.000 NA
BRANCH  16  22
ATOM     22  C   UNL     1      44.704   6.718  11.497  0.00  0.00    +0.000 C 
BRANCH  22  24
ATOM     23  C   UNL     1      44.494   4.212  10.991  0.00  0.00    +0.000 C 
ATOM     24  C   UNL     1      44.179   5.338  11.990  0.00  0.00    +0.000 C 
ATOM     25  C   UNL     1      42.669   5.359  12.281  0.00  0.00    +0.000 C 
BRANCH  24  26
ATOM     26  N   UNL     1      44.881   4.998  13.248  0.00  0.00    +0.000 NA
ATOM     27  H   UNL     1      45.434   4.151  13.111  0.00  0.00    +0.000 HD
ATOM     28  H   UNL     1      44.196   4.766  13.967  0.00  0.00    +0.000 HD
ENDBRANCH  24  26
ENDBRANCH  22  24
ENDBRANCH  16  22
ENDBRANCH   1  19
TORSDOF 6
ENDMDL
MODEL 6
REMARK VINA RESULT:    -5.774      3.416      7.585
REMARK INTER + INTRA:          -8.523
REMARK INTER:                  -7.868
REMARK INTRA:                  -0.655
REMARK UNBOUND:                -0.892
REMARK  Name = 
REMARK  8 active torsions:
REMARK  status: ('A' for Active; 'I' for Inactive)
REMARK    1  A    between atoms: C_1  and  C_2
REMARK    2  A    between atoms: C_2  and  C_3
REMARK    3  A    between atoms: C_2  and  N_4
REMARK    4  A    between atoms: C_2  and  C_5
REMARK    5  A    between atoms: C_5  and  C_6
REMARK    6  A    between atoms: C_9  and  C_10
REMARK    7  A    between atoms: C_10  and  N_11
REMARK    8  A    between atoms: C_17  and  C_18
REMARK                            x       y       z     vdW  Elec       q    Type
REMARK                         _______ _______ _______ _____ _____    ______ ____
ROOT
ATOM      1  C   UNL     1      47.389   8.495  13.828  0.00  0.00    +0.000 C 
ENDROOT
BRANCH   1   2
ATOM      2  N   UNL     1      48.675   7.941  14.223  0.00  0.00    +0.000 N 
ATOM      3  C   UNL     1      49.926   8.430  13.973  0.00  0.00    +0.000 A 
ATOM      4  N   UNL     1      50.844   7.822  14.692  0.00  0.00    +0.000 NA
ATOM      5  C   UNL     1      50.163   6.897  15.432  0.00  0.00    +0.000 A 
ATOM      6  N   UNL     1      50.702   6.078  16.362  0.00  0.00    +0.000 NA
ATOM      7  C   UNL     1      49.806   5.266  16.984  0.00  0.00    +0.000 A 
ATOM      8  C   UNL     1      48.438   5.198  16.723  0.00  0.00    +0.000 A 
ATOM      9  C   UNL     1      47.907   6.047  15.747  0.00  0.00    +0.000 A 
ATOM     10  C   UNL     1      48.809   6.913  15.130  0.00  0.00    +0.000 A 
BRANCH   8  11
ATOM     11  C   UNL     1      47.501   4.291  17.430  0.00  0.00    +0.000 C 
ATOM     12  N   UNL     1      47.535   4.219  18.794  0.00  0.00    +0.000 N 
ATOM     13  O   UNL     1      46.687   3.617  16.804  0.00  0.00    +0.000 OA
ATOM     14  H   UNL     1      48.123   4.758  19.405  0.00  0.00    +0.000 HD
ATOM     15  H   UNL     1      46.856   3.602  19.226  0.00  0.00    +0.000 HD
ENDBRANCH   8  11
ENDBRANCH   1   2
BRANCH   1  19
ATOM     16  C   UNL     1      45.327   6.039  11.044  0.00  0.00    +0.000 A 
ATOM     17  C   UNL     1      44.575   6.771  11.958  0.00  0.00    +0.000 A 
ATOM     18  C   UNL     1      45.232   7.611  12.853  0.00  0.00    +0.000 A 
ATOM     19  C   UNL     1      46.624   7.714  12.807  0.00  0.00    +0.000 A 
ATOM     20  C   UNL     1      47.286   6.997  11.819  0.00  0.00    +0.000 A 
ATOM     21  N   UNL     1      46.672   6.169  10.948  0.00  0.00    +0.000 NA
BRANCH  16  22
ATOM     22  C   UNL     1      44.677   4.992  10.171  0.00  0.00    +0.000 C 
BRANCH  22  24
ATOM     23  C   UNL     1      45.213   3.463  12.159  0.00  0.00    +0.000 C 
ATOM     24  C   UNL     1      44.353   3.655  10.900  0.00  0.00    +0.000 C 
ATOM     25  C   UNL     1      44.513   2.435   9.977  0.00  0.00    +0.000 C 
BRANCH  24  26
ATOM     26  N   UNL     1      42.945   3.703  11.351  0.00  0.00    +0.000 NA
ATOM     27  H   UNL     1      42.891   3.424  12.330  0.00  0.00    +0.000 HD
ATOM     28  H   UNL     1      42.399   3.010  10.837  0.00  0.00    +0.000 HD
ENDBRANCH  24  26
ENDBRANCH  22  24
ENDBRANCH  16  22
ENDBRANCH   1  19
TORSDOF 6
ENDMDL
MODEL 7
REMARK VINA RESULT:    -5.733      2.689      4.437
REMARK INTER + INTRA:          -8.468
REMARK INTER:                  -7.612
REMARK INTRA:                  -0.856
REMARK UNBOUND:                -0.892
REMARK  Name = 
REMARK  8 active torsions:
REMARK  status: ('A' for Active; 'I' for Inactive)
REMARK    1  A    between atoms: C_1  and  C_2
REMARK    2  A    between atoms: C_2  and  C_3
REMARK    3  A    between atoms: C_2  and  N_4
REMARK    4  A    between atoms: C_2  and  C_5
REMARK    5  A    between atoms: C_5  and  C_6
REMARK    6  A    between atoms: C_9  and  C_10
REMARK    7  A    between atoms: C_10  and  N_11
REMARK    8  A    between atoms: C_17  and  C_18
REMARK                            x       y       z     vdW  Elec       q    Type
REMARK                         _______ _______ _______ _____ _____    ______ ____
ROOT
ATOM      1  C   UNL     1      47.435   7.798  13.602  0.00  0.00    +0.000 C 
ENDROOT
BRANCH   1   2
ATOM      2  N   UNL     1      47.414   6.352  13.769  0.00  0.00    +0.000 N 
ATOM      3  C   UNL     1      47.944   5.603  14.782  0.00  0.00    +0.000 A 
ATOM      4  N   UNL     1      47.518   4.359  14.747  0.00  0.00    +0.000 NA
ATOM      5  C   UNL     1      46.686   4.297  13.664  0.00  0.00    +0.000 A 
ATOM      6  N   UNL     1      45.974   3.215  13.277  0.00  0.00    +0.000 NA
ATOM      7  C   UNL     1      45.195   3.416  12.182  0.00  0.00    +0.000 A 
ATOM      8  C   UNL     1      45.103   4.596  11.443  0.00  0.00    +0.000 A 
ATOM      9  C   UNL     1      45.860   5.696  11.856  0.00  0.00    +0.000 A 
ATOM     10  C   UNL     1      46.633   5.515  13.002  0.00  0.00    +0.000 A 
BRANCH   8  11
ATOM     11  C   UNL     1      44.237   4.765  10.251  0.00  0.00    +0.000 C 
ATOM     12  N   UNL     1      44.761   4.563   9.005  0.00  0.00    +0.000 N 
ATOM     13  O   UNL     1      43.053   5.069  10.373  0.00  0.00    +0.000 OA
ATOM     14  H   UNL     1      45.697   4.267   8.793  0.00  0.00    +0.000 HD
ATOM     15  H   UNL     1      44.118   4.668   8.228  0.00  0.00    +0.000 HD
ENDBRANCH   8  11
ENDBRANCH   1   2
BRANCH   1  19
ATOM     16  C   UNL     1      51.019   9.147  11.766  0.00  0.00    +0.000 A 
ATOM     17  C   UNL     1      49.807   9.484  11.170  0.00  0.00    +0.000 A 
ATOM     18  C   UNL     1      48.621   9.083  11.779  0.00  0.00    +0.000 A 
ATOM     19  C   UNL     1      48.669   8.367  12.977  0.00  0.00    +0.000 A 
ATOM     20  C   UNL     1      49.920   8.132  13.533  0.00  0.00    +0.000 A 
ATOM     21  N   UNL     1      51.083   8.502  12.956  0.00  0.00    +0.000 NA
BRANCH  16  22
ATOM     22  C   UNL     1      52.327   9.410  11.059  0.00  0.00    +0.000 C 
BRANCH  22  24
ATOM     23  C   UNL     1      54.337   8.457   9.783  0.00  0.00    +0.000 C 
ATOM     24  C   UNL     1      53.099   8.128  10.632  0.00  0.00    +0.000 C 
ATOM     25  C   UNL     1      52.203   7.136   9.871  0.00  0.00    +0.000 C 
BRANCH  24  26
ATOM     26  N   UNL     1      53.589   7.453  11.854  0.00  0.00    +0.000 NA
ATOM     27  H   UNL     1      52.814   7.325  12.506  0.00  0.00    +0.000 HD
ATOM     28  H   UNL     1      54.255   8.059  12.334  0.00  0.00    +0.000 HD
ENDBRANCH  24  26
ENDBRANCH  22  24
ENDBRANCH  16  22
ENDBRANCH   1  19
TORSDOF 6
ENDMDL
MODEL 8
REMARK VINA RESULT:    -5.135      5.791      9.156
REMARK INTER + INTRA:          -7.678
REMARK INTER:                  -6.712
REMARK INTRA:                  -0.966
REMARK UNBOUND:                -0.892
REMARK  Name = 
REMARK  8 active torsions:
REMARK  status: ('A' for Active; 'I' for Inactive)
REMARK    1  A    between atoms: C_1  and  C_2
REMARK    2  A    between atoms: C_2  and  C_3
REMARK    3  A    between atoms: C_2  and  N_4
REMARK    4  A    between atoms: C_2  and  C_5
REMARK    5  A    between atoms: C_5  and  C_6
REMARK    6  A    between atoms: C_9  and  C_10
REMARK    7  A    between atoms: C_10  and  N_11
REMARK    8  A    between atoms: C_17  and  C_18
REMARK                            x       y       z     vdW  Elec       q    Type
REMARK                         _______ _______ _______ _____ _____    ______ ____
ROOT
ATOM      1  C   UNL     1      49.228   5.470  17.952  0.00  0.00    +0.000 C 
ENDROOT
BRANCH   1   2
ATOM      2  N   UNL     1      50.663   5.607  17.750  0.00  0.00    +0.000 N 
ATOM      3  C   UNL     1      51.424   6.741  17.790  0.00  0.00    +0.000 A 
ATOM      4  N   UNL     1      52.710   6.468  17.821  0.00  0.00    +0.000 NA
ATOM      5  C   UNL     1      52.786   5.104  17.791  0.00  0.00    +0.000 A 
ATOM      6  N   UNL     1      53.922   4.375  17.865  0.00  0.00    +0.000 NA
ATOM      7  C   UNL     1      53.729   3.029  17.844  0.00  0.00    +0.000 A 
ATOM      8  C   UNL     1      52.503   2.375  17.729  0.00  0.00    +0.000 A 
ATOM      9  C   UNL     1      51.344   3.152  17.641  0.00  0.00    +0.000 A 
ATOM     10  C   UNL     1      51.524   4.534  17.701  0.00  0.00    +0.000 A 
BRANCH   8  11
ATOM     11  C   UNL     1      52.346   0.900  17.710  0.00  0.00    +0.000 C 
ATOM     12  N   UNL     1      53.383   0.119  17.286  0.00  0.00    +0.000 N 
ATOM     13  O   UNL     1      51.300   0.375  18.084  0.00  0.00    +0.000 OA
ATOM     14  H   UNL     1      54.294   0.438  17.005  0.00  0.00    +0.000 HD
ATOM     15  H   UNL     1      53.230  -0.883  17.316  0.00  0.00    +0.000 HD
ENDBRANCH   8  11
ENDBRANCH   1   2
BRANCH   1  19
ATOM     16  C   UNL     1      47.131   4.899  14.303  0.00  0.00    +0.000 A 
ATOM     17  C   UNL     1      46.816   4.073  15.379  0.00  0.00    +0.000 A 
ATOM     18  C   UNL     1      47.466   4.271  16.594  0.00  0.00    +0.000 A 
ATOM     19  C   UNL     1      48.406   5.298  16.714  0.00  0.00    +0.000 A 
ATOM     20  C   UNL     1      48.608   6.113  15.608  0.00  0.00    +0.000 A 
ATOM     21  N   UNL     1      47.998   5.934  14.418  0.00  0.00    +0.000 NA
BRANCH  16  22
ATOM     22  C   UNL     1      46.581   4.617  12.925  0.00  0.00    +0.000 C 
BRANCH  22  24
ATOM     23  C   UNL     1      44.032   4.878  12.829  0.00  0.00    +0.000 C 
ATOM     24  C   UNL     1      45.389   5.525  12.507  0.00  0.00    +0.000 C 
ATOM     25  C   UNL     1      45.438   5.902  11.017  0.00  0.00    +0.000 C 
BRANCH  24  26
ATOM     26  N   UNL     1      45.460   6.775  13.295  0.00  0.00    +0.000 NA
ATOM     27  H   UNL     1      44.863   6.694  14.118  0.00  0.00    +0.000 HD
ATOM     28  H   UNL     1      45.072   7.545  12.749  0.00  0.00    +0.000 HD
ENDBRANCH  24  26
ENDBRANCH  22  24
ENDBRANCH  16  22
ENDBRANCH   1  19
TORSDOF 6
ENDMDL
MODEL 9
REMARK VINA RESULT:    -5.002      5.731      7.908
REMARK INTER + INTRA:          -7.502
REMARK INTER:                  -6.902
REMARK INTRA:                  -0.600
REMARK UNBOUND:                -0.892
REMARK  Name = 
REMARK  8 active torsions:
REMARK  status: ('A' for Active; 'I' for Inactive)
REMARK    1  A    between atoms: C_1  and  C_2
REMARK    2  A    between atoms: C_2  and  C_3
REMARK    3  A    between atoms: C_2  and  N_4
REMARK    4  A    between atoms: C_2  and  C_5
REMARK    5  A    between atoms: C_5  and  C_6
REMARK    6  A    between atoms: C_9  and  C_10
REMARK    7  A    between atoms: C_10  and  N_11
REMARK    8  A    between atoms: C_17  and  C_18
REMARK                            x       y       z     vdW  Elec       q    Type
REMARK                         _______ _______ _______ _____ _____    ______ ____
ROOT
ATOM      1  C   UNL     1      48.478   6.155  18.324  0.00  0.00    +0.000 C 
ENDROOT
BRANCH   1   2
ATOM      2  N   UNL     1      48.330   4.786  17.852  0.00  0.00    +0.000 N 
ATOM      3  C   UNL     1      47.253   4.207  17.242  0.00  0.00    +0.000 A 
ATOM      4  N   UNL     1      47.554   3.038  16.721  0.00  0.00    +0.000 NA
ATOM      5  C   UNL     1      48.875   2.847  17.012  0.00  0.00    +0.000 A 
ATOM      6  N   UNL     1      49.627   1.795  16.617  0.00  0.00    +0.000 NA
ATOM      7  C   UNL     1      50.926   1.852  17.011  0.00  0.00    +0.000 A 
ATOM      8  C   UNL     1      51.509   2.857  17.783  0.00  0.00    +0.000 A 
ATOM      9  C   UNL     1      50.707   3.928  18.190  0.00  0.00    +0.000 A 
ATOM     10  C   UNL     1      49.381   3.902  17.758  0.00  0.00    +0.000 A 
BRANCH   8  11
ATOM     11  C   UNL     1      52.936   2.873  18.188  0.00  0.00    +0.000 C 
ATOM     12  N   UNL     1      53.273   2.553  19.473  0.00  0.00    +0.000 N 
ATOM     13  O   UNL     1      53.816   3.156  17.379  0.00  0.00    +0.000 OA
ATOM     14  H   UNL     1      52.643   2.262  20.200  0.00  0.00    +0.000 HD
ATOM     15  H   UNL     1      54.264   2.556  19.689  0.00  0.00    +0.000 HD
ENDBRANCH   8  11
ENDBRANCH   1   2
BRANCH   1  19
ATOM     16  C   UNL     1      48.757   8.989  15.174  0.00  0.00    +0.000 A 
ATOM     17  C   UNL     1      48.353   9.438  16.428  0.00  0.00    +0.000 A 
ATOM     18  C   UNL     1      48.294   8.530  17.482  0.00  0.00    +0.000 A 
ATOM     19  C   UNL     1      48.651   7.197  17.265  0.00  0.00    +0.000 A 
ATOM     20  C   UNL     1      49.104   6.855  15.998  0.00  0.00    +0.000 A 
ATOM     21  N   UNL     1      49.160   7.714  14.959  0.00  0.00    +0.000 NA
BRANCH  16  22
ATOM     22  C   UNL     1      48.675   9.894  13.967  0.00  0.00    +0.000 C 
BRANCH  22  24
ATOM     23  C   UNL     1      48.140   8.441  11.922  0.00  0.00    +0.000 C 
ATOM     24  C   UNL     1      47.600   9.478  12.921  0.00  0.00    +0.000 C 
ATOM     25  C   UNL     1      47.037  10.686  12.154  0.00  0.00    +0.000 C 
BRANCH  24  26
ATOM     26  N   UNL     1      46.480   8.833  13.639  0.00  0.00    +0.000 NA
ATOM     27  H   UNL     1      46.244   9.383  14.466  0.00  0.00    +0.000 HD
ATOM     28  H   UNL     1      46.779   7.923  13.991  0.00  0.00    +0.000 HD
ENDBRANCH  24  26
ENDBRANCH  22  24
ENDBRANCH  16  22
ENDBRANCH   1  19
TORSDOF 6
ENDMDL
