MODEL 1
REMARK VINA RESULT:    -8.865      0.000      0.000
REMARK INTER + INTRA:         -13.947
REMARK INTER:                 -12.493
REMARK INTRA:                  -1.455
REMARK UNBOUND:                -1.455
REMARK  Name = 
REMARK  7 active torsions:
REMARK  status: ('A' for Active; 'I' for Inactive)
REMARK    1  A    between atoms: C_2  and  C_4
REMARK    2  A    between atoms: C_7  and  N_8
REMARK    3  A    between atoms: N_8  and  C_9
REMARK    4  A    between atoms: C_9  and  C_10
REMARK    5  A    between atoms: C_12  and  C_13
REMARK    6  A    between atoms: C_18  and  O_19
REMARK    7  A    between atoms: O_19  and  C_20
REMARK                            x       y       z     vdW  Elec       q    Type
REMARK                         _______ _______ _______ _____ _____    ______ ____
ROOT
ATOM      1  C   UNL     1      43.832   4.730  11.460  0.00  0.00    +0.000 C 
ATOM      2  C   UNL     1      42.596   5.050  12.294  0.00  0.00    +0.000 C 
ATOM      3  C   UNL     1      43.020   5.995  11.220  0.00  0.00    +0.000 C 
ENDROOT
BRANCH   1   4
ATOM      4  C   UNL     1      45.196   4.928  12.141  0.00  0.00    +0.000 A 
ATOM      5  C   UNL     1      45.993   6.025  11.795  0.00  0.00    +0.000 A 
ATOM      6  C   UNL     1      47.103   6.404  12.559  0.00  0.00    +0.000 A 
ATOM      7  C   UNL     1      47.401   5.571  13.646  0.00  0.00    +0.000 A 
ATOM      8  C   UNL     1      46.642   4.432  13.873  0.00  0.00    +0.000 A 
ATOM      9  N   UNL     1      45.559   4.096  13.147  0.00  0.00    +0.000 NA
BRANCH   6  10
ATOM     10  C   UNL     1      47.932   7.603  12.219  0.00  0.00    +0.000 A 
ATOM     11  C   UNL     1      49.283   7.421  11.849  0.00  0.00    +0.000 A 
ATOM     12  C   UNL     1      50.102   8.483  11.455  0.00  0.00    +0.000 A 
ATOM     13  C   UNL     1      49.579   9.764  11.381  0.00  0.00    +0.000 A 
ATOM     14  C   UNL     1      48.258   9.990  11.750  0.00  0.00    +0.000 A 
ATOM     15  C   UNL     1      47.447   8.941  12.214  0.00  0.00    +0.000 A 
BRANCH  15  16
ATOM     16  O   UNL     1      46.162   9.159  12.652  0.00  0.00    +0.000 OA
BRANCH  16  17
ATOM     17  C   UNL     1      45.270   9.792  11.749  0.00  0.00    +0.000 C 
ATOM     18  F   UNL     1      44.744   8.857  10.917  0.00  0.00    +0.000 F 
ATOM     19  F   UNL     1      44.239  10.282  12.482  0.00  0.00    +0.000 F 
ENDBRANCH  16  17
ENDBRANCH  15  16
ENDBRANCH   6  10
ENDBRANCH   1   4
BRANCH   1  20
ATOM     20  N   UNL     1      43.725   3.531  10.583  0.00  0.00    +0.000 N 
ATOM     21  H   UNL     1      43.501   2.693  11.119  0.00  0.00    +0.000 HD
BRANCH  20  25
ATOM     22  C   UNL     1      46.366   2.678   7.514  0.00  0.00    +0.000 A 
ATOM     23  N   UNL     1      45.994   1.659   8.325  0.00  0.00    +0.000 NA
ATOM     24  C   UNL     1      45.127   1.995   9.309  0.00  0.00    +0.000 A 
ATOM     25  C   UNL     1      44.647   3.275   9.551  0.00  0.00    +0.000 A 
ATOM     26  C   UNL     1      45.081   4.205   8.622  0.00  0.00    +0.000 A 
ATOM     27  N   UNL     1      45.937   3.948   7.608  0.00  0.00    +0.000 NA
BRANCH  22  29
ATOM     28  N   UNL     1      47.210   3.038   5.247  0.00  0.00    +0.000 N 
ATOM     29  C   UNL     1      47.370   2.355   6.432  0.00  0.00    +0.000 C 
ATOM     30  O   UNL     1      48.274   1.534   6.552  0.00  0.00    +0.000 OA
ATOM     31  H   UNL     1      47.839   2.841   4.484  0.00  0.00    +0.000 HD
ATOM     32  H   UNL     1      46.458   3.708   5.145  0.00  0.00    +0.000 HD
ENDBRANCH  22  29
ENDBRANCH  20  25
ENDBRANCH   1  20
TORSDOF 7
ENDMDL
MODEL 2
REMARK VINA RESULT:    -8.146      2.253      2.495
REMARK INTER + INTRA:         -12.934
REMARK INTER:                 -11.625
REMARK INTRA:                  -1.308
REMARK UNBOUND:                -1.455
REMARK  Name = 
REMARK  7 active torsions:
REMARK  status: ('A' for Active; 'I' for Inactive)
REMARK    1  A    between atoms: C_2  and  C_4
REMARK    2  A    between atoms: C_7  and  N_8
REMARK    3  A    between atoms: N_8  and  C_9
REMARK    4  A    between atoms: C_9  and  C_10
REMARK    5  A    between atoms: C_12  and  C_13
REMARK    6  A    between atoms: C_18  and  O_19
REMARK    7  A    between atoms: O_19  and  C_20
REMARK                            x       y       z     vdW  Elec       q    Type
REMARK                         _______ _______ _______ _____ _____    ______ ____
ROOT
ATOM      1  C   UNL     1      43.887   4.837  11.465  0.00  0.00    +0.000 C 
ATOM      2  C   UNL     1      42.689   5.181  12.344  0.00  0.00    +0.000 C 
ATOM      3  C   UNL     1      43.222   6.205  11.399  0.00  0.00    +0.000 C 
ENDROOT
BRANCH   1   4
ATOM      4  C   UNL     1      45.261   4.792  12.154  0.00  0.00    +0.000 A 
ATOM      5  C   UNL     1      46.122   5.891  12.059  0.00  0.00    +0.000 A 
ATOM      6  C   UNL     1      47.254   6.017  12.875  0.00  0.00    +0.000 A 
ATOM      7  C   UNL     1      47.501   4.939  13.736  0.00  0.00    +0.000 A 
ATOM      8  C   UNL     1      46.674   3.826  13.705  0.00  0.00    +0.000 A 
ATOM      9  N   UNL     1      45.573   3.731  12.936  0.00  0.00    +0.000 NA
BRANCH   6  10
ATOM     10  C   UNL     1      48.153   7.211  12.809  0.00  0.00    +0.000 A 
ATOM     11  C   UNL     1      48.687   7.601  11.559  0.00  0.00    +0.000 A 
ATOM     12  C   UNL     1      49.480   8.740  11.406  0.00  0.00    +0.000 A 
ATOM     13  C   UNL     1      49.734   9.555  12.498  0.00  0.00    +0.000 A 
ATOM     14  C   UNL     1      49.240   9.202  13.749  0.00  0.00    +0.000 A 
ATOM     15  C   UNL     1      48.500   8.020  13.927  0.00  0.00    +0.000 A 
BRANCH  15  16
ATOM     16  O   UNL     1      48.066   7.619  15.169  0.00  0.00    +0.000 OA
BRANCH  16  17
ATOM     17  C   UNL     1      49.059   7.252  16.113  0.00  0.00    +0.000 C 
ATOM     18  F   UNL     1      48.541   6.334  16.967  0.00  0.00    +0.000 F 
ATOM     19  F   UNL     1      50.051   6.630  15.429  0.00  0.00    +0.000 F 
ENDBRANCH  16  17
ENDBRANCH  15  16
ENDBRANCH   6  10
ENDBRANCH   1   4
BRANCH   1  20
ATOM     20  N   UNL     1      43.653   3.782  10.441  0.00  0.00    +0.000 N 
ATOM     21  H   UNL     1      43.222   2.953  10.848  0.00  0.00    +0.000 HD
BRANCH  20  25
ATOM     22  C   UNL     1      46.411   2.736   7.539  0.00  0.00    +0.000 A 
ATOM     23  N   UNL     1      45.954   1.756   8.355  0.00  0.00    +0.000 NA
ATOM     24  C   UNL     1      45.052   2.155   9.282  0.00  0.00    +0.000 A 
ATOM     25  C   UNL     1      44.616   3.460   9.466  0.00  0.00    +0.000 A 
ATOM     26  C   UNL     1      45.137   4.345   8.538  0.00  0.00    +0.000 A 
ATOM     27  N   UNL     1      46.032   4.025   7.578  0.00  0.00    +0.000 NA
BRANCH  22  29
ATOM     28  N   UNL     1      47.415   3.029   5.328  0.00  0.00    +0.000 N 
ATOM     29  C   UNL     1      47.455   2.342   6.521  0.00  0.00    +0.000 C 
ATOM     30  O   UNL     1      48.292   1.462   6.695  0.00  0.00    +0.000 OA
ATOM     31  H   UNL     1      48.074   2.788   4.605  0.00  0.00    +0.000 HD
ATOM     32  H   UNL     1      46.718   3.749   5.180  0.00  0.00    +0.000 HD
ENDBRANCH  22  29
ENDBRANCH  20  25
ENDBRANCH   1  20
TORSDOF 7
ENDMDL
MODEL 3
REMARK VINA RESULT:    -8.048      2.134      2.670
REMARK INTER + INTRA:         -12.796
REMARK INTER:                 -11.694
REMARK INTRA:                  -1.102
REMARK UNBOUND:                -1.455
REMARK  Name = 
REMARK  7 active torsions:
REMARK  status: ('A' for Active; 'I' for Inactive)
REMARK    1  A    between atoms: C_2  and  C_4
REMARK    2  A    between atoms: C_7  and  N_8
REMARK    3  A    between atoms: N_8  and  C_9
REMARK    4  A    between atoms: C_9  and  C_10
REMARK    5  A    between atoms: C_12  and  C_13
REMARK    6  A    between atoms: C_18  and  O_19
REMARK    7  A    between atoms: O_19  and  C_20
REMARK                            x       y       z     vdW  Elec       q    Type
REMARK                         _______ _______ _______ _____ _____    ______ ____
ROOT
ATOM      1  C   UNL     1      43.886   4.932  11.438  0.00  0.00    +0.000 C 
ATOM      2  C   UNL     1      42.679   5.199  12.331  0.00  0.00    +0.000 C 
ATOM      3  C   UNL     1      42.913   6.064  11.138  0.00  0.00    +0.000 C 
ENDROOT
BRANCH   1   4
ATOM      4  C   UNL     1      45.259   5.356  11.986  0.00  0.00    +0.000 A 
ATOM      5  C   UNL     1      45.780   6.612  11.658  0.00  0.00    +0.000 A 
ATOM      6  C   UNL     1      46.881   7.156  12.332  0.00  0.00    +0.000 A 
ATOM      7  C   UNL     1      47.465   6.329  13.301  0.00  0.00    +0.000 A 
ATOM      8  C   UNL     1      46.973   5.047  13.503  0.00  0.00    +0.000 A 
ATOM      9  N   UNL     1      45.895   4.548  12.868  0.00  0.00    +0.000 NA
BRANCH   6  10
ATOM     10  C   UNL     1      47.414   8.518  12.016  0.00  0.00    +0.000 A 
ATOM     11  C   UNL     1      46.578   9.643  12.204  0.00  0.00    +0.000 A 
ATOM     12  C   UNL     1      47.023  10.950  11.994  0.00  0.00    +0.000 A 
ATOM     13  C   UNL     1      48.339  11.179  11.625  0.00  0.00    +0.000 A 
ATOM     14  C   UNL     1      49.192  10.101  11.416  0.00  0.00    +0.000 A 
ATOM     15  C   UNL     1      48.735   8.779  11.556  0.00  0.00    +0.000 A 
BRANCH  15  16
ATOM     16  O   UNL     1      49.543   7.701  11.282  0.00  0.00    +0.000 OA
BRANCH  16  17
ATOM     17  C   UNL     1      50.938   7.943  11.201  0.00  0.00    +0.000 C 
ATOM     18  F   UNL     1      51.458   7.965  12.455  0.00  0.00    +0.000 F 
ATOM     19  F   UNL     1      51.493   6.879  10.570  0.00  0.00    +0.000 F 
ENDBRANCH  16  17
ENDBRANCH  15  16
ENDBRANCH   6  10
ENDBRANCH   1   4
BRANCH   1  20
ATOM     20  N   UNL     1      43.866   3.641  10.697  0.00  0.00    +0.000 N 
ATOM     21  H   UNL     1      43.771   2.847  11.329  0.00  0.00    +0.000 HD
BRANCH  20  25
ATOM     22  C   UNL     1      46.393   2.762   7.540  0.00  0.00    +0.000 A 
ATOM     23  N   UNL     1      46.009   1.740   8.341  0.00  0.00    +0.000 NA
ATOM     24  C   UNL     1      45.181   2.085   9.354  0.00  0.00    +0.000 A 
ATOM     25  C   UNL     1      44.751   3.375   9.635  0.00  0.00    +0.000 A 
ATOM     26  C   UNL     1      45.191   4.308   8.712  0.00  0.00    +0.000 A 
ATOM     27  N   UNL     1      46.010   4.043   7.670  0.00  0.00    +0.000 NA
BRANCH  22  29
ATOM     28  N   UNL     1      47.290   3.242   5.316  0.00  0.00    +0.000 N 
ATOM     29  C   UNL     1      47.356   2.427   6.424  0.00  0.00    +0.000 C 
ATOM     30  O   UNL     1      48.149   1.491   6.455  0.00  0.00    +0.000 OA
ATOM     31  H   UNL     1      47.894   3.046   4.533  0.00  0.00    +0.000 HD
ATOM     32  H   UNL     1      46.629   4.008   5.287  0.00  0.00    +0.000 HD
ENDBRANCH  22  29
ENDBRANCH  20  25
ENDBRANCH   1  20
TORSDOF 7
ENDMDL
MODEL 4
REMARK VINA RESULT:    -7.631      3.741      7.285
REMARK INTER + INTRA:         -12.209
REMARK INTER:                 -10.854
REMARK INTRA:                  -1.355
REMARK UNBOUND:                -1.455
REMARK  Name = 
REMARK  7 active torsions:
REMARK  status: ('A' for Active; 'I' for Inactive)
REMARK    1  A    between atoms: C_2  and  C_4
REMARK    2  A    between atoms: C_7  and  N_8
REMARK    3  A    between atoms: N_8  and  C_9
REMARK    4  A    between atoms: C_9  and  C_10
REMARK    5  A    between atoms: C_12  and  C_13
REMARK    6  A    between atoms: C_18  and  O_19
REMARK    7  A    between atoms: O_19  and  C_20
REMARK                            x       y       z     vdW  Elec       q    Type
REMARK                         _______ _______ _______ _____ _____    ______ ____
ROOT
ATOM      1  C   UNL     1      47.038   7.755  12.612  0.00  0.00    +0.000 C 
ATOM      2  C   UNL     1      47.625   9.106  12.216  0.00  0.00    +0.000 C 
ATOM      3  C   UNL     1      46.794   9.002  13.451  0.00  0.00    +0.000 C 
ENDROOT
BRANCH   1   4
ATOM      4  C   UNL     1      45.838   7.255  11.790  0.00  0.00    +0.000 A 
ATOM      5  C   UNL     1      45.969   6.112  10.994  0.00  0.00    +0.000 A 
ATOM      6  C   UNL     1      44.858   5.461  10.443  0.00  0.00    +0.000 A 
ATOM      7  C   UNL     1      43.620   6.073  10.684  0.00  0.00    +0.000 A 
ATOM      8  C   UNL     1      43.564   7.268  11.385  0.00  0.00    +0.000 A 
ATOM      9  N   UNL     1      44.638   7.867  11.934  0.00  0.00    +0.000 NA
BRANCH   6  10
ATOM     10  C   UNL     1      44.989   4.212   9.629  0.00  0.00    +0.000 A 
ATOM     11  C   UNL     1      45.852   4.210   8.510  0.00  0.00    +0.000 A 
ATOM     12  C   UNL     1      46.078   3.067   7.740  0.00  0.00    +0.000 A 
ATOM     13  C   UNL     1      45.474   1.870   8.091  0.00  0.00    +0.000 A 
ATOM     14  C   UNL     1      44.607   1.830   9.177  0.00  0.00    +0.000 A 
ATOM     15  C   UNL     1      44.318   2.991   9.915  0.00  0.00    +0.000 A 
BRANCH  15  16
ATOM     16  O   UNL     1      43.408   2.985  10.945  0.00  0.00    +0.000 OA
BRANCH  16  17
ATOM     17  C   UNL     1      43.900   2.691  12.242  0.00  0.00    +0.000 C 
ATOM     18  F   UNL     1      45.256   2.739  12.223  0.00  0.00    +0.000 F 
ATOM     19  F   UNL     1      43.488   3.690  13.062  0.00  0.00    +0.000 F 
ENDBRANCH  16  17
ENDBRANCH  15  16
ENDBRANCH   6  10
ENDBRANCH   1   4
BRANCH   1  20
ATOM     20  N   UNL     1      48.026   6.710  12.997  0.00  0.00    +0.000 N 
ATOM     21  H   UNL     1      48.357   6.189  12.186  0.00  0.00    +0.000 HD
BRANCH  20  25
ATOM     22  C   UNL     1      47.464   4.390  16.377  0.00  0.00    +0.000 A 
ATOM     23  N   UNL     1      48.313   5.441  16.470  0.00  0.00    +0.000 NA
ATOM     24  C   UNL     1      48.455   6.166  15.336  0.00  0.00    +0.000 A 
ATOM     25  C   UNL     1      47.841   5.885  14.123  0.00  0.00    +0.000 A 
ATOM     26  C   UNL     1      46.975   4.808  14.187  0.00  0.00    +0.000 A 
ATOM     27  N   UNL     1      46.770   4.041  15.281  0.00  0.00    +0.000 NA
BRANCH  22  29
ATOM     28  N   UNL     1      47.953   3.983  18.738  0.00  0.00    +0.000 N 
ATOM     29  C   UNL     1      47.313   3.526  17.608  0.00  0.00    +0.000 C 
ATOM     30  O   UNL     1      46.686   2.472  17.638  0.00  0.00    +0.000 OA
ATOM     31  H   UNL     1      47.904   3.431  19.581  0.00  0.00    +0.000 HD
ATOM     32  H   UNL     1      48.479   4.847  18.710  0.00  0.00    +0.000 HD
ENDBRANCH  22  29
ENDBRANCH  20  25
ENDBRANCH   1  20
TORSDOF 7
ENDMDL
MODEL 5
REMARK VINA RESULT:    -7.591      2.653      3.931
REMARK INTER + INTRA:         -12.152
REMARK INTER:                 -11.879
REMARK INTRA:                  -0.273
REMARK UNBOUND:                -1.455
REMARK  Name = 
REMARK  7 active torsions:
REMARK  status: ('A' for Active; 'I' for Inactive)
REMARK    1  A    between atoms: C_2  and  C_4
REMARK    2  A    between atoms: C_7  and  N_8
REMARK    3  A    between atoms: N_8  and  C_9
REMARK    4  A    between atoms: C_9  and  C_10
REMARK    5  A    between atoms: C_12  and  C_13
REMARK    6  A    between atoms: C_18  and  O_19
REMARK    7  A    between atoms: O_19  and  C_20
REMARK                            x       y       z     vdW  Elec       q    Type
REMARK                         _______ _______ _______ _____ _____    ______ ____
ROOT
ATOM      1  C   UNL     1      43.931   4.921  11.565  0.00  0.00    +0.000 C 
ATOM      2  C   UNL     1      43.327   3.765  12.355  0.00  0.00    +0.000 C 
ATOM      3  C   UNL     1      42.700   5.116  12.439  0.00  0.00    +0.000 C 
ENDROOT
BRANCH   1   4
ATOM      4  C   UNL     1      45.239   5.521  12.107  0.00  0.00    +0.000 A 
ATOM      5  C   UNL     1      45.733   5.103  13.348  0.00  0.00    +0.000 A 
ATOM      6  C   UNL     1      47.035   5.405  13.766  0.00  0.00    +0.000 A 
ATOM      7  C   UNL     1      47.779   6.210  12.892  0.00  0.00    +0.000 A 
ATOM      8  C   UNL     1      47.196   6.688  11.727  0.00  0.00    +0.000 A 
ATOM      9  N   UNL     1      45.952   6.366  11.324  0.00  0.00    +0.000 NA
BRANCH   6  10
ATOM     10  C   UNL     1      47.584   4.923  15.072  0.00  0.00    +0.000 A 
ATOM     11  C   UNL     1      47.442   3.559  15.414  0.00  0.00    +0.000 A 
ATOM     12  C   UNL     1      47.984   3.019  16.583  0.00  0.00    +0.000 A 
ATOM     13  C   UNL     1      48.723   3.825  17.435  0.00  0.00    +0.000 A 
ATOM     14  C   UNL     1      48.876   5.176  17.144  0.00  0.00    +0.000 A 
ATOM     15  C   UNL     1      48.276   5.743  16.006  0.00  0.00    +0.000 A 
BRANCH  15  16
ATOM     16  O   UNL     1      48.355   7.090  15.743  0.00  0.00    +0.000 OA
BRANCH  16  17
ATOM     17  C   UNL     1      49.651   7.662  15.685  0.00  0.00    +0.000 C 
ATOM     18  F   UNL     1      50.429   6.915  14.861  0.00  0.00    +0.000 F 
ATOM     19  F   UNL     1      49.524   8.880  15.100  0.00  0.00    +0.000 F 
ENDBRANCH  16  17
ENDBRANCH  15  16
ENDBRANCH   6  10
ENDBRANCH   1   4
BRANCH   1  20
ATOM     20  N   UNL     1      43.851   4.800  10.083  0.00  0.00    +0.000 N 
ATOM     21  H   UNL     1      42.886   4.713   9.765  0.00  0.00    +0.000 HD
BRANCH  20  25
ATOM     22  C   UNL     1      46.339   2.317   7.901  0.00  0.00    +0.000 A 
ATOM     23  N   UNL     1      45.479   1.737   8.772  0.00  0.00    +0.000 NA
ATOM     24  C   UNL     1      44.688   2.597   9.456  0.00  0.00    +0.000 A 
ATOM     25  C   UNL     1      44.731   3.981   9.352  0.00  0.00    +0.000 A 
ATOM     26  C   UNL     1      45.628   4.428   8.397  0.00  0.00    +0.000 A 
ATOM     27  N   UNL     1      46.444   3.636   7.668  0.00  0.00    +0.000 NA
BRANCH  22  29
ATOM     28  N   UNL     1      48.378   1.994   6.590  0.00  0.00    +0.000 N 
ATOM     29  C   UNL     1      47.273   1.395   7.152  0.00  0.00    +0.000 C 
ATOM     30  O   UNL     1      47.089   0.190   7.014  0.00  0.00    +0.000 OA
ATOM     31  H   UNL     1      49.020   1.427   6.058  0.00  0.00    +0.000 HD
ATOM     32  H   UNL     1      48.524   2.990   6.695  0.00  0.00    +0.000 HD
ENDBRANCH  22  29
ENDBRANCH  20  25
ENDBRANCH   1  20
TORSDOF 7
ENDMDL
MODEL 6
REMARK VINA RESULT:    -7.299      2.259      3.039
REMARK INTER + INTRA:         -11.740
REMARK INTER:                 -11.179
REMARK INTRA:                  -0.561
REMARK UNBOUND:                -1.455
REMARK  Name = 
REMARK  7 active torsions:
REMARK  status: ('A' for Active; 'I' for Inactive)
REMARK    1  A    between atoms: C_2  and  C_4
REMARK    2  A    between atoms: C_7  and  N_8
REMARK    3  A    between atoms: N_8  and  C_9
REMARK    4  A    between atoms: C_9  and  C_10
REMARK    5  A    between atoms: C_12  and  C_13
REMARK    6  A    between atoms: C_18  and  O_19
REMARK    7  A    between atoms: O_19  and  C_20
REMARK                            x       y       z     vdW  Elec       q    Type
REMARK                         _______ _______ _______ _____ _____    ______ ____
ROOT
ATOM      1  C   UNL     1      44.377   4.290  11.725  0.00  0.00    +0.000 C 
ATOM      2  C   UNL     1      45.157   3.216  12.477  0.00  0.00    +0.000 C 
ATOM      3  C   UNL     1      43.821   3.646  12.987  0.00  0.00    +0.000 C 
ENDROOT
BRANCH   1   4
ATOM      4  C   UNL     1      44.875   5.738  11.875  0.00  0.00    +0.000 A 
ATOM      5  C   UNL     1      46.213   5.982  12.204  0.00  0.00    +0.000 A 
ATOM      6  C   UNL     1      46.782   7.257  12.091  0.00  0.00    +0.000 A 
ATOM      7  C   UNL     1      45.905   8.277  11.697  0.00  0.00    +0.000 A 
ATOM      8  C   UNL     1      44.563   7.995  11.494  0.00  0.00    +0.000 A 
ATOM      9  N   UNL     1      44.035   6.758  11.578  0.00  0.00    +0.000 NA
BRANCH   6  10
ATOM     10  C   UNL     1      48.224   7.515  12.398  0.00  0.00    +0.000 A 
ATOM     11  C   UNL     1      49.104   7.836  11.341  0.00  0.00    +0.000 A 
ATOM     12  C   UNL     1      50.448   8.153  11.554  0.00  0.00    +0.000 A 
ATOM     13  C   UNL     1      50.948   8.198  12.846  0.00  0.00    +0.000 A 
ATOM     14  C   UNL     1      50.120   7.875  13.915  0.00  0.00    +0.000 A 
ATOM     15  C   UNL     1      48.786   7.486  13.705  0.00  0.00    +0.000 A 
BRANCH  15  16
ATOM     16  O   UNL     1      47.975   7.093  14.744  0.00  0.00    +0.000 OA
BRANCH  16  17
ATOM     17  C   UNL     1      48.312   5.886  15.406  0.00  0.00    +0.000 C 
ATOM     18  F   UNL     1      48.361   6.112  16.744  0.00  0.00    +0.000 F 
ATOM     19  F   UNL     1      47.293   5.016  15.196  0.00  0.00    +0.000 F 
ENDBRANCH  16  17
ENDBRANCH  15  16
ENDBRANCH   6  10
ENDBRANCH   1   4
BRANCH   1  20
ATOM     20  N   UNL     1      43.913   3.914  10.362  0.00  0.00    +0.000 N 
ATOM     21  H   UNL     1      43.072   3.338  10.397  0.00  0.00    +0.000 HD
BRANCH  20  25
ATOM     22  C   UNL     1      46.619   2.770   7.447  0.00  0.00    +0.000 A 
ATOM     23  N   UNL     1      46.352   4.092   7.574  0.00  0.00    +0.000 NA
ATOM     24  C   UNL     1      45.463   4.408   8.544  0.00  0.00    +0.000 A 
ATOM     25  C   UNL     1      44.806   3.495   9.357  0.00  0.00    +0.000 A 
ATOM     26  C   UNL     1      45.206   2.187   9.142  0.00  0.00    +0.000 A 
ATOM     27  N   UNL     1      46.092   1.791   8.202  0.00  0.00    +0.000 NA
BRANCH  22  29
ATOM     28  N   UNL     1      47.483   3.108   5.185  0.00  0.00    +0.000 N 
ATOM     29  C   UNL     1      47.571   2.371   6.344  0.00  0.00    +0.000 C 
ATOM     30  O   UNL     1      48.374   1.446   6.427  0.00  0.00    +0.000 OA
ATOM     31  H   UNL     1      48.080   2.866   4.409  0.00  0.00    +0.000 HD
ATOM     32  H   UNL     1      46.814   3.865   5.113  0.00  0.00    +0.000 HD
ENDBRANCH  22  29
ENDBRANCH  20  25
ENDBRANCH   1  20
TORSDOF 7
ENDMDL
MODEL 7
REMARK VINA RESULT:    -6.904      4.617      6.687
REMARK INTER + INTRA:         -11.184
REMARK INTER:                 -10.033
REMARK INTRA:                  -1.151
REMARK UNBOUND:                -1.455
REMARK  Name = 
REMARK  7 active torsions:
REMARK  status: ('A' for Active; 'I' for Inactive)
REMARK    1  A    between atoms: C_2  and  C_4
REMARK    2  A    between atoms: C_7  and  N_8
REMARK    3  A    between atoms: N_8  and  C_9
REMARK    4  A    between atoms: C_9  and  C_10
REMARK    5  A    between atoms: C_12  and  C_13
REMARK    6  A    between atoms: C_18  and  O_19
REMARK    7  A    between atoms: O_19  and  C_20
REMARK                            x       y       z     vdW  Elec       q    Type
REMARK                         _______ _______ _______ _____ _____    ______ ____
ROOT
ATOM      1  C   UNL     1      47.897   7.573  13.185  0.00  0.00    +0.000 C 
ATOM      2  C   UNL     1      47.948   8.773  12.244  0.00  0.00    +0.000 C 
ATOM      3  C   UNL     1      48.387   7.435  11.750  0.00  0.00    +0.000 C 
ENDROOT
BRANCH   1   4
ATOM      4  C   UNL     1      48.981   7.501  14.274  0.00  0.00    +0.000 A 
ATOM      5  C   UNL     1      48.673   6.955  15.525  0.00  0.00    +0.000 A 
ATOM      6  C   UNL     1      49.668   6.619  16.451  0.00  0.00    +0.000 A 
ATOM      7  C   UNL     1      50.980   6.933  16.068  0.00  0.00    +0.000 A 
ATOM      8  C   UNL     1      51.213   7.577  14.862  0.00  0.00    +0.000 A 
ATOM      9  N   UNL     1      50.248   7.868  13.969  0.00  0.00    +0.000 NA
BRANCH   6  10
ATOM     10  C   UNL     1      49.348   5.993  17.772  0.00  0.00    +0.000 A 
ATOM     11  C   UNL     1      49.159   6.825  18.898  0.00  0.00    +0.000 A 
ATOM     12  C   UNL     1      48.794   6.322  20.149  0.00  0.00    +0.000 A 
ATOM     13  C   UNL     1      48.566   4.963  20.305  0.00  0.00    +0.000 A 
ATOM     14  C   UNL     1      48.754   4.107  19.226  0.00  0.00    +0.000 A 
ATOM     15  C   UNL     1      49.189   4.595  17.982  0.00  0.00    +0.000 A 
BRANCH  15  16
ATOM     16  O   UNL     1      49.450   3.753  16.926  0.00  0.00    +0.000 OA
BRANCH  16  17
ATOM     17  C   UNL     1      48.556   2.670  16.726  0.00  0.00    +0.000 C 
ATOM     18  F   UNL     1      47.632   3.024  15.797  0.00  0.00    +0.000 F 
ATOM     19  F   UNL     1      49.275   1.652  16.192  0.00  0.00    +0.000 F 
ENDBRANCH  16  17
ENDBRANCH  15  16
ENDBRANCH   6  10
ENDBRANCH   1   4
BRANCH   1  20
ATOM     20  N   UNL     1      46.536   7.146  13.611  0.00  0.00    +0.000 N 
ATOM     21  H   UNL     1      46.432   7.180  14.625  0.00  0.00    +0.000 HD
BRANCH  20  25
ATOM     22  C   UNL     1      44.667   3.912  11.831  0.00  0.00    +0.000 A 
ATOM     23  N   UNL     1      44.357   5.148  11.372  0.00  0.00    +0.000 NA
ATOM     24  C   UNL     1      45.001   6.167  11.988  0.00  0.00    +0.000 A 
ATOM     25  C   UNL     1      45.890   6.031  13.045  0.00  0.00    +0.000 A 
ATOM     26  C   UNL     1      46.139   4.711  13.381  0.00  0.00    +0.000 A 
ATOM     27  N   UNL     1      45.547   3.640  12.810  0.00  0.00    +0.000 NA
BRANCH  22  29
ATOM     28  N   UNL     1      44.491   2.251  10.045  0.00  0.00    +0.000 N 
ATOM     29  C   UNL     1      43.935   2.749  11.202  0.00  0.00    +0.000 C 
ATOM     30  O   UNL     1      42.902   2.261  11.649  0.00  0.00    +0.000 OA
ATOM     31  H   UNL     1      44.028   1.491   9.572  0.00  0.00    +0.000 HD
ATOM     32  H   UNL     1      45.338   2.661   9.671  0.00  0.00    +0.000 HD
ENDBRANCH  22  29
ENDBRANCH  20  25
ENDBRANCH   1  20
TORSDOF 7
ENDMDL
MODEL 8
REMARK VINA RESULT:    -6.876      2.380      3.103
REMARK INTER + INTRA:         -11.145
REMARK INTER:                 -10.574
REMARK INTRA:                  -0.571
REMARK UNBOUND:                -1.455
REMARK  Name = 
REMARK  7 active torsions:
REMARK  status: ('A' for Active; 'I' for Inactive)
REMARK    1  A    between atoms: C_2  and  C_4
REMARK    2  A    between atoms: C_7  and  N_8
REMARK    3  A    between atoms: N_8  and  C_9
REMARK    4  A    between atoms: C_9  and  C_10
REMARK    5  A    between atoms: C_12  and  C_13
REMARK    6  A    between atoms: C_18  and  O_19
REMARK    7  A    between atoms: O_19  and  C_20
REMARK                            x       y       z     vdW  Elec       q    Type
REMARK                         _______ _______ _______ _____ _____    ______ ____
ROOT
ATOM      1  C   UNL     1      44.354   4.737  11.851  0.00  0.00    +0.000 C 
ATOM      2  C   UNL     1      45.120   3.636  12.579  0.00  0.00    +0.000 C 
ATOM      3  C   UNL     1      43.763   4.028  13.062  0.00  0.00    +0.000 C 
ENDROOT
BRANCH   1   4
ATOM      4  C   UNL     1      44.829   6.181  12.086  0.00  0.00    +0.000 A 
ATOM      5  C   UNL     1      45.936   6.423  12.907  0.00  0.00    +0.000 A 
ATOM      6  C   UNL     1      46.572   7.670  12.943  0.00  0.00    +0.000 A 
ATOM      7  C   UNL     1      45.983   8.671  12.158  0.00  0.00    +0.000 A 
ATOM      8  C   UNL     1      44.820   8.402  11.452  0.00  0.00    +0.000 A 
ATOM      9  N   UNL     1      44.235   7.190  11.405  0.00  0.00    +0.000 NA
BRANCH   6  10
ATOM     10  C   UNL     1      47.783   7.922  13.785  0.00  0.00    +0.000 A 
ATOM     11  C   UNL     1      47.639   8.628  15.000  0.00  0.00    +0.000 A 
ATOM     12  C   UNL     1      48.709   8.846  15.872  0.00  0.00    +0.000 A 
ATOM     13  C   UNL     1      49.959   8.326  15.571  0.00  0.00    +0.000 A 
ATOM     14  C   UNL     1      50.148   7.636  14.379  0.00  0.00    +0.000 A 
ATOM     15  C   UNL     1      49.095   7.473  13.463  0.00  0.00    +0.000 A 
BRANCH  15  16
ATOM     16  O   UNL     1      49.282   6.858  12.248  0.00  0.00    +0.000 OA
BRANCH  16  17
ATOM     17  C   UNL     1      49.809   7.651  11.196  0.00  0.00    +0.000 C 
ATOM     18  F   UNL     1      49.510   8.954  11.431  0.00  0.00    +0.000 F 
ATOM     19  F   UNL     1      51.160   7.546  11.254  0.00  0.00    +0.000 F 
ENDBRANCH  16  17
ENDBRANCH  15  16
ENDBRANCH   6  10
ENDBRANCH   1   4
BRANCH   1  20
ATOM     20  N   UNL     1      43.940   4.420  10.457  0.00  0.00    +0.000 N 
ATOM     21  H   UNL     1      43.057   3.911  10.434  0.00  0.00    +0.000 HD
BRANCH  20  25
ATOM     22  C   UNL     1      46.534   2.963   7.581  0.00  0.00    +0.000 A 
ATOM     23  N   UNL     1      45.813   2.063   8.291  0.00  0.00    +0.000 NA
ATOM     24  C   UNL     1      44.979   2.596   9.215  0.00  0.00    +0.000 A 
ATOM     25  C   UNL     1      44.854   3.950   9.494  0.00  0.00    +0.000 A 
ATOM     26  C   UNL     1      45.621   4.751   8.666  0.00  0.00    +0.000 A 
ATOM     27  N   UNL     1      46.468   4.298   7.716  0.00  0.00    +0.000 NA
BRANCH  22  29
ATOM     28  N   UNL     1      47.506   3.017   5.338  0.00  0.00    +0.000 N 
ATOM     29  C   UNL     1      47.511   2.406   6.571  0.00  0.00    +0.000 C 
ATOM     30  O   UNL     1      48.266   1.464   6.789  0.00  0.00    +0.000 OA
ATOM     31  H   UNL     1      48.122   2.668   4.620  0.00  0.00    +0.000 HD
ATOM     32  H   UNL     1      46.876   3.789   5.155  0.00  0.00    +0.000 HD
ENDBRANCH  22  29
ENDBRANCH  20  25
ENDBRANCH   1  20
TORSDOF 7
ENDMDL
MODEL 9
REMARK VINA RESULT:    -6.774      4.272      6.125
REMARK INTER + INTRA:         -11.000
REMARK INTER:                  -9.549
REMARK INTRA:                  -1.452
REMARK UNBOUND:                -1.455
REMARK  Name = 
REMARK  7 active torsions:
REMARK  status: ('A' for Active; 'I' for Inactive)
REMARK    1  A    between atoms: C_2  and  C_4
REMARK    2  A    between atoms: C_7  and  N_8
REMARK    3  A    between atoms: N_8  and  C_9
REMARK    4  A    between atoms: C_9  and  C_10
REMARK    5  A    between atoms: C_12  and  C_13
REMARK    6  A    between atoms: C_18  and  O_19
REMARK    7  A    between atoms: O_19  and  C_20
REMARK                            x       y       z     vdW  Elec       q    Type
REMARK                         _______ _______ _______ _____ _____    ______ ____
ROOT
ATOM      1  C   UNL     1      47.866   7.947  12.658  0.00  0.00    +0.000 C 
ATOM      2  C   UNL     1      48.735   8.852  11.791  0.00  0.00    +0.000 C 
ATOM      3  C   UNL     1      49.001   7.384  11.815  0.00  0.00    +0.000 C 
ENDROOT
BRANCH   1   4
ATOM      4  C   UNL     1      48.117   7.994  14.175  0.00  0.00    +0.000 A 
ATOM      5  C   UNL     1      48.778   6.931  14.802  0.00  0.00    +0.000 A 
ATOM      6  C   UNL     1      49.268   7.033  16.110  0.00  0.00    +0.000 A 
ATOM      7  C   UNL     1      48.990   8.240  16.767  0.00  0.00    +0.000 A 
ATOM      8  C   UNL     1      48.233   9.214  16.133  0.00  0.00    +0.000 A 
ATOM      9  N   UNL     1      47.792   9.113  14.864  0.00  0.00    +0.000 NA
BRANCH   6  10
ATOM     10  C   UNL     1      50.015   5.917  16.770  0.00  0.00    +0.000 A 
ATOM     11  C   UNL     1      51.428   5.950  16.784  0.00  0.00    +0.000 A 
ATOM     12  C   UNL     1      52.193   4.980  17.435  0.00  0.00    +0.000 A 
ATOM     13  C   UNL     1      51.565   3.959  18.131  0.00  0.00    +0.000 A 
ATOM     14  C   UNL     1      50.177   3.881  18.132  0.00  0.00    +0.000 A 
ATOM     15  C   UNL     1      49.400   4.812  17.421  0.00  0.00    +0.000 A 
BRANCH  15  16
ATOM     16  O   UNL     1      48.030   4.706  17.351  0.00  0.00    +0.000 OA
BRANCH  16  17
ATOM     17  C   UNL     1      47.503   3.653  16.561  0.00  0.00    +0.000 C 
ATOM     18  F   UNL     1      46.696   2.881  17.333  0.00  0.00    +0.000 F 
ATOM     19  F   UNL     1      46.711   4.219  15.617  0.00  0.00    +0.000 F 
ENDBRANCH  16  17
ENDBRANCH  15  16
ENDBRANCH   6  10
ENDBRANCH   1   4
BRANCH   1  20
ATOM     20  N   UNL     1      46.438   7.844  12.252  0.00  0.00    +0.000 N 
ATOM     21  H   UNL     1      45.836   8.417  12.844  0.00  0.00    +0.000 HD
BRANCH  20  25
ATOM     22  C   UNL     1      44.583   4.260  11.334  0.00  0.00    +0.000 A 
ATOM     23  N   UNL     1      44.533   4.683  12.620  0.00  0.00    +0.000 NA
ATOM     24  C   UNL     1      45.153   5.862  12.861  0.00  0.00    +0.000 A 
ATOM     25  C   UNL     1      45.842   6.612  11.919  0.00  0.00    +0.000 A 
ATOM     26  C   UNL     1      45.777   6.079  10.643  0.00  0.00    +0.000 A 
ATOM     27  N   UNL     1      45.171   4.916  10.319  0.00  0.00    +0.000 NA
BRANCH  22  29
ATOM     28  N   UNL     1      44.510   2.214   9.998  0.00  0.00    +0.000 N 
ATOM     29  C   UNL     1      43.943   2.926  11.031  0.00  0.00    +0.000 C 
ATOM     30  O   UNL     1      42.972   2.474  11.629  0.00  0.00    +0.000 OA
ATOM     31  H   UNL     1      44.106   1.327   9.739  0.00  0.00    +0.000 HD
ATOM     32  H   UNL     1      45.306   2.591   9.497  0.00  0.00    +0.000 HD
ENDBRANCH  22  29
ENDBRANCH  20  25
ENDBRANCH   1  20
TORSDOF 7
ENDMDL
