MODEL 1
REMARK VINA RESULT:    -7.912      0.000      0.000
REMARK INTER + INTRA:         -10.283
REMARK INTER:                  -9.762
REMARK INTRA:                  -0.521
REMARK UNBOUND:                -0.521
REMARK  Name = 
REMARK  4 active torsions:
REMARK  status: ('A' for Active; 'I' for Inactive)
REMARK    1  A    between atoms: C_2  and  C_4
REMARK    2  A    between atoms: C_7  and  O_8
REMARK    3  A    between atoms: O_8  and  C_9
REMARK    4  A    between atoms: C_9  and  C_10
REMARK                            x       y       z     vdW  Elec       q    Type
REMARK                         _______ _______ _______ _____ _____    ______ ____
ROOT
ATOM      1  C   UNL     1      46.437   2.765   7.561  0.00  0.00    +0.000 A 
ATOM      2  C   UNL     1      45.948   1.759   8.380  0.00  0.00    +0.000 A 
ATOM      3  C   UNL     1      45.028   2.107   9.361  0.00  0.00    +0.000 A 
ATOM      4  C   UNL     1      44.613   3.431   9.491  0.00  0.00    +0.000 A 
ATOM      5  C   UNL     1      45.164   4.377   8.635  0.00  0.00    +0.000 A 
ATOM      6  N   UNL     1      46.066   4.078   7.662  0.00  0.00    +0.000 NA
ENDROOT
BRANCH   1   8
ATOM      7  N   UNL     1      47.382   3.178   5.369  0.00  0.00    +0.000 N 
ATOM      8  C   UNL     1      47.443   2.422   6.504  0.00  0.00    +0.000 C 
ATOM      9  O   UNL     1      48.271   1.530   6.645  0.00  0.00    +0.000 OA
ATOM     10  H   UNL     1      48.048   3.016   4.627  0.00  0.00    +0.000 HD
ATOM     11  H   UNL     1      46.691   3.916   5.292  0.00  0.00    +0.000 HD
ENDBRANCH   1   8
BRANCH   4  12
ATOM     12  O   UNL     1      43.708   3.657  10.487  0.00  0.00    +0.000 OA
BRANCH  12  13
ATOM     13  C   UNL     1      43.848   4.821  11.337  0.00  0.00    +0.000 C 
ATOM     14  C   UNL     1      42.531   5.117  12.047  0.00  0.00    +0.000 C 
ATOM     15  C   UNL     1      43.059   6.080  11.037  0.00  0.00    +0.000 C 
BRANCH  13  16
ATOM     16  C   UNL     1      45.135   4.915  12.149  0.00  0.00    +0.000 A 
ATOM     17  C   UNL     1      45.952   6.047  12.057  0.00  0.00    +0.000 A 
ATOM     18  C   UNL     1      47.130   6.122  12.798  0.00  0.00    +0.000 A 
ATOM     19  C   UNL     1      47.480   5.063  13.621  0.00  0.00    +0.000 A 
ATOM     20  C   UNL     1      46.629   3.972  13.668  0.00  0.00    +0.000 A 
ATOM     21  N   UNL     1      45.477   3.880  12.964  0.00  0.00    +0.000 NA
ENDBRANCH  13  16
ENDBRANCH  12  13
ENDBRANCH   4  12
TORSDOF 4
ENDMDL
MODEL 2
REMARK VINA RESULT:    -6.752      1.598      2.232
REMARK INTER + INTRA:          -8.852
REMARK INTER:                  -9.516
REMARK INTRA:                   0.664
REMARK UNBOUND:                -0.521
REMARK  Name = 
REMARK  4 active torsions:
REMARK  status: ('A' for Active; 'I' for Inactive)
REMARK    1  A    between atoms: C_2  and  C_4
REMARK    2  A    between atoms: C_7  and  O_8
REMARK    3  A    between atoms: O_8  and  C_9
REMARK    4  A    between atoms: C_9  and  C_10
REMARK                            x       y       z     vdW  Elec       q    Type
REMARK                         _______ _______ _______ _____ _____    ______ ____
ROOT
ATOM      1  C   UNL     1      46.393   2.456   7.776  0.00  0.00    +0.000 A 
ATOM      2  C   UNL     1      46.287   3.834   7.660  0.00  0.00    +0.000 A 
ATOM      3  C   UNL     1      45.355   4.485   8.459  0.00  0.00    +0.000 A 
ATOM      4  C   UNL     1      44.571   3.757   9.352  0.00  0.00    +0.000 A 
ATOM      5  C   UNL     1      44.734   2.378   9.394  0.00  0.00    +0.000 A 
ATOM      6  N   UNL     1      45.634   1.702   8.630  0.00  0.00    +0.000 NA
ENDROOT
BRANCH   1   8
ATOM      7  N   UNL     1      48.453   2.458   6.502  0.00  0.00    +0.000 N 
ATOM      8  C   UNL     1      47.378   1.725   6.916  0.00  0.00    +0.000 C 
ATOM      9  O   UNL     1      47.241   0.547   6.608  0.00  0.00    +0.000 OA
ATOM     10  H   UNL     1      49.169   2.020   5.940  0.00  0.00    +0.000 HD
ATOM     11  H   UNL     1      48.540   3.428   6.786  0.00  0.00    +0.000 HD
ENDBRANCH   1   8
BRANCH   4  12
ATOM     12  O   UNL     1      43.691   4.500  10.084  0.00  0.00    +0.000 OA
BRANCH  12  13
ATOM     13  C   UNL     1      44.015   4.860  11.449  0.00  0.00    +0.000 C 
ATOM     14  C   UNL     1      44.256   3.606  12.283  0.00  0.00    +0.000 C 
ATOM     15  C   UNL     1      43.080   4.474  12.579  0.00  0.00    +0.000 C 
BRANCH  13  16
ATOM     16  C   UNL     1      44.970   6.034  11.631  0.00  0.00    +0.000 A 
ATOM     17  C   UNL     1      46.348   5.817  11.751  0.00  0.00    +0.000 A 
ATOM     18  C   UNL     1      47.214   6.895  11.924  0.00  0.00    +0.000 A 
ATOM     19  C   UNL     1      46.692   8.179  11.979  0.00  0.00    +0.000 A 
ATOM     20  C   UNL     1      45.322   8.326  11.854  0.00  0.00    +0.000 A 
ATOM     21  N   UNL     1      44.463   7.296  11.678  0.00  0.00    +0.000 NA
ENDBRANCH  13  16
ENDBRANCH  12  13
ENDBRANCH   4  12
TORSDOF 4
ENDMDL
MODEL 3
REMARK VINA RESULT:    -6.367      2.460      6.358
REMARK INTER + INTRA:          -8.377
REMARK INTER:                  -8.309
REMARK INTRA:                  -0.067
REMARK UNBOUND:                -0.521
REMARK  Name = 
REMARK  4 active torsions:
REMARK  status: ('A' for Active; 'I' for Inactive)
REMARK    1  A    between atoms: C_2  and  C_4
REMARK    2  A    between atoms: C_7  and  O_8
REMARK    3  A    between atoms: O_8  and  C_9
REMARK    4  A    between atoms: C_9  and  C_10
REMARK                            x       y       z     vdW  Elec       q    Type
REMARK                         _______ _______ _______ _____ _____    ______ ____
ROOT
ATOM      1  C   UNL     1      47.270   4.664  14.949  0.00  0.00    +0.000 A 
ATOM      2  C   UNL     1      47.388   5.943  14.427  0.00  0.00    +0.000 A 
ATOM      3  C   UNL     1      46.801   6.200  13.194  0.00  0.00    +0.000 A 
ATOM      4  C   UNL     1      46.110   5.191  12.526  0.00  0.00    +0.000 A 
ATOM      5  C   UNL     1      46.052   3.935  13.116  0.00  0.00    +0.000 A 
ATOM      6  N   UNL     1      46.611   3.642  14.321  0.00  0.00    +0.000 NA
ENDROOT
BRANCH   1   8
ATOM      7  N   UNL     1      47.386   5.020  17.342  0.00  0.00    +0.000 N 
ATOM      8  C   UNL     1      47.905   4.353  16.270  0.00  0.00    +0.000 C 
ATOM      9  O   UNL     1      48.824   3.551  16.390  0.00  0.00    +0.000 OA
ATOM     10  H   UNL     1      47.751   4.839  18.266  0.00  0.00    +0.000 HD
ATOM     11  H   UNL     1      46.618   5.669  17.208  0.00  0.00    +0.000 HD
ENDBRANCH   1   8
BRANCH   4  12
ATOM     12  O   UNL     1      45.576   5.556  11.324  0.00  0.00    +0.000 OA
BRANCH  12  13
ATOM     13  C   UNL     1      44.676   4.656  10.633  0.00  0.00    +0.000 C 
ATOM     14  C   UNL     1      43.317   5.319  10.433  0.00  0.00    +0.000 C 
ATOM     15  C   UNL     1      43.436   4.135  11.333  0.00  0.00    +0.000 C 
BRANCH  13  16
ATOM     16  C   UNL     1      45.267   3.872   9.467  0.00  0.00    +0.000 A 
ATOM     17  C   UNL     1      45.239   2.473   9.464  0.00  0.00    +0.000 A 
ATOM     18  C   UNL     1      45.788   1.763   8.398  0.00  0.00    +0.000 A 
ATOM     19  C   UNL     1      46.361   2.461   7.345  0.00  0.00    +0.000 A 
ATOM     20  C   UNL     1      46.357   3.843   7.407  0.00  0.00    +0.000 A 
ATOM     21  N   UNL     1      45.824   4.554   8.428  0.00  0.00    +0.000 NA
ENDBRANCH  13  16
ENDBRANCH  12  13
ENDBRANCH   4  12
TORSDOF 4
ENDMDL
MODEL 4
REMARK VINA RESULT:    -6.095      2.947      5.945
REMARK INTER + INTRA:          -8.041
REMARK INTER:                  -7.860
REMARK INTRA:                  -0.181
REMARK UNBOUND:                -0.521
REMARK  Name = 
REMARK  4 active torsions:
REMARK  status: ('A' for Active; 'I' for Inactive)
REMARK    1  A    between atoms: C_2  and  C_4
REMARK    2  A    between atoms: C_7  and  O_8
REMARK    3  A    between atoms: O_8  and  C_9
REMARK    4  A    between atoms: C_9  and  C_10
REMARK                            x       y       z     vdW  Elec       q    Type
REMARK                         _______ _______ _______ _____ _____    ______ ____
ROOT
ATOM      1  C   UNL     1      48.330   6.880  13.599  0.00  0.00    +0.000 A 
ATOM      2  C   UNL     1      47.809   7.976  12.927  0.00  0.00    +0.000 A 
ATOM      3  C   UNL     1      46.637   7.798  12.202  0.00  0.00    +0.000 A 
ATOM      4  C   UNL     1      46.015   6.552  12.175  0.00  0.00    +0.000 A 
ATOM      5  C   UNL     1      46.612   5.506  12.867  0.00  0.00    +0.000 A 
ATOM      6  N   UNL     1      47.758   5.637  13.589  0.00  0.00    +0.000 NA
ENDROOT
BRANCH   1   8
ATOM      7  N   UNL     1      50.580   7.763  13.761  0.00  0.00    +0.000 N 
ATOM      8  C   UNL     1      49.601   7.038  14.377  0.00  0.00    +0.000 C 
ATOM      9  O   UNL     1      49.756   6.558  15.495  0.00  0.00    +0.000 OA
ATOM     10  H   UNL     1      51.453   7.929  14.240  0.00  0.00    +0.000 HD
ATOM     11  H   UNL     1      50.412   8.155  12.841  0.00  0.00    +0.000 HD
ENDBRANCH   1   8
BRANCH   4  12
ATOM     12  O   UNL     1      44.872   6.494  11.432  0.00  0.00    +0.000 OA
BRANCH  12  13
ATOM     13  C   UNL     1      44.146   5.246  11.322  0.00  0.00    +0.000 C 
ATOM     14  C   UNL     1      42.648   5.492  11.464  0.00  0.00    +0.000 C 
ATOM     15  C   UNL     1      43.370   4.712  12.510  0.00  0.00    +0.000 C 
BRANCH  13  16
ATOM     16  C   UNL     1      44.613   4.284  10.236  0.00  0.00    +0.000 A 
ATOM     17  C   UNL     1      45.330   4.755   9.130  0.00  0.00    +0.000 A 
ATOM     18  C   UNL     1      45.747   3.870   8.137  0.00  0.00    +0.000 A 
ATOM     19  C   UNL     1      45.440   2.523   8.260  0.00  0.00    +0.000 A 
ATOM     20  C   UNL     1      44.729   2.121   9.377  0.00  0.00    +0.000 A 
ATOM     21  N   UNL     1      44.320   2.960  10.356  0.00  0.00    +0.000 NA
ENDBRANCH  13  16
ENDBRANCH  12  13
ENDBRANCH   4  12
TORSDOF 4
ENDMDL
MODEL 5
REMARK VINA RESULT:    -5.716      3.261      6.814
REMARK INTER + INTRA:          -7.574
REMARK INTER:                  -7.476
REMARK INTRA:                  -0.098
REMARK UNBOUND:                -0.521
REMARK  Name = 
REMARK  4 active torsions:
REMARK  status: ('A' for Active; 'I' for Inactive)
REMARK    1  A    between atoms: C_2  and  C_4
REMARK    2  A    between atoms: C_7  and  O_8
REMARK    3  A    between atoms: O_8  and  C_9
REMARK    4  A    between atoms: C_9  and  C_10
REMARK                            x       y       z     vdW  Elec       q    Type
REMARK                         _______ _______ _______ _____ _____    ______ ____
ROOT
ATOM      1  C   UNL     1      47.907   4.825  16.124  0.00  0.00    +0.000 A 
ATOM      2  C   UNL     1      47.122   3.997  15.335  0.00  0.00    +0.000 A 
ATOM      3  C   UNL     1      46.864   4.396  14.029  0.00  0.00    +0.000 A 
ATOM      4  C   UNL     1      47.399   5.588  13.545  0.00  0.00    +0.000 A 
ATOM      5  C   UNL     1      48.164   6.362  14.408  0.00  0.00    +0.000 A 
ATOM      6  N   UNL     1      48.440   6.008  15.692  0.00  0.00    +0.000 NA
ENDROOT
BRANCH   1   8
ATOM      7  N   UNL     1      47.170   4.646  18.425  0.00  0.00    +0.000 N 
ATOM      8  C   UNL     1      48.188   4.429  17.541  0.00  0.00    +0.000 C 
ATOM      9  O   UNL     1      49.254   3.935  17.891  0.00  0.00    +0.000 OA
ATOM     10  H   UNL     1      47.284   4.379  19.392  0.00  0.00    +0.000 HD
ATOM     11  H   UNL     1      46.298   5.046  18.098  0.00  0.00    +0.000 HD
ENDBRANCH   1   8
BRANCH   4  12
ATOM     12  O   UNL     1      47.080   5.879  12.250  0.00  0.00    +0.000 OA
BRANCH  12  13
ATOM     13  C   UNL     1      45.691   5.912  11.840  0.00  0.00    +0.000 C 
ATOM     14  C   UNL     1      45.237   7.353  11.632  0.00  0.00    +0.000 C 
ATOM     15  C   UNL     1      44.649   6.546  12.741  0.00  0.00    +0.000 C 
BRANCH  13  16
ATOM     16  C   UNL     1      45.263   4.872  10.811  0.00  0.00    +0.000 A 
ATOM     17  C   UNL     1      45.611   5.020   9.464  0.00  0.00    +0.000 A 
ATOM     18  C   UNL     1      45.210   4.068   8.529  0.00  0.00    +0.000 A 
ATOM     19  C   UNL     1      44.463   2.979   8.950  0.00  0.00    +0.000 A 
ATOM     20  C   UNL     1      44.151   2.890  10.295  0.00  0.00    +0.000 A 
ATOM     21  N   UNL     1      44.536   3.798  11.223  0.00  0.00    +0.000 NA
ENDBRANCH  13  16
ENDBRANCH  12  13
ENDBRANCH   4  12
TORSDOF 4
ENDMDL
MODEL 6
REMARK VINA RESULT:    -5.585      4.281      7.968
REMARK INTER + INTRA:          -7.412
REMARK INTER:                  -6.966
REMARK INTRA:                  -0.447
REMARK UNBOUND:                -0.521
REMARK  Name = 
REMARK  4 active torsions:
REMARK  status: ('A' for Active; 'I' for Inactive)
REMARK    1  A    between atoms: C_2  and  C_4
REMARK    2  A    between atoms: C_7  and  O_8
REMARK    3  A    between atoms: O_8  and  C_9
REMARK    4  A    between atoms: C_9  and  C_10
REMARK                            x       y       z     vdW  Elec       q    Type
REMARK                         _______ _______ _______ _____ _____    ______ ____
ROOT
ATOM      1  C   UNL     1      48.007   5.130  17.867  0.00  0.00    +0.000 A 
ATOM      2  C   UNL     1      47.273   4.197  17.148  0.00  0.00    +0.000 A 
ATOM      3  C   UNL     1      47.247   4.317  15.764  0.00  0.00    +0.000 A 
ATOM      4  C   UNL     1      47.953   5.343  15.138  0.00  0.00    +0.000 A 
ATOM      5  C   UNL     1      48.651   6.239  15.936  0.00  0.00    +0.000 A 
ATOM      6  N   UNL     1      48.703   6.158  17.293  0.00  0.00    +0.000 NA
ENDROOT
BRANCH   1   8
ATOM      7  N   UNL     1      48.607   3.899  19.865  0.00  0.00    +0.000 N 
ATOM      8  C   UNL     1      48.041   5.035  19.362  0.00  0.00    +0.000 C 
ATOM      9  O   UNL     1      47.601   5.917  20.091  0.00  0.00    +0.000 OA
ATOM     10  H   UNL     1      48.685   3.782  20.865  0.00  0.00    +0.000 HD
ATOM     11  H   UNL     1      48.971   3.196  19.232  0.00  0.00    +0.000 HD
ENDBRANCH   1   8
BRANCH   4  12
ATOM     12  O   UNL     1      47.855   5.363  13.777  0.00  0.00    +0.000 OA
BRANCH  12  13
ATOM     13  C   UNL     1      46.748   6.051  13.145  0.00  0.00    +0.000 C 
ATOM     14  C   UNL     1      47.255   6.933  12.009  0.00  0.00    +0.000 C 
ATOM     15  C   UNL     1      46.652   7.563  13.219  0.00  0.00    +0.000 C 
BRANCH  13  16
ATOM     16  C   UNL     1      45.488   5.228  12.903  0.00  0.00    +0.000 A 
ATOM     17  C   UNL     1      45.576   3.917  12.424  0.00  0.00    +0.000 A 
ATOM     18  C   UNL     1      44.419   3.174  12.199  0.00  0.00    +0.000 A 
ATOM     19  C   UNL     1      43.184   3.752  12.454  0.00  0.00    +0.000 A 
ATOM     20  C   UNL     1      43.165   5.052  12.926  0.00  0.00    +0.000 A 
ATOM     21  N   UNL     1      44.275   5.790  13.159  0.00  0.00    +0.000 NA
ENDBRANCH  13  16
ENDBRANCH  12  13
ENDBRANCH   4  12
TORSDOF 4
ENDMDL
MODEL 7
REMARK VINA RESULT:    -5.452      3.195      5.360
REMARK INTER + INTRA:          -7.248
REMARK INTER:                  -6.894
REMARK INTRA:                  -0.354
REMARK UNBOUND:                -0.521
REMARK  Name = 
REMARK  4 active torsions:
REMARK  status: ('A' for Active; 'I' for Inactive)
REMARK    1  A    between atoms: C_2  and  C_4
REMARK    2  A    between atoms: C_7  and  O_8
REMARK    3  A    between atoms: O_8  and  C_9
REMARK    4  A    between atoms: C_9  and  C_10
REMARK                            x       y       z     vdW  Elec       q    Type
REMARK                         _______ _______ _______ _____ _____    ______ ____
ROOT
ATOM      1  C   UNL     1      44.725   4.114  11.656  0.00  0.00    +0.000 A 
ATOM      2  C   UNL     1      44.812   5.256  10.875  0.00  0.00    +0.000 A 
ATOM      3  C   UNL     1      45.454   6.365  11.412  0.00  0.00    +0.000 A 
ATOM      4  C   UNL     1      45.998   6.304  12.694  0.00  0.00    +0.000 A 
ATOM      5  C   UNL     1      45.854   5.124  13.411  0.00  0.00    +0.000 A 
ATOM      6  N   UNL     1      45.233   4.016  12.923  0.00  0.00    +0.000 NA
ENDROOT
BRANCH   1   8
ATOM      7  N   UNL     1      44.624   2.317  10.035  0.00  0.00    +0.000 N 
ATOM      8  C   UNL     1      44.024   2.908  11.110  0.00  0.00    +0.000 C 
ATOM      9  O   UNL     1      42.986   2.470  11.593  0.00  0.00    +0.000 OA
ATOM     10  H   UNL     1      44.218   1.484   9.632  0.00  0.00    +0.000 HD
ATOM     11  H   UNL     1      45.489   2.699   9.669  0.00  0.00    +0.000 HD
ENDBRANCH   1   8
BRANCH   4  12
ATOM     12  O   UNL     1      46.604   7.451  13.117  0.00  0.00    +0.000 OA
BRANCH  12  13
ATOM     13  C   UNL     1      48.045   7.490  13.267  0.00  0.00    +0.000 C 
ATOM     14  C   UNL     1      48.654   8.457  12.257  0.00  0.00    +0.000 C 
ATOM     15  C   UNL     1      48.939   6.997  12.146  0.00  0.00    +0.000 C 
BRANCH  13  16
ATOM     16  C   UNL     1      48.576   7.520  14.695  0.00  0.00    +0.000 A 
ATOM     17  C   UNL     1      48.265   8.585  15.548  0.00  0.00    +0.000 A 
ATOM     18  C   UNL     1      48.760   8.607  16.850  0.00  0.00    +0.000 A 
ATOM     19  C   UNL     1      49.565   7.565  17.285  0.00  0.00    +0.000 A 
ATOM     20  C   UNL     1      49.837   6.542  16.394  0.00  0.00    +0.000 A 
ATOM     21  N   UNL     1      49.361   6.495  15.128  0.00  0.00    +0.000 NA
ENDBRANCH  13  16
ENDBRANCH  12  13
ENDBRANCH   4  12
TORSDOF 4
ENDMDL
MODEL 8
REMARK VINA RESULT:    -5.442      2.512      4.417
REMARK INTER + INTRA:          -7.236
REMARK INTER:                  -7.307
REMARK INTRA:                   0.071
REMARK UNBOUND:                -0.521
REMARK  Name = 
REMARK  4 active torsions:
REMARK  status: ('A' for Active; 'I' for Inactive)
REMARK    1  A    between atoms: C_2  and  C_4
REMARK    2  A    between atoms: C_7  and  O_8
REMARK    3  A    between atoms: O_8  and  C_9
REMARK    4  A    between atoms: C_9  and  C_10
REMARK                            x       y       z     vdW  Elec       q    Type
REMARK                         _______ _______ _______ _____ _____    ______ ____
ROOT
ATOM      1  C   UNL     1      44.960   3.760  10.291  0.00  0.00    +0.000 A 
ATOM      2  C   UNL     1      45.170   5.121  10.123  0.00  0.00    +0.000 A 
ATOM      3  C   UNL     1      45.531   5.867  11.239  0.00  0.00    +0.000 A 
ATOM      4  C   UNL     1      45.685   5.243  12.476  0.00  0.00    +0.000 A 
ATOM      5  C   UNL     1      45.443   3.878  12.555  0.00  0.00    +0.000 A 
ATOM      6  N   UNL     1      45.088   3.111  11.489  0.00  0.00    +0.000 NA
ENDROOT
BRANCH   1   8
ATOM      7  N   UNL     1      44.316   3.630   7.960  0.00  0.00    +0.000 N 
ATOM      8  C   UNL     1      44.555   2.933   9.110  0.00  0.00    +0.000 C 
ATOM      9  O   UNL     1      44.450   1.713   9.160  0.00  0.00    +0.000 OA
ATOM     10  H   UNL     1      44.062   3.132   7.118  0.00  0.00    +0.000 HD
ATOM     11  H   UNL     1      44.424   4.639   7.951  0.00  0.00    +0.000 HD
ENDBRANCH   1   8
BRANCH   4  12
ATOM     12  O   UNL     1      46.041   6.072  13.499  0.00  0.00    +0.000 OA
BRANCH  12  13
ATOM     13  C   UNL     1      47.434   6.192  13.877  0.00  0.00    +0.000 C 
ATOM     14  C   UNL     1      47.916   7.624  13.671  0.00  0.00    +0.000 C 
ATOM     15  C   UNL     1      48.479   6.528  12.830  0.00  0.00    +0.000 C 
BRANCH  13  16
ATOM     16  C   UNL     1      47.853   5.473  15.154  0.00  0.00    +0.000 A 
ATOM     17  C   UNL     1      47.122   4.378  15.626  0.00  0.00    +0.000 A 
ATOM     18  C   UNL     1      47.508   3.731  16.799  0.00  0.00    +0.000 A 
ATOM     19  C   UNL     1      48.620   4.189  17.489  0.00  0.00    +0.000 A 
ATOM     20  C   UNL     1      49.300   5.277  16.970  0.00  0.00    +0.000 A 
ATOM     21  N   UNL     1      48.949   5.916  15.830  0.00  0.00    +0.000 NA
ENDBRANCH  13  16
ENDBRANCH  12  13
ENDBRANCH   4  12
TORSDOF 4
ENDMDL
MODEL 9
REMARK VINA RESULT:    -5.167      4.082      6.382
REMARK INTER + INTRA:          -6.897
REMARK INTER:                  -6.483
REMARK INTRA:                  -0.414
REMARK UNBOUND:                -0.521
REMARK  Name = 
REMARK  4 active torsions:
REMARK  status: ('A' for Active; 'I' for Inactive)
REMARK    1  A    between atoms: C_2  and  C_4
REMARK    2  A    between atoms: C_7  and  O_8
REMARK    3  A    between atoms: O_8  and  C_9
REMARK    4  A    between atoms: C_9  and  C_10
REMARK                            x       y       z     vdW  Elec       q    Type
REMARK                         _______ _______ _______ _____ _____    ______ ____
ROOT
ATOM      1  C   UNL     1      44.711   5.698  12.002  0.00  0.00    +0.000 A 
ATOM      2  C   UNL     1      45.594   6.432  11.225  0.00  0.00    +0.000 A 
ATOM      3  C   UNL     1      46.908   6.546  11.664  0.00  0.00    +0.000 A 
ATOM      4  C   UNL     1      47.306   5.921  12.844  0.00  0.00    +0.000 A 
ATOM      5  C   UNL     1      46.352   5.215  13.566  0.00  0.00    +0.000 A 
ATOM      6  N   UNL     1      45.057   5.080  13.173  0.00  0.00    +0.000 NA
ENDROOT
BRANCH   1   8
ATOM      7  N   UNL     1      42.669   6.742  11.222  0.00  0.00    +0.000 N 
ATOM      8  C   UNL     1      43.284   5.571  11.562  0.00  0.00    +0.000 C 
ATOM      9  O   UNL     1      42.704   4.494  11.501  0.00  0.00    +0.000 OA
ATOM     10  H   UNL     1      41.714   6.726  10.893  0.00  0.00    +0.000 HD
ATOM     11  H   UNL     1      43.184   7.614  11.274  0.00  0.00    +0.000 HD
ENDBRANCH   1   8
BRANCH   4  12
ATOM     12  O   UNL     1      48.617   6.099  13.177  0.00  0.00    +0.000 OA
BRANCH  12  13
ATOM     13  C   UNL     1      49.059   7.374  13.704  0.00  0.00    +0.000 C 
ATOM     14  C   UNL     1      49.768   7.176  15.040  0.00  0.00    +0.000 C 
ATOM     15  C   UNL     1      48.469   7.908  14.995  0.00  0.00    +0.000 C 
BRANCH  13  16
ATOM     16  C   UNL     1      49.679   8.343  12.703  0.00  0.00    +0.000 A 
ATOM     17  C   UNL     1      49.008   9.516  12.340  0.00  0.00    +0.000 A 
ATOM     18  C   UNL     1      49.578  10.393  11.420  0.00  0.00    +0.000 A 
ATOM     19  C   UNL     1      50.812  10.085  10.868  0.00  0.00    +0.000 A 
ATOM     20  C   UNL     1      51.424   8.910  11.267  0.00  0.00    +0.000 A 
ATOM     21  N   UNL     1      50.894   8.048  12.165  0.00  0.00    +0.000 NA
ENDBRANCH  13  16
ENDBRANCH  12  13
ENDBRANCH   4  12
TORSDOF 4
ENDMDL
