MODEL 1
REMARK VINA RESULT:    -7.860      0.000      0.000
REMARK INTER + INTRA:          -9.925
REMARK INTER:                  -9.928
REMARK INTRA:                   0.003
REMARK UNBOUND:                 0.003
REMARK  Name = 
REMARK  5 active torsions:
REMARK  status: ('A' for Active; 'I' for Inactive)
REMARK    1  A    between atoms: C_2  and  C_19
REMARK    2  A    between atoms: N_3  and  C_4
REMARK    3  A    between atoms: C_4  and  C_5
REMARK    4  A    between atoms: C_8  and  C_9
REMARK    5  A    between atoms: C_14  and  O_15
REMARK                            x       y       z     vdW  Elec       q    Type
REMARK                         _______ _______ _______ _____ _____    ______ ____
ROOT
ATOM      1  C   UNL     1      47.155   3.457  16.854  0.00  0.00    +0.000 C 
ENDROOT
BRANCH   1   2
ATOM      2  C   UNL     1      48.631   3.349  17.137  0.00  0.00    +0.000 A 
ATOM      3  C   UNL     1      49.304   2.146  16.899  0.00  0.00    +0.000 A 
ATOM      4  C   UNL     1      50.668   2.024  17.181  0.00  0.00    +0.000 A 
ATOM      5  C   UNL     1      51.358   3.064  17.806  0.00  0.00    +0.000 A 
ATOM      6  C   UNL     1      50.696   4.281  18.017  0.00  0.00    +0.000 A 
ATOM      7  C   UNL     1      49.344   4.423  17.683  0.00  0.00    +0.000 A 
BRANCH   5   8
ATOM      8  C   UNL     1      52.758   2.949  18.319  0.00  0.00    +0.000 C 
ATOM      9  O   UNL     1      53.195   3.855  19.035  0.00  0.00    +0.000 OA
ATOM     10  N   UNL     1      53.503   1.799  18.077  0.00  0.00    +0.000 N 
ATOM     11  C   UNL     1      54.753   1.583  18.799  0.00  0.00    +0.000 C 
ATOM     12  C   UNL     1      55.293   0.248  18.293  0.00  0.00    +0.000 C 
ATOM     13  C   UNL     1      54.051  -0.479  17.799  0.00  0.00    +0.000 C 
ATOM     14  C   UNL     1      53.189   0.646  17.242  0.00  0.00    +0.000 C 
BRANCH  13  15
ATOM     15  O   UNL     1      53.383  -1.121  18.884  0.00  0.00    +0.000 OA
ATOM     16  H   UNL     1      53.762  -0.765  19.710  0.00  0.00    +0.000 HD
ENDBRANCH  13  15
ENDBRANCH   5   8
ENDBRANCH   1   2
BRANCH   1  19
ATOM     17  O   UNL     1      47.261   3.040  14.106  0.00  0.00    +0.000 OA
ATOM     18  C   UNL     1      46.913   4.144  14.516  0.00  0.00    +0.000 C 
ATOM     19  N   UNL     1      46.900   4.456  15.851  0.00  0.00    +0.000 N 
ATOM     20  H   UNL     1      46.407   5.289  16.155  0.00  0.00    +0.000 HD
BRANCH  18  21
ATOM     21  C   UNL     1      46.529   5.220  13.595  0.00  0.00    +0.000 A 
ATOM     22  C   UNL     1      47.431   6.233  13.300  0.00  0.00    +0.000 A 
ATOM     23  S   UNL     1      46.802   7.417  12.243  0.00  0.00    +0.000 S 
ATOM     24  C   UNL     1      45.322   6.590  12.106  0.00  0.00    +0.000 A 
ATOM     25  N   UNL     1      44.324   7.065  11.314  0.00  0.00    +0.000 NA
ATOM     26  C   UNL     1      43.269   6.321  11.279  0.00  0.00    +0.000 A 
ATOM     27  N   UNL     1      43.119   5.146  11.967  0.00  0.00    +0.000 N 
ATOM     28  C   UNL     1      44.086   4.642  12.803  0.00  0.00    +0.000 A 
ATOM     29  O   UNL     1      43.898   3.613  13.444  0.00  0.00    +0.000 OA
ATOM     30  C   UNL     1      45.299   5.435  12.869  0.00  0.00    +0.000 A 
ATOM     31  H   UNL     1      42.260   4.620  11.907  0.00  0.00    +0.000 HD
ENDBRANCH  18  21
ENDBRANCH   1  19
TORSDOF 5
ENDMDL
MODEL 2
REMARK VINA RESULT:    -7.626      2.927      9.289
REMARK INTER + INTRA:          -9.629
REMARK INTER:                  -9.000
REMARK INTRA:                  -0.629
REMARK UNBOUND:                 0.003
REMARK  Name = 
REMARK  5 active torsions:
REMARK  status: ('A' for Active; 'I' for Inactive)
REMARK    1  A    between atoms: C_2  and  C_19
REMARK    2  A    between atoms: N_3  and  C_4
REMARK    3  A    between atoms: C_4  and  C_5
REMARK    4  A    between atoms: C_8  and  C_9
REMARK    5  A    between atoms: C_14  and  O_15
REMARK                            x       y       z     vdW  Elec       q    Type
REMARK                         _______ _______ _______ _____ _____    ______ ____
ROOT
ATOM      1  C   UNL     1      49.777   6.829  16.852  0.00  0.00    +0.000 C 
ENDROOT
BRANCH   1   2
ATOM      2  C   UNL     1      48.777   6.130  15.970  0.00  0.00    +0.000 A 
ATOM      3  C   UNL     1      48.052   5.039  16.461  0.00  0.00    +0.000 A 
ATOM      4  C   UNL     1      47.139   4.364  15.645  0.00  0.00    +0.000 A 
ATOM      5  C   UNL     1      47.015   4.696  14.295  0.00  0.00    +0.000 A 
ATOM      6  C   UNL     1      47.715   5.808  13.807  0.00  0.00    +0.000 A 
ATOM      7  C   UNL     1      48.588   6.520  14.639  0.00  0.00    +0.000 A 
BRANCH   5   8
ATOM      8  C   UNL     1      46.214   3.905  13.310  0.00  0.00    +0.000 C 
ATOM      9  O   UNL     1      46.491   2.711  13.155  0.00  0.00    +0.000 OA
ATOM     10  N   UNL     1      45.123   4.481  12.667  0.00  0.00    +0.000 N 
ATOM     11  C   UNL     1      44.196   3.636  11.922  0.00  0.00    +0.000 C 
ATOM     12  C   UNL     1      43.140   4.583  11.359  0.00  0.00    +0.000 C 
ATOM     13  C   UNL     1      43.183   5.774  12.305  0.00  0.00    +0.000 C 
ATOM     14  C   UNL     1      44.655   5.861  12.686  0.00  0.00    +0.000 C 
BRANCH  13  15
ATOM     15  O   UNL     1      42.388   5.521  13.463  0.00  0.00    +0.000 OA
ATOM     16  H   UNL     1      42.869   4.871  14.009  0.00  0.00    +0.000 HD
ENDBRANCH  13  15
ENDBRANCH   5   8
ENDBRANCH   1   2
BRANCH   1  19
ATOM     17  O   UNL     1      50.120   5.808  19.416  0.00  0.00    +0.000 OA
ATOM     18  C   UNL     1      50.877   5.423  18.530  0.00  0.00    +0.000 C 
ATOM     19  N   UNL     1      50.823   5.926  17.255  0.00  0.00    +0.000 N 
ATOM     20  H   UNL     1      51.308   5.434  16.513  0.00  0.00    +0.000 HD
BRANCH  18  21
ATOM     21  C   UNL     1      51.922   4.427  18.789  0.00  0.00    +0.000 A 
ATOM     22  C   UNL     1      52.968   4.729  19.650  0.00  0.00    +0.000 A 
ATOM     23  S   UNL     1      54.109   3.468  19.803  0.00  0.00    +0.000 S 
ATOM     24  C   UNL     1      53.218   2.459  18.763  0.00  0.00    +0.000 A 
ATOM     25  N   UNL     1      53.638   1.197  18.481  0.00  0.00    +0.000 NA
ATOM     26  C   UNL     1      52.850   0.533  17.704  0.00  0.00    +0.000 A 
ATOM     27  N   UNL     1      51.680   1.015  17.179  0.00  0.00    +0.000 N 
ATOM     28  C   UNL     1      51.229   2.293  17.412  0.00  0.00    +0.000 A 
ATOM     29  O   UNL     1      50.203   2.710  16.886  0.00  0.00    +0.000 OA
ATOM     30  C   UNL     1      52.074   3.079  18.290  0.00  0.00    +0.000 A 
ATOM     31  H   UNL     1      51.117   0.447  16.565  0.00  0.00    +0.000 HD
ENDBRANCH  18  21
ENDBRANCH   1  19
TORSDOF 5
ENDMDL
MODEL 3
REMARK VINA RESULT:    -7.585      1.955      3.028
REMARK INTER + INTRA:          -9.577
REMARK INTER:                  -9.188
REMARK INTRA:                  -0.390
REMARK UNBOUND:                 0.003
REMARK  Name = 
REMARK  5 active torsions:
REMARK  status: ('A' for Active; 'I' for Inactive)
REMARK    1  A    between atoms: C_2  and  C_19
REMARK    2  A    between atoms: N_3  and  C_4
REMARK    3  A    between atoms: C_4  and  C_5
REMARK    4  A    between atoms: C_8  and  C_9
REMARK    5  A    between atoms: C_14  and  O_15
REMARK                            x       y       z     vdW  Elec       q    Type
REMARK                         _______ _______ _______ _____ _____    ______ ____
ROOT
ATOM      1  C   UNL     1      47.250   3.354  16.791  0.00  0.00    +0.000 C 
ENDROOT
BRANCH   1   2
ATOM      2  C   UNL     1      48.693   3.494  17.198  0.00  0.00    +0.000 A 
ATOM      3  C   UNL     1      49.168   4.715  17.686  0.00  0.00    +0.000 A 
ATOM      4  C   UNL     1      50.512   4.867  18.043  0.00  0.00    +0.000 A 
ATOM      5  C   UNL     1      51.426   3.837  17.816  0.00  0.00    +0.000 A 
ATOM      6  C   UNL     1      50.949   2.602  17.357  0.00  0.00    +0.000 A 
ATOM      7  C   UNL     1      49.593   2.431  17.052  0.00  0.00    +0.000 A 
BRANCH   5   8
ATOM      8  C   UNL     1      52.905   3.980  17.983  0.00  0.00    +0.000 C 
ATOM      9  O   UNL     1      53.531   3.039  18.482  0.00  0.00    +0.000 OA
ATOM     10  N   UNL     1      53.563   5.103  17.490  0.00  0.00    +0.000 N 
ATOM     11  C   UNL     1      55.020   5.111  17.416  0.00  0.00    +0.000 C 
ATOM     12  C   UNL     1      55.394   6.473  16.839  0.00  0.00    +0.000 C 
ATOM     13  C   UNL     1      54.151   6.891  16.067  0.00  0.00    +0.000 C 
ATOM     14  C   UNL     1      53.014   6.320  16.906  0.00  0.00    +0.000 C 
BRANCH  13  15
ATOM     15  O   UNL     1      54.148   6.302  14.767  0.00  0.00    +0.000 OA
ATOM     16  H   UNL     1      54.348   5.353  14.877  0.00  0.00    +0.000 HD
ENDBRANCH  13  15
ENDBRANCH   5   8
ENDBRANCH   1   2
BRANCH   1  19
ATOM     17  O   UNL     1      47.250   3.078  14.024  0.00  0.00    +0.000 OA
ATOM     18  C   UNL     1      46.852   4.136  14.504  0.00  0.00    +0.000 C 
ATOM     19  N   UNL     1      46.882   4.382  15.852  0.00  0.00    +0.000 N 
ATOM     20  H   UNL     1      46.352   5.164  16.221  0.00  0.00    +0.000 HD
BRANCH  18  21
ATOM     21  C   UNL     1      46.356   5.226  13.658  0.00  0.00    +0.000 A 
ATOM     22  C   UNL     1      47.134   6.359  13.461  0.00  0.00    +0.000 A 
ATOM     23  S   UNL     1      46.384   7.538  12.481  0.00  0.00    +0.000 S 
ATOM     24  C   UNL     1      45.016   6.555  12.246  0.00  0.00    +0.000 A 
ATOM     25  N   UNL     1      43.981   6.968  11.467  0.00  0.00    +0.000 NA
ATOM     26  C   UNL     1      43.024   6.109  11.351  0.00  0.00    +0.000 A 
ATOM     27  N   UNL     1      43.004   4.875  11.945  0.00  0.00    +0.000 N 
ATOM     28  C   UNL     1      44.012   4.426  12.764  0.00  0.00    +0.000 A 
ATOM     29  O   UNL     1      43.940   3.336  13.321  0.00  0.00    +0.000 OA
ATOM     30  C   UNL     1      45.120   5.350  12.919  0.00  0.00    +0.000 A 
ATOM     31  H   UNL     1      42.216   4.257  11.825  0.00  0.00    +0.000 HD
ENDBRANCH  18  21
ENDBRANCH   1  19
TORSDOF 5
ENDMDL
MODEL 4
REMARK VINA RESULT:    -7.546      6.558      7.282
REMARK INTER + INTRA:          -9.528
REMARK INTER:                  -8.910
REMARK INTRA:                  -0.618
REMARK UNBOUND:                 0.003
REMARK  Name = 
REMARK  5 active torsions:
REMARK  status: ('A' for Active; 'I' for Inactive)
REMARK    1  A    between atoms: C_2  and  C_19
REMARK    2  A    between atoms: N_3  and  C_4
REMARK    3  A    between atoms: C_4  and  C_5
REMARK    4  A    between atoms: C_8  and  C_9
REMARK    5  A    between atoms: C_14  and  O_15
REMARK                            x       y       z     vdW  Elec       q    Type
REMARK                         _______ _______ _______ _____ _____    ______ ____
ROOT
ATOM      1  C   UNL     1      46.278   8.115  12.839  0.00  0.00    +0.000 C 
ENDROOT
BRANCH   1   2
ATOM      2  C   UNL     1      47.717   8.262  12.420  0.00  0.00    +0.000 A 
ATOM      3  C   UNL     1      48.597   7.183  12.546  0.00  0.00    +0.000 A 
ATOM      4  C   UNL     1      49.942   7.313  12.185  0.00  0.00    +0.000 A 
ATOM      5  C   UNL     1      50.455   8.552  11.796  0.00  0.00    +0.000 A 
ATOM      6  C   UNL     1      49.570   9.627  11.638  0.00  0.00    +0.000 A 
ATOM      7  C   UNL     1      48.212   9.483  11.946  0.00  0.00    +0.000 A 
BRANCH   5   8
ATOM      8  C   UNL     1      51.909   8.825  11.584  0.00  0.00    +0.000 C 
ATOM      9  O   UNL     1      52.459   9.663  12.307  0.00  0.00    +0.000 OA
ATOM     10  N   UNL     1      52.639   8.076  10.666  0.00  0.00    +0.000 N 
ATOM     11  C   UNL     1      54.095   8.163  10.658  0.00  0.00    +0.000 C 
ATOM     12  C   UNL     1      54.556   7.227   9.544  0.00  0.00    +0.000 C 
ATOM     13  C   UNL     1      53.412   6.232   9.413  0.00  0.00    +0.000 C 
ATOM     14  C   UNL     1      52.180   7.079   9.707  0.00  0.00    +0.000 C 
BRANCH  13  15
ATOM     15  O   UNL     1      53.540   5.194  10.386  0.00  0.00    +0.000 OA
ATOM     16  H   UNL     1      52.947   4.468  10.115  0.00  0.00    +0.000 HD
ENDBRANCH  13  15
ENDBRANCH   5   8
ENDBRANCH   1   2
BRANCH   1  19
ATOM     17  O   UNL     1      44.122   7.499  11.193  0.00  0.00    +0.000 OA
ATOM     18  C   UNL     1      44.765   6.574  11.682  0.00  0.00    +0.000 C 
ATOM     19  N   UNL     1      45.798   6.787  12.558  0.00  0.00    +0.000 N 
ATOM     20  H   UNL     1      46.432   6.023  12.765  0.00  0.00    +0.000 HD
BRANCH  18  21
ATOM     21  C   UNL     1      44.440   5.173  11.393  0.00  0.00    +0.000 A 
ATOM     22  C   UNL     1      43.643   4.452  12.272  0.00  0.00    +0.000 A 
ATOM     23  S   UNL     1      43.400   2.831  11.796  0.00  0.00    +0.000 S 
ATOM     24  C   UNL     1      44.309   3.052  10.376  0.00  0.00    +0.000 A 
ATOM     25  N   UNL     1      44.478   2.037   9.486  0.00  0.00    +0.000 NA
ATOM     26  C   UNL     1      45.163   2.354   8.439  0.00  0.00    +0.000 A 
ATOM     27  N   UNL     1      45.698   3.592   8.199  0.00  0.00    +0.000 N 
ATOM     28  C   UNL     1      45.579   4.639   9.081  0.00  0.00    +0.000 A 
ATOM     29  O   UNL     1      46.114   5.720   8.859  0.00  0.00    +0.000 OA
ATOM     30  C   UNL     1      44.807   4.339  10.272  0.00  0.00    +0.000 A 
ATOM     31  H   UNL     1      46.237   3.769   7.365  0.00  0.00    +0.000 HD
ENDBRANCH  18  21
ENDBRANCH   1  19
TORSDOF 5
ENDMDL
MODEL 5
REMARK VINA RESULT:    -7.503      4.453      5.545
REMARK INTER + INTRA:          -9.474
REMARK INTER:                  -8.643
REMARK INTRA:                  -0.832
REMARK UNBOUND:                 0.003
REMARK  Name = 
REMARK  5 active torsions:
REMARK  status: ('A' for Active; 'I' for Inactive)
REMARK    1  A    between atoms: C_2  and  C_19
REMARK    2  A    between atoms: N_3  and  C_4
REMARK    3  A    between atoms: C_4  and  C_5
REMARK    4  A    between atoms: C_8  and  C_9
REMARK    5  A    between atoms: C_14  and  O_15
REMARK                            x       y       z     vdW  Elec       q    Type
REMARK                         _______ _______ _______ _____ _____    ______ ____
ROOT
ATOM      1  C   UNL     1      48.122   8.457  11.859  0.00  0.00    +0.000 C 
ENDROOT
BRANCH   1   2
ATOM      2  C   UNL     1      48.587   8.286  13.281  0.00  0.00    +0.000 A 
ATOM      3  C   UNL     1      49.678   7.459  13.566  0.00  0.00    +0.000 A 
ATOM      4  C   UNL     1      50.106   7.271  14.884  0.00  0.00    +0.000 A 
ATOM      5  C   UNL     1      49.386   7.817  15.948  0.00  0.00    +0.000 A 
ATOM      6  C   UNL     1      48.311   8.672  15.665  0.00  0.00    +0.000 A 
ATOM      7  C   UNL     1      47.916   8.906  14.342  0.00  0.00    +0.000 A 
BRANCH   5   8
ATOM      8  C   UNL     1      49.654   7.507  17.386  0.00  0.00    +0.000 C 
ATOM      9  O   UNL     1      50.245   8.352  18.066  0.00  0.00    +0.000 OA
ATOM     10  N   UNL     1      49.155   6.342  17.959  0.00  0.00    +0.000 N 
ATOM     11  C   UNL     1      49.188   6.178  19.408  0.00  0.00    +0.000 C 
ATOM     12  C   UNL     1      48.572   4.809  19.681  0.00  0.00    +0.000 C 
ATOM     13  C   UNL     1      47.691   4.562  18.465  0.00  0.00    +0.000 C 
ATOM     14  C   UNL     1      48.471   5.217  17.333  0.00  0.00    +0.000 C 
BRANCH  13  15
ATOM     15  O   UNL     1      46.425   5.202  18.627  0.00  0.00    +0.000 OA
ATOM     16  H   UNL     1      46.483   5.763  19.424  0.00  0.00    +0.000 HD
ENDBRANCH  13  15
ENDBRANCH   5   8
ENDBRANCH   1   2
BRANCH   1  19
ATOM     17  O   UNL     1      45.401   7.894  11.983  0.00  0.00    +0.000 OA
ATOM     18  C   UNL     1      46.138   7.087  11.424  0.00  0.00    +0.000 C 
ATOM     19  N   UNL     1      47.498   7.252  11.378  0.00  0.00    +0.000 N 
ATOM     20  H   UNL     1      48.039   6.689  10.731  0.00  0.00    +0.000 HD
BRANCH  18  21
ATOM     21  C   UNL     1      45.612   5.866  10.804  0.00  0.00    +0.000 A 
ATOM     22  C   UNL     1      45.888   5.592   9.472  0.00  0.00    +0.000 A 
ATOM     23  S   UNL     1      45.166   4.151   8.909  0.00  0.00    +0.000 S 
ATOM     24  C   UNL     1      44.502   3.820  10.440  0.00  0.00    +0.000 A 
ATOM     25  N   UNL     1      43.768   2.696  10.657  0.00  0.00    +0.000 NA
ATOM     26  C   UNL     1      43.353   2.556  11.872  0.00  0.00    +0.000 A 
ATOM     27  N   UNL     1      43.600   3.439  12.889  0.00  0.00    +0.000 N 
ATOM     28  C   UNL     1      44.310   4.602  12.711  0.00  0.00    +0.000 A 
ATOM     29  O   UNL     1      44.469   5.396  13.632  0.00  0.00    +0.000 OA
ATOM     30  C   UNL     1      44.811   4.803  11.365  0.00  0.00    +0.000 A 
ATOM     31  H   UNL     1      43.232   3.276  13.815  0.00  0.00    +0.000 HD
ENDBRANCH  18  21
ENDBRANCH   1  19
TORSDOF 5
ENDMDL
MODEL 6
REMARK VINA RESULT:    -7.471      4.887      5.995
REMARK INTER + INTRA:          -9.434
REMARK INTER:                  -8.525
REMARK INTRA:                  -0.909
REMARK UNBOUND:                 0.003
REMARK  Name = 
REMARK  5 active torsions:
REMARK  status: ('A' for Active; 'I' for Inactive)
REMARK    1  A    between atoms: C_2  and  C_19
REMARK    2  A    between atoms: N_3  and  C_4
REMARK    3  A    between atoms: C_4  and  C_5
REMARK    4  A    between atoms: C_8  and  C_9
REMARK    5  A    between atoms: C_14  and  O_15
REMARK                            x       y       z     vdW  Elec       q    Type
REMARK                         _______ _______ _______ _____ _____    ______ ____
ROOT
ATOM      1  C   UNL     1      47.692   7.735  11.703  0.00  0.00    +0.000 C 
ENDROOT
BRANCH   1   2
ATOM      2  C   UNL     1      48.210   7.918  13.105  0.00  0.00    +0.000 A 
ATOM      3  C   UNL     1      49.350   7.226  13.526  0.00  0.00    +0.000 A 
ATOM      4  C   UNL     1      49.828   7.366  14.833  0.00  0.00    +0.000 A 
ATOM      5  C   UNL     1      49.115   8.113  15.772  0.00  0.00    +0.000 A 
ATOM      6  C   UNL     1      47.991   8.833  15.346  0.00  0.00    +0.000 A 
ATOM      7  C   UNL     1      47.543   8.738  14.023  0.00  0.00    +0.000 A 
BRANCH   5   8
ATOM      8  C   UNL     1      49.444   8.157  17.230  0.00  0.00    +0.000 C 
ATOM      9  O   UNL     1      49.906   9.204  17.694  0.00  0.00    +0.000 OA
ATOM     10  N   UNL     1      49.137   7.078  18.052  0.00  0.00    +0.000 N 
ATOM     11  C   UNL     1      49.211   7.231  19.502  0.00  0.00    +0.000 C 
ATOM     12  C   UNL     1      48.815   5.874  20.078  0.00  0.00    +0.000 C 
ATOM     13  C   UNL     1      47.968   5.249  18.979  0.00  0.00    +0.000 C 
ATOM     14  C   UNL     1      48.626   5.758  17.702  0.00  0.00    +0.000 C 
BRANCH  13  15
ATOM     15  O   UNL     1      46.622   5.715  19.060  0.00  0.00    +0.000 OA
ATOM     16  H   UNL     1      46.282   5.471  19.941  0.00  0.00    +0.000 HD
ENDBRANCH  13  15
ENDBRANCH   5   8
ENDBRANCH   1   2
BRANCH   1  19
ATOM     17  O   UNL     1      44.932   7.469  11.927  0.00  0.00    +0.000 OA
ATOM     18  C   UNL     1      45.593   6.472  11.648  0.00  0.00    +0.000 C 
ATOM     19  N   UNL     1      46.963   6.499  11.586  0.00  0.00    +0.000 N 
ATOM     20  H   UNL     1      47.449   5.725  11.147  0.00  0.00    +0.000 HD
BRANCH  18  21
ATOM     21  C   UNL     1      44.959   5.172  11.405  0.00  0.00    +0.000 A 
ATOM     22  C   UNL     1      44.183   4.584  12.395  0.00  0.00    +0.000 A 
ATOM     23  S   UNL     1      43.557   3.059  11.953  0.00  0.00    +0.000 S 
ATOM     24  C   UNL     1      44.261   3.155  10.407  0.00  0.00    +0.000 A 
ATOM     25  N   UNL     1      44.088   2.161   9.495  0.00  0.00    +0.000 NA
ATOM     26  C   UNL     1      44.651   2.379   8.354  0.00  0.00    +0.000 A 
ATOM     27  N   UNL     1      45.374   3.500   8.041  0.00  0.00    +0.000 N 
ATOM     28  C   UNL     1      45.601   4.517   8.937  0.00  0.00    +0.000 A 
ATOM     29  O   UNL     1      46.295   5.482   8.641  0.00  0.00    +0.000 OA
ATOM     30  C   UNL     1      44.979   4.326  10.234  0.00  0.00    +0.000 A 
ATOM     31  H   UNL     1      45.801   3.601   7.132  0.00  0.00    +0.000 HD
ENDBRANCH  18  21
ENDBRANCH   1  19
TORSDOF 5
ENDMDL
MODEL 7
REMARK VINA RESULT:    -7.281      4.239      8.925
REMARK INTER + INTRA:          -9.193
REMARK INTER:                  -8.140
REMARK INTRA:                  -1.053
REMARK UNBOUND:                 0.003
REMARK  Name = 
REMARK  5 active torsions:
REMARK  status: ('A' for Active; 'I' for Inactive)
REMARK    1  A    between atoms: C_2  and  C_19
REMARK    2  A    between atoms: N_3  and  C_4
REMARK    3  A    between atoms: C_4  and  C_5
REMARK    4  A    between atoms: C_8  and  C_9
REMARK    5  A    between atoms: C_14  and  O_15
REMARK                            x       y       z     vdW  Elec       q    Type
REMARK                         _______ _______ _______ _____ _____    ______ ____
ROOT
ATOM      1  C   UNL     1      47.944   9.306  14.654  0.00  0.00    +0.000 C 
ENDROOT
BRANCH   1   2
ATOM      2  C   UNL     1      47.400   8.480  13.518  0.00  0.00    +0.000 A 
ATOM      3  C   UNL     1      46.133   8.756  12.996  0.00  0.00    +0.000 A 
ATOM      4  C   UNL     1      45.604   7.982  11.958  0.00  0.00    +0.000 A 
ATOM      5  C   UNL     1      46.284   6.853  11.499  0.00  0.00    +0.000 A 
ATOM      6  C   UNL     1      47.568   6.592  11.997  0.00  0.00    +0.000 A 
ATOM      7  C   UNL     1      48.122   7.400  12.997  0.00  0.00    +0.000 A 
BRANCH   5   8
ATOM      8  C   UNL     1      45.708   5.863  10.538  0.00  0.00    +0.000 C 
ATOM      9  O   UNL     1      46.069   5.916   9.357  0.00  0.00    +0.000 OA
ATOM     10  N   UNL     1      44.871   4.849  10.991  0.00  0.00    +0.000 N 
ATOM     11  C   UNL     1      44.534   3.741  10.103  0.00  0.00    +0.000 C 
ATOM     12  C   UNL     1      43.614   2.832  10.914  0.00  0.00    +0.000 C 
ATOM     13  C   UNL     1      43.978   3.145  12.358  0.00  0.00    +0.000 C 
ATOM     14  C   UNL     1      44.307   4.632  12.317  0.00  0.00    +0.000 C 
BRANCH  13  15
ATOM     15  O   UNL     1      45.126   2.397  12.757  0.00  0.00    +0.000 OA
ATOM     16  H   UNL     1      45.309   1.747  12.052  0.00  0.00    +0.000 HD
ENDBRANCH  13  15
ENDBRANCH   5   8
ENDBRANCH   1   2
BRANCH   1  19
ATOM     17  O   UNL     1      50.400   8.693  15.806  0.00  0.00    +0.000 OA
ATOM     18  C   UNL     1      49.380   8.298  16.364  0.00  0.00    +0.000 C 
ATOM     19  N   UNL     1      48.133   8.496  15.829  0.00  0.00    +0.000 N 
ATOM     20  H   UNL     1      47.318   8.351  16.415  0.00  0.00    +0.000 HD
BRANCH  18  21
ATOM     21  C   UNL     1      49.432   7.547  17.622  0.00  0.00    +0.000 A 
ATOM     22  C   UNL     1      49.828   8.182  18.792  0.00  0.00    +0.000 A 
ATOM     23  S   UNL     1      49.866   7.147  20.149  0.00  0.00    +0.000 S 
ATOM     24  C   UNL     1      49.308   5.829  19.230  0.00  0.00    +0.000 A 
ATOM     25  N   UNL     1      49.095   4.614  19.804  0.00  0.00    +0.000 NA
ATOM     26  C   UNL     1      48.642   3.714  18.998  0.00  0.00    +0.000 A 
ATOM     27  N   UNL     1      48.384   3.915  17.667  0.00  0.00    +0.000 N 
ATOM     28  C   UNL     1      48.612   5.115  17.036  0.00  0.00    +0.000 A 
ATOM     29  O   UNL     1      48.418   5.246  15.833  0.00  0.00    +0.000 OA
ATOM     30  C   UNL     1      49.111   6.166  17.902  0.00  0.00    +0.000 A 
ATOM     31  H   UNL     1      48.044   3.162  17.088  0.00  0.00    +0.000 HD
ENDBRANCH  18  21
ENDBRANCH   1  19
TORSDOF 5
ENDMDL
MODEL 8
REMARK VINA RESULT:    -7.124      3.145      8.994
REMARK INTER + INTRA:          -8.995
REMARK INTER:                  -8.125
REMARK INTRA:                  -0.870
REMARK UNBOUND:                 0.003
REMARK  Name = 
REMARK  5 active torsions:
REMARK  status: ('A' for Active; 'I' for Inactive)
REMARK    1  A    between atoms: C_2  and  C_19
REMARK    2  A    between atoms: N_3  and  C_4
REMARK    3  A    between atoms: C_4  and  C_5
REMARK    4  A    between atoms: C_8  and  C_9
REMARK    5  A    between atoms: C_14  and  O_15
REMARK                            x       y       z     vdW  Elec       q    Type
REMARK                         _______ _______ _______ _____ _____    ______ ____
ROOT
ATOM      1  C   UNL     1      48.930   8.179  15.793  0.00  0.00    +0.000 C 
ENDROOT
BRANCH   1   2
ATOM      2  C   UNL     1      48.228   7.702  14.549  0.00  0.00    +0.000 A 
ATOM      3  C   UNL     1      47.312   8.535  13.898  0.00  0.00    +0.000 A 
ATOM      4  C   UNL     1      46.634   8.096  12.757  0.00  0.00    +0.000 A 
ATOM      5  C   UNL     1      46.777   6.781  12.310  0.00  0.00    +0.000 A 
ATOM      6  C   UNL     1      47.717   5.954  12.940  0.00  0.00    +0.000 A 
ATOM      7  C   UNL     1      48.438   6.411  14.049  0.00  0.00    +0.000 A 
BRANCH   5   8
ATOM      8  C   UNL     1      45.948   6.173  11.224  0.00  0.00    +0.000 C 
ATOM      9  O   UNL     1      46.298   6.349  10.053  0.00  0.00    +0.000 OA
ATOM     10  N   UNL     1      44.874   5.346  11.539  0.00  0.00    +0.000 N 
ATOM     11  C   UNL     1      44.245   4.550  10.491  0.00  0.00    +0.000 C 
ATOM     12  C   UNL     1      43.123   3.778  11.181  0.00  0.00    +0.000 C 
ATOM     13  C   UNL     1      43.572   3.711  12.633  0.00  0.00    +0.000 C 
ATOM     14  C   UNL     1      44.285   5.041  12.837  0.00  0.00    +0.000 C 
BRANCH  13  15
ATOM     15  O   UNL     1      44.482   2.628  12.825  0.00  0.00    +0.000 OA
ATOM     16  H   UNL     1      44.188   2.137  13.616  0.00  0.00    +0.000 HD
ENDBRANCH  13  15
ENDBRANCH   5   8
ENDBRANCH   1   2
BRANCH   1  19
ATOM     17  O   UNL     1      48.843   6.750  18.177  0.00  0.00    +0.000 OA
ATOM     18  C   UNL     1      49.755   6.515  17.390  0.00  0.00    +0.000 C 
ATOM     19  N   UNL     1      49.913   7.220  16.224  0.00  0.00    +0.000 N 
ATOM     20  H   UNL     1      50.535   6.857  15.511  0.00  0.00    +0.000 HD
BRANCH  18  21
ATOM     21  C   UNL     1      50.766   5.488  17.666  0.00  0.00    +0.000 A 
ATOM     22  C   UNL     1      51.986   5.849  18.221  0.00  0.00    +0.000 A 
ATOM     23  S   UNL     1      53.051   4.533  18.438  0.00  0.00    +0.000 S 
ATOM     24  C   UNL     1      51.899   3.430  17.846  0.00  0.00    +0.000 A 
ATOM     25  N   UNL     1      52.170   2.099  17.785  0.00  0.00    +0.000 NA
ATOM     26  C   UNL     1      51.196   1.375  17.345  0.00  0.00    +0.000 A 
ATOM     27  N   UNL     1      49.974   1.861  16.957  0.00  0.00    +0.000 N 
ATOM     28  C   UNL     1      49.665   3.200  16.972  0.00  0.00    +0.000 A 
ATOM     29  O   UNL     1      48.580   3.605  16.569  0.00  0.00    +0.000 OA
ATOM     30  C   UNL     1      50.724   4.057  17.470  0.00  0.00    +0.000 A 
ATOM     31  H   UNL     1      49.260   1.240  16.607  0.00  0.00    +0.000 HD
ENDBRANCH  18  21
ENDBRANCH   1  19
TORSDOF 5
ENDMDL
MODEL 9
REMARK VINA RESULT:    -7.111      2.348      3.724
REMARK INTER + INTRA:          -8.979
REMARK INTER:                  -8.104
REMARK INTRA:                  -0.876
REMARK UNBOUND:                 0.003
REMARK  Name = 
REMARK  5 active torsions:
REMARK  status: ('A' for Active; 'I' for Inactive)
REMARK    1  A    between atoms: C_2  and  C_19
REMARK    2  A    between atoms: N_3  and  C_4
REMARK    3  A    between atoms: C_4  and  C_5
REMARK    4  A    between atoms: C_8  and  C_9
REMARK    5  A    between atoms: C_14  and  O_15
REMARK                            x       y       z     vdW  Elec       q    Type
REMARK                         _______ _______ _______ _____ _____    ______ ____
ROOT
ATOM      1  C   UNL     1      47.299   3.530  16.957  0.00  0.00    +0.000 C 
ENDROOT
BRANCH   1   2
ATOM      2  C   UNL     1      48.750   3.418  17.346  0.00  0.00    +0.000 A 
ATOM      3  C   UNL     1      49.341   4.408  18.139  0.00  0.00    +0.000 A 
ATOM      4  C   UNL     1      50.693   4.331  18.487  0.00  0.00    +0.000 A 
ATOM      5  C   UNL     1      51.504   3.324  17.960  0.00  0.00    +0.000 A 
ATOM      6  C   UNL     1      50.910   2.314  17.191  0.00  0.00    +0.000 A 
ATOM      7  C   UNL     1      49.544   2.360  16.888  0.00  0.00    +0.000 A 
BRANCH   5   8
ATOM      8  C   UNL     1      52.990   3.279  18.118  0.00  0.00    +0.000 C 
ATOM      9  O   UNL     1      53.503   2.233  18.527  0.00  0.00    +0.000 OA
ATOM     10  N   UNL     1      53.773   4.356  17.715  0.00  0.00    +0.000 N 
ATOM     11  C   UNL     1      55.221   4.201  17.622  0.00  0.00    +0.000 C 
ATOM     12  C   UNL     1      55.750   5.555  17.159  0.00  0.00    +0.000 C 
ATOM     13  C   UNL     1      54.562   6.180  16.442  0.00  0.00    +0.000 C 
ATOM     14  C   UNL     1      53.369   5.675  17.244  0.00  0.00    +0.000 C 
BRANCH  13  15
ATOM     15  O   UNL     1      54.486   5.710  15.097  0.00  0.00    +0.000 OA
ATOM     16  H   UNL     1      55.359   5.337  14.869  0.00  0.00    +0.000 HD
ENDBRANCH  13  15
ENDBRANCH   5   8
ENDBRANCH   1   2
BRANCH   1  19
ATOM     17  O   UNL     1      47.261   3.148  14.203  0.00  0.00    +0.000 OA
ATOM     18  C   UNL     1      47.045   4.275  14.638  0.00  0.00    +0.000 C 
ATOM     19  N   UNL     1      47.112   4.566  15.976  0.00  0.00    +0.000 N 
ATOM     20  H   UNL     1      46.720   5.440  16.309  0.00  0.00    +0.000 HD
BRANCH  18  21
ATOM     21  C   UNL     1      46.741   5.399  13.746  0.00  0.00    +0.000 A 
ATOM     22  C   UNL     1      45.561   5.405  13.016  0.00  0.00    +0.000 A 
ATOM     23  S   UNL     1      45.392   6.769  12.004  0.00  0.00    +0.000 S 
ATOM     24  C   UNL     1      46.867   7.423  12.545  0.00  0.00    +0.000 A 
ATOM     25  N   UNL     1      47.315   8.620  12.081  0.00  0.00    +0.000 NA
ATOM     26  C   UNL     1      48.431   9.010  12.600  0.00  0.00    +0.000 A 
ATOM     27  N   UNL     1      49.144   8.310  13.538  0.00  0.00    +0.000 N 
ATOM     28  C   UNL     1      48.747   7.084  14.014  0.00  0.00    +0.000 A 
ATOM     29  O   UNL     1      49.434   6.461  14.816  0.00  0.00    +0.000 OA
ATOM     30  C   UNL     1      47.490   6.604  13.471  0.00  0.00    +0.000 A 
ATOM     31  H   UNL     1      50.019   8.666  13.892  0.00  0.00    +0.000 HD
ENDBRANCH  18  21
ENDBRANCH   1  19
TORSDOF 5
ENDMDL
