MODEL 1
REMARK VINA RESULT:    -7.628      0.000      0.000
REMARK INTER + INTRA:         -12.272
REMARK INTER:                 -10.749
REMARK INTRA:                  -1.523
REMARK UNBOUND:                -1.523
REMARK  Name = 
REMARK  8 active torsions:
REMARK  status: ('A' for Active; 'I' for Inactive)
REMARK    1  A    between atoms: C_1  and  C_2
REMARK    2  A    between atoms: C_2  and  O_3
REMARK    3  A    between atoms: O_3  and  C_4
REMARK    4  A    between atoms: C_9  and  C_10
REMARK    5  A    between atoms: C_10  and  C_11
REMARK    6  A    between atoms: C_14  and  C_15
REMARK    7  A    between atoms: C_15  and  N_16
REMARK    8  A    between atoms: C_17  and  C_19
REMARK                            x       y       z     vdW  Elec       q    Type
REMARK                         _______ _______ _______ _____ _____    ______ ____
ROOT
ATOM      1  C   UNL     1      44.916   6.361  11.013  0.00  0.00    +0.000 A 
ATOM      2  C   UNL     1      46.172   5.831  11.338  0.00  0.00    +0.000 A 
ATOM      3  C   UNL     1      47.029   6.503  12.216  0.00  0.00    +0.000 A 
ATOM      4  C   UNL     1      46.641   7.713  12.803  0.00  0.00    +0.000 A 
ATOM      5  C   UNL     1      45.407   8.270  12.441  0.00  0.00    +0.000 A 
ATOM      6  C   UNL     1      44.547   7.597  11.562  0.00  0.00    +0.000 A 
ENDROOT
BRANCH   1   7
ATOM      7  C   UNL     1      43.986   5.583  10.094  0.00  0.00    +0.000 C 
BRANCH   7  13
ATOM      8  C   UNL     1      44.176   3.055   9.931  0.00  0.00    +0.000 A 
ATOM      9  N   UNL     1      44.627   1.894   9.397  0.00  0.00    +0.000 NA
ATOM     10  C   UNL     1      45.534   1.977   8.406  0.00  0.00    +0.000 A 
ATOM     11  C   UNL     1      46.034   3.171   7.932  0.00  0.00    +0.000 A 
ATOM     12  C   UNL     1      45.539   4.354   8.477  0.00  0.00    +0.000 A 
ATOM     13  C   UNL     1      44.552   4.323   9.474  0.00  0.00    +0.000 A 
BRANCH   8  14
ATOM     14  O   UNL     1      43.294   2.965  10.996  0.00  0.00    +0.000 OA
BRANCH  14  16
ATOM     15  C   UNL     1      43.442   3.972  13.187  0.00  0.00    +0.000 C 
ATOM     16  C   UNL     1      43.993   2.915  12.247  0.00  0.00    +0.000 C 
ENDBRANCH  14  16
ENDBRANCH   8  14
ENDBRANCH   7  13
ENDBRANCH   1   7
BRANCH   4  17
ATOM     17  C   UNL     1      47.535   8.418  13.791  0.00  0.00    +0.000 C 
BRANCH  17  18
ATOM     18  N   UNL     1      47.828   7.583  14.925  0.00  0.00    +0.000 N 
ATOM     19  C   UNL     1      49.059   7.006  15.092  0.00  0.00    +0.000 C 
ATOM     20  O   UNL     1      49.982   7.190  14.303  0.00  0.00    +0.000 OA
ATOM     21  H   UNL     1      47.033   7.202  15.429  0.00  0.00    +0.000 HD
BRANCH  19  22
ATOM     22  C   UNL     1      49.236   6.198  16.305  0.00  0.00    +0.000 A 
ATOM     23  C   UNL     1      50.213   6.539  17.229  0.00  0.00    +0.000 A 
ATOM     24  S   UNL     1      50.252   5.512  18.591  0.00  0.00    +0.000 S 
ATOM     25  C   UNL     1      48.995   4.546  17.968  0.00  0.00    +0.000 A 
ATOM     26  N   UNL     1      48.554   3.450  18.641  0.00  0.00    +0.000 NA
ATOM     27  C   UNL     1      47.612   2.800  18.043  0.00  0.00    +0.000 A 
ATOM     28  N   UNL     1      47.068   3.149  16.834  0.00  0.00    +0.000 N 
ATOM     29  C   UNL     1      47.457   4.264  16.139  0.00  0.00    +0.000 A 
ATOM     30  O   UNL     1      46.907   4.587  15.085  0.00  0.00    +0.000 OA
ATOM     31  C   UNL     1      48.532   5.019  16.754  0.00  0.00    +0.000 A 
ATOM     32  H   UNL     1      46.314   2.612  16.429  0.00  0.00    +0.000 HD
ENDBRANCH  19  22
ENDBRANCH  17  18
ENDBRANCH   4  17
TORSDOF 7
ENDMDL
MODEL 2
REMARK VINA RESULT:    -6.855      1.193      2.380
REMARK INTER + INTRA:         -11.182
REMARK INTER:                  -9.663
REMARK INTRA:                  -1.520
REMARK UNBOUND:                -1.523
REMARK  Name = 
REMARK  8 active torsions:
REMARK  status: ('A' for Active; 'I' for Inactive)
REMARK    1  A    between atoms: C_1  and  C_2
REMARK    2  A    between atoms: C_2  and  O_3
REMARK    3  A    between atoms: O_3  and  C_4
REMARK    4  A    between atoms: C_9  and  C_10
REMARK    5  A    between atoms: C_10  and  C_11
REMARK    6  A    between atoms: C_14  and  C_15
REMARK    7  A    between atoms: C_15  and  N_16
REMARK    8  A    between atoms: C_17  and  C_19
REMARK                            x       y       z     vdW  Elec       q    Type
REMARK                         _______ _______ _______ _____ _____    ______ ____
ROOT
ATOM      1  C   UNL     1      46.030   6.915  11.432  0.00  0.00    +0.000 A 
ATOM      2  C   UNL     1      47.336   6.591  11.823  0.00  0.00    +0.000 A 
ATOM      3  C   UNL     1      47.978   7.306  12.840  0.00  0.00    +0.000 A 
ATOM      4  C   UNL     1      47.322   8.351  13.500  0.00  0.00    +0.000 A 
ATOM      5  C   UNL     1      46.035   8.709  13.077  0.00  0.00    +0.000 A 
ATOM      6  C   UNL     1      45.390   7.994  12.060  0.00  0.00    +0.000 A 
ENDROOT
BRANCH   1   7
ATOM      7  C   UNL     1      45.340   6.089  10.358  0.00  0.00    +0.000 C 
BRANCH   7  13
ATOM      8  C   UNL     1      44.351   3.787   9.936  0.00  0.00    +0.000 A 
ATOM      9  N   UNL     1      43.752   2.628  10.300  0.00  0.00    +0.000 NA
ATOM     10  C   UNL     1      43.363   2.506  11.583  0.00  0.00    +0.000 A 
ATOM     11  C   UNL     1      43.525   3.501  12.523  0.00  0.00    +0.000 A 
ATOM     12  C   UNL     1      44.165   4.675  12.135  0.00  0.00    +0.000 A 
ATOM     13  C   UNL     1      44.639   4.830  10.823  0.00  0.00    +0.000 A 
BRANCH   8  14
ATOM     14  O   UNL     1      44.688   3.936   8.600  0.00  0.00    +0.000 OA
BRANCH  14  16
ATOM     15  C   UNL     1      46.562   3.484   7.143  0.00  0.00    +0.000 C 
ATOM     16  C   UNL     1      45.609   2.919   8.180  0.00  0.00    +0.000 C 
ENDBRANCH  14  16
ENDBRANCH   8  14
ENDBRANCH   7  13
ENDBRANCH   1   7
BRANCH   4  17
ATOM     17  C   UNL     1      47.987   9.092  14.633  0.00  0.00    +0.000 C 
BRANCH  17  18
ATOM     18  N   UNL     1      48.193   8.237  15.772  0.00  0.00    +0.000 N 
ATOM     19  C   UNL     1      49.445   7.814  16.132  0.00  0.00    +0.000 C 
ATOM     20  O   UNL     1      50.455   8.160  15.525  0.00  0.00    +0.000 OA
ATOM     21  H   UNL     1      47.383   7.730  16.114  0.00  0.00    +0.000 HD
BRANCH  19  22
ATOM     22  C   UNL     1      49.522   6.967  17.329  0.00  0.00    +0.000 A 
ATOM     23  C   UNL     1      50.176   7.426  18.463  0.00  0.00    +0.000 A 
ATOM     24  S   UNL     1      50.137   6.327  19.766  0.00  0.00    +0.000 S 
ATOM     25  C   UNL     1      49.283   5.178  18.843  0.00  0.00    +0.000 A 
ATOM     26  N   UNL     1      48.951   3.967  19.364  0.00  0.00    +0.000 NA
ATOM     27  C   UNL     1      48.325   3.188  18.547  0.00  0.00    +0.000 A 
ATOM     28  N   UNL     1      47.996   3.511  17.256  0.00  0.00    +0.000 N 
ATOM     29  C   UNL     1      48.280   4.732  16.702  0.00  0.00    +0.000 A 
ATOM     30  O   UNL     1      47.917   5.018  15.560  0.00  0.00    +0.000 OA
ATOM     31  C   UNL     1      49.007   5.640  17.570  0.00  0.00    +0.000 A 
ATOM     32  H   UNL     1      47.482   2.866  16.673  0.00  0.00    +0.000 HD
ENDBRANCH  19  22
ENDBRANCH  17  18
ENDBRANCH   4  17
TORSDOF 7
ENDMDL
MODEL 3
REMARK VINA RESULT:    -6.773      2.179      3.291
REMARK INTER + INTRA:         -11.068
REMARK INTER:                 -10.061
REMARK INTRA:                  -1.007
REMARK UNBOUND:                -1.523
REMARK  Name = 
REMARK  8 active torsions:
REMARK  status: ('A' for Active; 'I' for Inactive)
REMARK    1  A    between atoms: C_1  and  C_2
REMARK    2  A    between atoms: C_2  and  O_3
REMARK    3  A    between atoms: O_3  and  C_4
REMARK    4  A    between atoms: C_9  and  C_10
REMARK    5  A    between atoms: C_10  and  C_11
REMARK    6  A    between atoms: C_14  and  C_15
REMARK    7  A    between atoms: C_15  and  N_16
REMARK    8  A    between atoms: C_17  and  C_19
REMARK                            x       y       z     vdW  Elec       q    Type
REMARK                         _______ _______ _______ _____ _____    ______ ____
ROOT
ATOM      1  C   UNL     1      46.758   6.680  12.245  0.00  0.00    +0.000 A 
ATOM      2  C   UNL     1      47.441   5.718  13.003  0.00  0.00    +0.000 A 
ATOM      3  C   UNL     1      48.154   6.082  14.150  0.00  0.00    +0.000 A 
ATOM      4  C   UNL     1      48.187   7.415  14.575  0.00  0.00    +0.000 A 
ATOM      5  C   UNL     1      47.548   8.386  13.792  0.00  0.00    +0.000 A 
ATOM      6  C   UNL     1      46.832   8.022  12.643  0.00  0.00    +0.000 A 
ENDROOT
BRANCH   1   7
ATOM      7  C   UNL     1      45.950   6.247  11.032  0.00  0.00    +0.000 C 
BRANCH   7  13
ATOM      8  C   UNL     1      44.680   4.236  10.140  0.00  0.00    +0.000 A 
ATOM      9  N   UNL     1      43.895   3.137  10.252  0.00  0.00    +0.000 NA
ATOM     10  C   UNL     1      43.393   2.853  11.467  0.00  0.00    +0.000 A 
ATOM     11  C   UNL     1      43.621   3.630  12.583  0.00  0.00    +0.000 A 
ATOM     12  C   UNL     1      44.450   4.741  12.453  0.00  0.00    +0.000 A 
ATOM     13  C   UNL     1      45.043   5.049  11.219  0.00  0.00    +0.000 A 
BRANCH   8  14
ATOM     14  O   UNL     1      45.139   4.563   8.874  0.00  0.00    +0.000 OA
BRANCH  14  16
ATOM     15  C   UNL     1      46.426   3.424   7.175  0.00  0.00    +0.000 C 
ATOM     16  C   UNL     1      45.162   3.413   8.016  0.00  0.00    +0.000 C 
ENDBRANCH  14  16
ENDBRANCH   8  14
ENDBRANCH   7  13
ENDBRANCH   1   7
BRANCH   4  17
ATOM     17  C   UNL     1      48.909   7.809  15.838  0.00  0.00    +0.000 C 
BRANCH  17  18
ATOM     18  N   UNL     1      49.891   6.826  16.212  0.00  0.00    +0.000 N 
ATOM     19  C   UNL     1      49.994   6.370  17.500  0.00  0.00    +0.000 C 
ATOM     20  O   UNL     1      49.243   6.751  18.393  0.00  0.00    +0.000 OA
ATOM     21  H   UNL     1      50.676   6.703  15.581  0.00  0.00    +0.000 HD
BRANCH  19  22
ATOM     22  C   UNL     1      51.020   5.348  17.744  0.00  0.00    +0.000 A 
ATOM     23  C   UNL     1      52.265   5.718  18.232  0.00  0.00    +0.000 A 
ATOM     24  S   UNL     1      53.317   4.400  18.487  0.00  0.00    +0.000 S 
ATOM     25  C   UNL     1      52.160   3.293  17.908  0.00  0.00    +0.000 A 
ATOM     26  N   UNL     1      52.439   1.964  17.827  0.00  0.00    +0.000 NA
ATOM     27  C   UNL     1      51.479   1.245  17.351  0.00  0.00    +0.000 A 
ATOM     28  N   UNL     1      50.261   1.733  16.952  0.00  0.00    +0.000 N 
ATOM     29  C   UNL     1      49.924   3.058  17.048  0.00  0.00    +0.000 A 
ATOM     30  O   UNL     1      48.801   3.458  16.740  0.00  0.00    +0.000 OA
ATOM     31  C   UNL     1      50.978   3.917  17.554  0.00  0.00    +0.000 A 
ATOM     32  H   UNL     1      49.540   1.113  16.610  0.00  0.00    +0.000 HD
ENDBRANCH  19  22
ENDBRANCH  17  18
ENDBRANCH   4  17
TORSDOF 7
ENDMDL
MODEL 4
REMARK VINA RESULT:    -6.569      2.969      7.522
REMARK INTER + INTRA:         -10.780
REMARK INTER:                  -9.071
REMARK INTRA:                  -1.708
REMARK UNBOUND:                -1.523
REMARK  Name = 
REMARK  8 active torsions:
REMARK  status: ('A' for Active; 'I' for Inactive)
REMARK    1  A    between atoms: C_1  and  C_2
REMARK    2  A    between atoms: C_2  and  O_3
REMARK    3  A    between atoms: O_3  and  C_4
REMARK    4  A    between atoms: C_9  and  C_10
REMARK    5  A    between atoms: C_10  and  C_11
REMARK    6  A    between atoms: C_14  and  C_15
REMARK    7  A    between atoms: C_15  and  N_16
REMARK    8  A    between atoms: C_17  and  C_19
REMARK                            x       y       z     vdW  Elec       q    Type
REMARK                         _______ _______ _______ _____ _____    ______ ____
ROOT
ATOM      1  C   UNL     1      50.384   5.870  17.680  0.00  0.00    +0.000 A 
ATOM      2  C   UNL     1      49.081   6.375  17.793  0.00  0.00    +0.000 A 
ATOM      3  C   UNL     1      48.557   7.233  16.821  0.00  0.00    +0.000 A 
ATOM      4  C   UNL     1      49.319   7.592  15.703  0.00  0.00    +0.000 A 
ATOM      5  C   UNL     1      50.638   7.128  15.612  0.00  0.00    +0.000 A 
ATOM      6  C   UNL     1      51.164   6.268  16.585  0.00  0.00    +0.000 A 
ENDROOT
BRANCH   1   7
ATOM      7  C   UNL     1      50.908   4.900  18.728  0.00  0.00    +0.000 C 
BRANCH   7  13
ATOM      8  C   UNL     1      50.438   2.559  17.861  0.00  0.00    +0.000 A 
ATOM      9  N   UNL     1      50.784   1.340  17.379  0.00  0.00    +0.000 NA
ATOM     10  C   UNL     1      52.096   1.051  17.305  0.00  0.00    +0.000 A 
ATOM     11  C   UNL     1      53.089   1.917  17.712  0.00  0.00    +0.000 A 
ATOM     12  C   UNL     1      52.714   3.174  18.181  0.00  0.00    +0.000 A 
ATOM     13  C   UNL     1      51.361   3.545  18.225  0.00  0.00    +0.000 A 
BRANCH   8  14
ATOM     14  O   UNL     1      49.086   2.827  17.998  0.00  0.00    +0.000 OA
BRANCH  14  16
ATOM     15  C   UNL     1      47.122   3.567  16.798  0.00  0.00    +0.000 C 
ATOM     16  C   UNL     1      48.413   2.770  16.732  0.00  0.00    +0.000 C 
ENDBRANCH  14  16
ENDBRANCH   8  14
ENDBRANCH   7  13
ENDBRANCH   1   7
BRANCH   4  17
ATOM     17  C   UNL     1      48.744   8.473  14.623  0.00  0.00    +0.000 C 
BRANCH  17  18
ATOM     18  N   UNL     1      47.535   7.917  14.078  0.00  0.00    +0.000 N 
ATOM     19  C   UNL     1      47.561   7.031  13.033  0.00  0.00    +0.000 C 
ATOM     20  O   UNL     1      48.610   6.644  12.527  0.00  0.00    +0.000 OA
ATOM     21  H   UNL     1      46.672   8.411  14.284  0.00  0.00    +0.000 HD
BRANCH  19  22
ATOM     22  C   UNL     1      46.259   6.518  12.588  0.00  0.00    +0.000 A 
ATOM     23  C   UNL     1      45.302   7.392  12.093  0.00  0.00    +0.000 A 
ATOM     24  S   UNL     1      43.866   6.619  11.592  0.00  0.00    +0.000 S 
ATOM     25  C   UNL     1      44.457   5.093  12.065  0.00  0.00    +0.000 A 
ATOM     26  N   UNL     1      43.695   3.975  11.935  0.00  0.00    +0.000 NA
ATOM     27  C   UNL     1      44.260   2.892  12.352  0.00  0.00    +0.000 A 
ATOM     28  N   UNL     1      45.522   2.824  12.884  0.00  0.00    +0.000 N 
ATOM     29  C   UNL     1      46.338   3.919  13.000  0.00  0.00    +0.000 A 
ATOM     30  O   UNL     1      47.491   3.818  13.423  0.00  0.00    +0.000 OA
ATOM     31  C   UNL     1      45.742   5.170  12.568  0.00  0.00    +0.000 A 
ATOM     32  H   UNL     1      45.918   1.940  13.170  0.00  0.00    +0.000 HD
ENDBRANCH  19  22
ENDBRANCH  17  18
ENDBRANCH   4  17
TORSDOF 7
ENDMDL
MODEL 5
REMARK VINA RESULT:    -6.403      2.954      8.267
REMARK INTER + INTRA:         -10.546
REMARK INTER:                  -8.893
REMARK INTRA:                  -1.653
REMARK UNBOUND:                -1.523
REMARK  Name = 
REMARK  8 active torsions:
REMARK  status: ('A' for Active; 'I' for Inactive)
REMARK    1  A    between atoms: C_1  and  C_2
REMARK    2  A    between atoms: C_2  and  O_3
REMARK    3  A    between atoms: O_3  and  C_4
REMARK    4  A    between atoms: C_9  and  C_10
REMARK    5  A    between atoms: C_10  and  C_11
REMARK    6  A    between atoms: C_14  and  C_15
REMARK    7  A    between atoms: C_15  and  N_16
REMARK    8  A    between atoms: C_17  and  C_19
REMARK                            x       y       z     vdW  Elec       q    Type
REMARK                         _______ _______ _______ _____ _____    ______ ____
ROOT
ATOM      1  C   UNL     1      49.189   8.150  15.793  0.00  0.00    +0.000 A 
ATOM      2  C   UNL     1      49.720   7.227  14.881  0.00  0.00    +0.000 A 
ATOM      3  C   UNL     1      49.174   7.088  13.601  0.00  0.00    +0.000 A 
ATOM      4  C   UNL     1      48.094   7.881  13.197  0.00  0.00    +0.000 A 
ATOM      5  C   UNL     1      47.530   8.770  14.123  0.00  0.00    +0.000 A 
ATOM      6  C   UNL     1      48.077   8.911  15.406  0.00  0.00    +0.000 A 
ENDROOT
BRANCH   1   7
ATOM      7  C   UNL     1      49.835   8.314  17.160  0.00  0.00    +0.000 C 
BRANCH   7  13
ATOM      8  C   UNL     1      48.717   6.637  18.708  0.00  0.00    +0.000 A 
ATOM      9  N   UNL     1      47.979   6.268  19.783  0.00  0.00    +0.000 NA
ATOM     10  C   UNL     1      47.418   7.246  20.517  0.00  0.00    +0.000 A 
ATOM     11  C   UNL     1      47.540   8.586  20.217  0.00  0.00    +0.000 A 
ATOM     12  C   UNL     1      48.323   8.947  19.123  0.00  0.00    +0.000 A 
ATOM     13  C   UNL     1      48.975   7.967  18.358  0.00  0.00    +0.000 A 
BRANCH   8  14
ATOM     14  O   UNL     1      49.237   5.626  17.916  0.00  0.00    +0.000 OA
BRANCH  14  16
ATOM     15  C   UNL     1      47.690   4.537  16.413  0.00  0.00    +0.000 C 
ATOM     16  C   UNL     1      48.315   4.534  17.796  0.00  0.00    +0.000 C 
ENDBRANCH  14  16
ENDBRANCH   8  14
ENDBRANCH   7  13
ENDBRANCH   1   7
BRANCH   4  17
ATOM     17  C   UNL     1      47.533   7.776  11.802  0.00  0.00    +0.000 C 
BRANCH  17  18
ATOM     18  N   UNL     1      46.831   6.536  11.609  0.00  0.00    +0.000 N 
ATOM     19  C   UNL     1      45.462   6.482  11.593  0.00  0.00    +0.000 C 
ATOM     20  O   UNL     1      44.764   7.485  11.714  0.00  0.00    +0.000 OA
ATOM     21  H   UNL     1      47.357   5.684  11.777  0.00  0.00    +0.000 HD
BRANCH  19  22
ATOM     22  C   UNL     1      44.870   5.158  11.360  0.00  0.00    +0.000 A 
ATOM     23  C   UNL     1      44.112   4.554  12.353  0.00  0.00    +0.000 A 
ATOM     24  S   UNL     1      43.476   3.038  11.898  0.00  0.00    +0.000 S 
ATOM     25  C   UNL     1      44.232   3.117  10.373  0.00  0.00    +0.000 A 
ATOM     26  N   UNL     1      44.117   2.098   9.480  0.00  0.00    +0.000 NA
ATOM     27  C   UNL     1      44.758   2.282   8.375  0.00  0.00    +0.000 A 
ATOM     28  N   UNL     1      45.501   3.395   8.079  0.00  0.00    +0.000 N 
ATOM     29  C   UNL     1      45.615   4.460   8.934  0.00  0.00    +0.000 A 
ATOM     30  O   UNL     1      46.238   5.474   8.615  0.00  0.00    +0.000 OA
ATOM     31  C   UNL     1      44.933   4.296  10.204  0.00  0.00    +0.000 A 
ATOM     32  H   UNL     1      45.960   3.491   7.184  0.00  0.00    +0.000 HD
ENDBRANCH  19  22
ENDBRANCH  17  18
ENDBRANCH   4  17
TORSDOF 7
ENDMDL
MODEL 6
REMARK VINA RESULT:    -6.397      3.451      4.878
REMARK INTER + INTRA:         -10.537
REMARK INTER:                  -9.521
REMARK INTRA:                  -1.015
REMARK UNBOUND:                -1.523
REMARK  Name = 
REMARK  8 active torsions:
REMARK  status: ('A' for Active; 'I' for Inactive)
REMARK    1  A    between atoms: C_1  and  C_2
REMARK    2  A    between atoms: C_2  and  O_3
REMARK    3  A    between atoms: O_3  and  C_4
REMARK    4  A    between atoms: C_9  and  C_10
REMARK    5  A    between atoms: C_10  and  C_11
REMARK    6  A    between atoms: C_14  and  C_15
REMARK    7  A    between atoms: C_15  and  N_16
REMARK    8  A    between atoms: C_17  and  C_19
REMARK                            x       y       z     vdW  Elec       q    Type
REMARK                         _______ _______ _______ _____ _____    ______ ____
ROOT
ATOM      1  C   UNL     1      47.138   5.484  13.519  0.00  0.00    +0.000 A 
ATOM      2  C   UNL     1      46.860   4.211  14.037  0.00  0.00    +0.000 A 
ATOM      3  C   UNL     1      47.330   3.831  15.298  0.00  0.00    +0.000 A 
ATOM      4  C   UNL     1      48.077   4.722  16.078  0.00  0.00    +0.000 A 
ATOM      5  C   UNL     1      48.398   5.977  15.543  0.00  0.00    +0.000 A 
ATOM      6  C   UNL     1      47.926   6.360  14.280  0.00  0.00    +0.000 A 
ENDROOT
BRANCH   1   7
ATOM      7  C   UNL     1      46.571   5.887  12.167  0.00  0.00    +0.000 C 
BRANCH   7  13
ATOM      8  C   UNL     1      44.641   5.160  10.684  0.00  0.00    +0.000 A 
ATOM      9  N   UNL     1      43.347   4.848  10.424  0.00  0.00    +0.000 NA
ATOM     10  C   UNL     1      42.456   5.015  11.418  0.00  0.00    +0.000 A 
ATOM     11  C   UNL     1      42.791   5.502  12.664  0.00  0.00    +0.000 A 
ATOM     12  C   UNL     1      44.129   5.793  12.920  0.00  0.00    +0.000 A 
ATOM     13  C   UNL     1      45.106   5.584  11.933  0.00  0.00    +0.000 A 
BRANCH   8  14
ATOM     14  O   UNL     1      45.543   5.052   9.638  0.00  0.00    +0.000 OA
BRANCH  14  16
ATOM     15  C   UNL     1      46.086   3.862   7.606  0.00  0.00    +0.000 C 
ATOM     16  C   UNL     1      45.407   3.794   8.962  0.00  0.00    +0.000 C 
ENDBRANCH  14  16
ENDBRANCH   8  14
ENDBRANCH   7  13
ENDBRANCH   1   7
BRANCH   4  17
ATOM     17  C   UNL     1      48.543   4.340  17.460  0.00  0.00    +0.000 C 
BRANCH  17  18
ATOM     18  N   UNL     1      49.934   3.972  17.463  0.00  0.00    +0.000 N 
ATOM     19  C   UNL     1      50.749   4.263  18.525  0.00  0.00    +0.000 C 
ATOM     20  O   UNL     1      50.336   4.825  19.535  0.00  0.00    +0.000 OA
ATOM     21  H   UNL     1      50.352   3.762  16.563  0.00  0.00    +0.000 HD
BRANCH  19  22
ATOM     22  C   UNL     1      52.141   3.809  18.414  0.00  0.00    +0.000 A 
ATOM     23  C   UNL     1      53.179   4.666  18.748  0.00  0.00    +0.000 A 
ATOM     24  S   UNL     1      54.724   3.962  18.592  0.00  0.00    +0.000 S 
ATOM     25  C   UNL     1      54.061   2.499  18.026  0.00  0.00    +0.000 A 
ATOM     26  N   UNL     1      54.859   1.458  17.669  0.00  0.00    +0.000 NA
ATOM     27  C   UNL     1      54.224   0.420  17.238  0.00  0.00    +0.000 A 
ATOM     28  N   UNL     1      52.860   0.327  17.136  0.00  0.00    +0.000 N 
ATOM     29  C   UNL     1      52.016   1.337  17.517  0.00  0.00    +0.000 A 
ATOM     30  O   UNL     1      50.792   1.201  17.473  0.00  0.00    +0.000 OA
ATOM     31  C   UNL     1      52.679   2.539  17.986  0.00  0.00    +0.000 A 
ATOM     32  H   UNL     1      52.420  -0.524  16.813  0.00  0.00    +0.000 HD
ENDBRANCH  19  22
ENDBRANCH  17  18
ENDBRANCH   4  17
TORSDOF 7
ENDMDL
MODEL 7
REMARK VINA RESULT:    -6.380      1.799      2.204
REMARK INTER + INTRA:         -10.513
REMARK INTER:                  -9.377
REMARK INTRA:                  -1.136
REMARK UNBOUND:                -1.523
REMARK  Name = 
REMARK  8 active torsions:
REMARK  status: ('A' for Active; 'I' for Inactive)
REMARK    1  A    between atoms: C_1  and  C_2
REMARK    2  A    between atoms: C_2  and  O_3
REMARK    3  A    between atoms: O_3  and  C_4
REMARK    4  A    between atoms: C_9  and  C_10
REMARK    5  A    between atoms: C_10  and  C_11
REMARK    6  A    between atoms: C_14  and  C_15
REMARK    7  A    between atoms: C_15  and  N_16
REMARK    8  A    between atoms: C_17  and  C_19
REMARK                            x       y       z     vdW  Elec       q    Type
REMARK                         _______ _______ _______ _____ _____    ______ ____
ROOT
ATOM      1  C   UNL     1      46.447   6.267  11.625  0.00  0.00    +0.000 A 
ATOM      2  C   UNL     1      46.541   5.714  12.910  0.00  0.00    +0.000 A 
ATOM      3  C   UNL     1      47.612   6.033  13.751  0.00  0.00    +0.000 A 
ATOM      4  C   UNL     1      48.606   6.925  13.333  0.00  0.00    +0.000 A 
ATOM      5  C   UNL     1      48.541   7.441  12.031  0.00  0.00    +0.000 A 
ATOM      6  C   UNL     1      47.468   7.124  11.188  0.00  0.00    +0.000 A 
ENDROOT
BRANCH   1   7
ATOM      7  C   UNL     1      45.245   5.941  10.752  0.00  0.00    +0.000 C 
BRANCH   7  13
ATOM      8  C   UNL     1      45.082   3.451  10.276  0.00  0.00    +0.000 A 
ATOM      9  N   UNL     1      45.160   2.348   9.493  0.00  0.00    +0.000 NA
ATOM     10  C   UNL     1      45.611   2.509   8.236  0.00  0.00    +0.000 A 
ATOM     11  C   UNL     1      46.012   3.724   7.722  0.00  0.00    +0.000 A 
ATOM     12  C   UNL     1      45.900   4.851   8.534  0.00  0.00    +0.000 A 
ATOM     13  C   UNL     1      45.383   4.744   9.835  0.00  0.00    +0.000 A 
BRANCH   8  14
ATOM     14  O   UNL     1      44.682   3.272  11.590  0.00  0.00    +0.000 OA
BRANCH  14  16
ATOM     15  C   UNL     1      43.029   4.359  12.979  0.00  0.00    +0.000 C 
ATOM     16  C   UNL     1      43.276   3.512  11.743  0.00  0.00    +0.000 C 
ENDBRANCH  14  16
ENDBRANCH   8  14
ENDBRANCH   7  13
ENDBRANCH   1   7
BRANCH   4  17
ATOM     17  C   UNL     1      49.735   7.315  14.252  0.00  0.00    +0.000 C 
BRANCH  17  18
ATOM     18  N   UNL     1      49.384   7.115  15.633  0.00  0.00    +0.000 N 
ATOM     19  C   UNL     1      50.174   7.587  16.648  0.00  0.00    +0.000 C 
ATOM     20  O   UNL     1      51.201   8.225  16.439  0.00  0.00    +0.000 OA
ATOM     21  H   UNL     1      48.712   6.381  15.831  0.00  0.00    +0.000 HD
BRANCH  19  22
ATOM     22  C   UNL     1      49.689   7.339  18.012  0.00  0.00    +0.000 A 
ATOM     23  C   UNL     1      49.467   8.403  18.874  0.00  0.00    +0.000 A 
ATOM     24  S   UNL     1      48.874   7.932  20.402  0.00  0.00    +0.000 S 
ATOM     25  C   UNL     1      48.938   6.283  19.980  0.00  0.00    +0.000 A 
ATOM     26  N   UNL     1      48.587   5.318  20.871  0.00  0.00    +0.000 NA
ATOM     27  C   UNL     1      48.704   4.112  20.425  0.00  0.00    +0.000 A 
ATOM     28  N   UNL     1      49.136   3.783  19.166  0.00  0.00    +0.000 N 
ATOM     29  C   UNL     1      49.466   4.724  18.225  0.00  0.00    +0.000 A 
ATOM     30  O   UNL     1      49.791   4.401  17.081  0.00  0.00    +0.000 OA
ATOM     31  C   UNL     1      49.377   6.098  18.682  0.00  0.00    +0.000 A 
ATOM     32  H   UNL     1      49.183   2.819  18.867  0.00  0.00    +0.000 HD
ENDBRANCH  19  22
ENDBRANCH  17  18
ENDBRANCH   4  17
TORSDOF 7
ENDMDL
MODEL 8
REMARK VINA RESULT:    -6.322      4.306      7.896
REMARK INTER + INTRA:         -10.432
REMARK INTER:                  -8.974
REMARK INTRA:                  -1.458
REMARK UNBOUND:                -1.523
REMARK  Name = 
REMARK  8 active torsions:
REMARK  status: ('A' for Active; 'I' for Inactive)
REMARK    1  A    between atoms: C_1  and  C_2
REMARK    2  A    between atoms: C_2  and  O_3
REMARK    3  A    between atoms: O_3  and  C_4
REMARK    4  A    between atoms: C_9  and  C_10
REMARK    5  A    between atoms: C_10  and  C_11
REMARK    6  A    between atoms: C_14  and  C_15
REMARK    7  A    between atoms: C_15  and  N_16
REMARK    8  A    between atoms: C_17  and  C_19
REMARK                            x       y       z     vdW  Elec       q    Type
REMARK                         _______ _______ _______ _____ _____    ______ ____
ROOT
ATOM      1  C   UNL     1      50.252   8.943  11.305  0.00  0.00    +0.000 A 
ATOM      2  C   UNL     1      49.954   7.651  11.760  0.00  0.00    +0.000 A 
ATOM      3  C   UNL     1      48.711   7.360  12.331  0.00  0.00    +0.000 A 
ATOM      4  C   UNL     1      47.730   8.352  12.446  0.00  0.00    +0.000 A 
ATOM      5  C   UNL     1      48.043   9.657  12.038  0.00  0.00    +0.000 A 
ATOM      6  C   UNL     1      49.288   9.949  11.464  0.00  0.00    +0.000 A 
ENDROOT
BRANCH   1   7
ATOM      7  C   UNL     1      51.594   9.217  10.643  0.00  0.00    +0.000 C 
BRANCH   7  13
ATOM      8  C   UNL     1      53.563   7.797  11.391  0.00  0.00    +0.000 A 
ATOM      9  N   UNL     1      54.406   6.738  11.316  0.00  0.00    +0.000 NA
ATOM     10  C   UNL     1      54.261   5.901  10.273  0.00  0.00    +0.000 A 
ATOM     11  C   UNL     1      53.322   6.080   9.280  0.00  0.00    +0.000 A 
ATOM     12  C   UNL     1      52.448   7.159   9.388  0.00  0.00    +0.000 A 
ATOM     13  C   UNL     1      52.522   8.031  10.486  0.00  0.00    +0.000 A 
BRANCH   8  14
ATOM     14  O   UNL     1      53.759   8.694  12.428  0.00  0.00    +0.000 OA
BRANCH  14  16
ATOM     15  C   UNL     1      52.517   8.508  14.493  0.00  0.00    +0.000 C 
ATOM     16  C   UNL     1      53.722   8.033  13.701  0.00  0.00    +0.000 C 
ENDBRANCH  14  16
ENDBRANCH   8  14
ENDBRANCH   7  13
ENDBRANCH   1   7
BRANCH   4  17
ATOM     17  C   UNL     1      46.369   8.037  13.012  0.00  0.00    +0.000 C 
BRANCH  17  18
ATOM     18  N   UNL     1      45.936   6.717  12.636  0.00  0.00    +0.000 N 
ATOM     19  C   UNL     1      44.861   6.525  11.809  0.00  0.00    +0.000 C 
ATOM     20  O   UNL     1      44.230   7.460  11.324  0.00  0.00    +0.000 OA
ATOM     21  H   UNL     1      46.253   5.950  13.219  0.00  0.00    +0.000 HD
BRANCH  19  22
ATOM     22  C   UNL     1      44.538   5.130  11.482  0.00  0.00    +0.000 A 
ATOM     23  C   UNL     1      43.804   4.361  12.372  0.00  0.00    +0.000 A 
ATOM     24  S   UNL     1      43.494   2.779  11.815  0.00  0.00    +0.000 S 
ATOM     25  C   UNL     1      44.374   3.053  10.382  0.00  0.00    +0.000 A 
ATOM     26  N   UNL     1      44.532   2.069   9.457  0.00  0.00    +0.000 NA
ATOM     27  C   UNL     1      45.238   2.409   8.431  0.00  0.00    +0.000 A 
ATOM     28  N   UNL     1      45.798   3.646   8.244  0.00  0.00    +0.000 N 
ATOM     29  C   UNL     1      45.636   4.677   9.132  0.00  0.00    +0.000 A 
ATOM     30  O   UNL     1      46.098   5.796   8.907  0.00  0.00    +0.000 OA
ATOM     31  C   UNL     1      44.870   4.342  10.318  0.00  0.00    +0.000 A 
ATOM     32  H   UNL     1      46.321   3.858   7.406  0.00  0.00    +0.000 HD
ENDBRANCH  19  22
ENDBRANCH  17  18
ENDBRANCH   4  17
TORSDOF 7
ENDMDL
MODEL 9
REMARK VINA RESULT:    -5.777      2.531      3.183
REMARK INTER + INTRA:          -9.664
REMARK INTER:                  -7.865
REMARK INTRA:                  -1.799
REMARK UNBOUND:                -1.523
REMARK  Name = 
REMARK  8 active torsions:
REMARK  status: ('A' for Active; 'I' for Inactive)
REMARK    1  A    between atoms: C_1  and  C_2
REMARK    2  A    between atoms: C_2  and  O_3
REMARK    3  A    between atoms: O_3  and  C_4
REMARK    4  A    between atoms: C_9  and  C_10
REMARK    5  A    between atoms: C_10  and  C_11
REMARK    6  A    between atoms: C_14  and  C_15
REMARK    7  A    between atoms: C_15  and  N_16
REMARK    8  A    between atoms: C_17  and  C_19
REMARK                            x       y       z     vdW  Elec       q    Type
REMARK                         _______ _______ _______ _____ _____    ______ ____
ROOT
ATOM      1  C   UNL     1      45.688   7.181  11.913  0.00  0.00    +0.000 A 
ATOM      2  C   UNL     1      46.948   6.651  11.603  0.00  0.00    +0.000 A 
ATOM      3  C   UNL     1      48.098   7.443  11.677  0.00  0.00    +0.000 A 
ATOM      4  C   UNL     1      48.017   8.781  12.081  0.00  0.00    +0.000 A 
ATOM      5  C   UNL     1      46.753   9.327  12.344  0.00  0.00    +0.000 A 
ATOM      6  C   UNL     1      45.600   8.534  12.271  0.00  0.00    +0.000 A 
ENDROOT
BRANCH   1   7
ATOM      7  C   UNL     1      44.462   6.282  11.871  0.00  0.00    +0.000 C 
BRANCH   7  13
ATOM      8  C   UNL     1      44.843   3.784  11.612  0.00  0.00    +0.000 A 
ATOM      9  N   UNL     1      44.927   2.625  10.914  0.00  0.00    +0.000 NA
ATOM     10  C   UNL     1      44.802   2.695   9.576  0.00  0.00    +0.000 A 
ATOM     11  C   UNL     1      44.616   3.877   8.892  0.00  0.00    +0.000 A 
ATOM     12  C   UNL     1      44.507   5.054   9.629  0.00  0.00    +0.000 A 
ATOM     13  C   UNL     1      44.575   5.027  11.031  0.00  0.00    +0.000 A 
BRANCH   8  14
ATOM     14  O   UNL     1      45.040   3.717  12.982  0.00  0.00    +0.000 OA
BRANCH  14  16
ATOM     15  C   UNL     1      46.864   4.366  14.428  0.00  0.00    +0.000 C 
ATOM     16  C   UNL     1      46.415   3.458  13.298  0.00  0.00    +0.000 C 
ENDBRANCH  14  16
ENDBRANCH   8  14
ENDBRANCH   7  13
ENDBRANCH   1   7
BRANCH   4  17
ATOM     17  C   UNL     1      49.257   9.628  12.215  0.00  0.00    +0.000 C 
BRANCH  17  18
ATOM     18  N   UNL     1      50.046   9.229  13.350  0.00  0.00    +0.000 N 
ATOM     19  C   UNL     1      51.281   8.656  13.197  0.00  0.00    +0.000 C 
ATOM     20  O   UNL     1      51.791   8.478  12.094  0.00  0.00    +0.000 OA
ATOM     21  H   UNL     1      49.554   9.114  14.230  0.00  0.00    +0.000 HD
BRANCH  19  22
ATOM     22  C   UNL     1      51.995   8.320  14.436  0.00  0.00    +0.000 A 
ATOM     23  C   UNL     1      53.261   8.837  14.669  0.00  0.00    +0.000 A 
ATOM     24  S   UNL     1      53.924   8.369  16.169  0.00  0.00    +0.000 S 
ATOM     25  C   UNL     1      52.559   7.420  16.539  0.00  0.00    +0.000 A 
ATOM     26  N   UNL     1      52.493   6.706  17.694  0.00  0.00    +0.000 NA
ATOM     27  C   UNL     1      51.411   6.015  17.834  0.00  0.00    +0.000 A 
ATOM     28  N   UNL     1      50.386   5.977  16.925  0.00  0.00    +0.000 N 
ATOM     29  C   UNL     1      50.394   6.708  15.766  0.00  0.00    +0.000 A 
ATOM     30  O   UNL     1      49.431   6.703  14.997  0.00  0.00    +0.000 OA
ATOM     31  C   UNL     1      51.600   7.484  15.545  0.00  0.00    +0.000 A 
ATOM     32  H   UNL     1      49.552   5.435  17.105  0.00  0.00    +0.000 HD
ENDBRANCH  19  22
ENDBRANCH  17  18
ENDBRANCH   4  17
TORSDOF 7
ENDMDL
