MODEL 1
REMARK VINA RESULT:    -8.279      0.000      0.000
REMARK INTER + INTRA:         -13.686
REMARK INTER:                 -12.151
REMARK INTRA:                  -1.535
REMARK UNBOUND:                -1.535
REMARK  Name = 
REMARK  9 active torsions:
REMARK  status: ('A' for Active; 'I' for Inactive)
REMARK    1  A    between atoms: C_1  and  O_2
REMARK    2  A    between atoms: O_2  and  C_3
REMARK    3  A    between atoms: C_10  and  C_11
REMARK    4  A    between atoms: N_13  and  C_14
REMARK    5  A    between atoms: C_14  and  C_15
REMARK    6  A    between atoms: C_18  and  O_19
REMARK    7  A    between atoms: O_19  and  C_20
REMARK    8  A    between atoms: C_20  and  C_21
REMARK    9  A    between atoms: C_21  and  N_22
REMARK                            x       y       z     vdW  Elec       q    Type
REMARK                         _______ _______ _______ _____ _____    ______ ____
ROOT
ATOM      1  C   UNL     1      46.658   8.008  13.036  0.00  0.00    +0.000 C 
ENDROOT
BRANCH   1   2
ATOM      2  C   UNL     1      45.862   7.059  12.184  0.00  0.00    +0.000 A 
ATOM      3  C   UNL     1      44.548   6.769  12.551  0.00  0.00    +0.000 A 
ATOM      4  C   UNL     1      43.814   5.823  11.843  0.00  0.00    +0.000 A 
ATOM      5  C   UNL     1      44.369   5.138  10.757  0.00  0.00    +0.000 A 
ATOM      6  C   UNL     1      45.676   5.440  10.373  0.00  0.00    +0.000 A 
ATOM      7  C   UNL     1      46.422   6.393  11.087  0.00  0.00    +0.000 A 
BRANCH   5   8
ATOM      8  O   UNL     1      43.713   4.156  10.038  0.00  0.00    +0.000 OA
BRANCH   8   9
ATOM      9  C   UNL     1      44.208   2.844  10.318  0.00  0.00    +0.000 C 
BRANCH   9  10
ATOM     10  C   UNL     1      44.415   1.959   9.083  0.00  0.00    +0.000 C 
BRANCH  10  11
ATOM     11  N   UNL     1      45.687   2.290   8.389  0.00  0.00    +0.000 NA
ATOM     12  C   UNL     1      46.359   1.095   7.847  0.00  0.00    +0.000 C 
ATOM     13  C   UNL     1      47.674   1.437   7.145  0.00  0.00    +0.000 C 
ATOM     14  C   UNL     1      47.461   2.467   6.049  0.00  0.00    +0.000 C 
ATOM     15  C   UNL     1      46.742   3.682   6.618  0.00  0.00    +0.000 C 
ATOM     16  C   UNL     1      45.449   3.288   7.337  0.00  0.00    +0.000 C 
ENDBRANCH  10  11
ENDBRANCH   9  10
ENDBRANCH   8   9
ENDBRANCH   5   8
ENDBRANCH   1   2
BRANCH   1  19
ATOM     17  C   UNL     1      48.431   6.828  14.237  0.00  0.00    +0.000 C 
ATOM     18  O   UNL     1      49.146   6.815  13.239  0.00  0.00    +0.000 OA
ATOM     19  N   UNL     1      47.159   7.331  14.206  0.00  0.00    +0.000 N 
ATOM     20  H   UNL     1      46.662   7.460  15.079  0.00  0.00    +0.000 HD
BRANCH  17  28
ATOM     21  C   UNL     1      47.247   4.244  16.090  0.00  0.00    +0.000 A 
ATOM     22  N   UNL     1      46.936   3.291  17.002  0.00  0.00    +0.000 NA
ATOM     23  C   UNL     1      47.672   3.166  18.114  0.00  0.00    +0.000 A 
ATOM     24  C   UNL     1      48.761   3.953  18.403  0.00  0.00    +0.000 A 
ATOM     25  C   UNL     1      49.080   4.942  17.463  0.00  0.00    +0.000 A 
ATOM     26  S   UNL     1      50.380   6.056  17.599  0.00  0.00    +0.000 S 
ATOM     27  C   UNL     1      49.964   6.817  16.146  0.00  0.00    +0.000 A 
ATOM     28  C   UNL     1      48.876   6.244  15.508  0.00  0.00    +0.000 A 
ATOM     29  C   UNL     1      48.341   5.124  16.284  0.00  0.00    +0.000 A 
BRANCH  21  31
ATOM     30  C   UNL     1      46.967   3.552  13.869  0.00  0.00    +0.000 C 
ATOM     31  O   UNL     1      46.465   4.334  14.953  0.00  0.00    +0.000 OA
ENDBRANCH  21  31
ENDBRANCH  17  28
ENDBRANCH   1  19
TORSDOF 8
ENDMDL
MODEL 2
REMARK VINA RESULT:    -7.398      1.699      2.103
REMARK INTER + INTRA:         -12.393
REMARK INTER:                 -11.423
REMARK INTRA:                  -0.970
REMARK UNBOUND:                -1.535
REMARK  Name = 
REMARK  9 active torsions:
REMARK  status: ('A' for Active; 'I' for Inactive)
REMARK    1  A    between atoms: C_1  and  O_2
REMARK    2  A    between atoms: O_2  and  C_3
REMARK    3  A    between atoms: C_10  and  C_11
REMARK    4  A    between atoms: N_13  and  C_14
REMARK    5  A    between atoms: C_14  and  C_15
REMARK    6  A    between atoms: C_18  and  O_19
REMARK    7  A    between atoms: O_19  and  C_20
REMARK    8  A    between atoms: C_20  and  C_21
REMARK    9  A    between atoms: C_21  and  N_22
REMARK                            x       y       z     vdW  Elec       q    Type
REMARK                         _______ _______ _______ _____ _____    ______ ____
ROOT
ATOM      1  C   UNL     1      47.989   7.489  13.522  0.00  0.00    +0.000 C 
ENDROOT
BRANCH   1   2
ATOM      2  C   UNL     1      47.098   6.418  12.957  0.00  0.00    +0.000 A 
ATOM      3  C   UNL     1      46.485   6.636  11.724  0.00  0.00    +0.000 A 
ATOM      4  C   UNL     1      45.580   5.710  11.217  0.00  0.00    +0.000 A 
ATOM      5  C   UNL     1      45.257   4.547  11.924  0.00  0.00    +0.000 A 
ATOM      6  C   UNL     1      45.883   4.314  13.149  0.00  0.00    +0.000 A 
ATOM      7  C   UNL     1      46.797   5.248  13.667  0.00  0.00    +0.000 A 
BRANCH   5   8
ATOM      8  O   UNL     1      44.335   3.608  11.501  0.00  0.00    +0.000 OA
BRANCH   8   9
ATOM      9  C   UNL     1      44.166   3.603  10.081  0.00  0.00    +0.000 C 
BRANCH   9  10
ATOM     10  C   UNL     1      44.545   2.285   9.395  0.00  0.00    +0.000 C 
BRANCH  10  11
ATOM     11  N   UNL     1      45.758   2.444   8.550  0.00  0.00    +0.000 NA
ATOM     12  C   UNL     1      46.243   1.159   8.015  0.00  0.00    +0.000 C 
ATOM     13  C   UNL     1      47.499   1.324   7.158  0.00  0.00    +0.000 C 
ATOM     14  C   UNL     1      47.267   2.314   6.029  0.00  0.00    +0.000 C 
ATOM     15  C   UNL     1      46.741   3.625   6.594  0.00  0.00    +0.000 C 
ATOM     16  C   UNL     1      45.503   3.406   7.470  0.00  0.00    +0.000 C 
ENDBRANCH  10  11
ENDBRANCH   9  10
ENDBRANCH   8   9
ENDBRANCH   5   8
ENDBRANCH   1   2
BRANCH   1  19
ATOM     17  C   UNL     1      49.084   7.109  15.675  0.00  0.00    +0.000 C 
ATOM     18  O   UNL     1      50.101   6.698  15.123  0.00  0.00    +0.000 OA
ATOM     19  N   UNL     1      47.967   7.451  14.963  0.00  0.00    +0.000 N 
ATOM     20  H   UNL     1      47.208   7.924  15.439  0.00  0.00    +0.000 HD
BRANCH  17  28
ATOM     21  C   UNL     1      48.898   4.728  18.085  0.00  0.00    +0.000 A 
ATOM     22  N   UNL     1      48.776   3.968  19.201  0.00  0.00    +0.000 NA
ATOM     23  C   UNL     1      48.662   4.555  20.399  0.00  0.00    +0.000 A 
ATOM     24  C   UNL     1      48.668   5.917  20.587  0.00  0.00    +0.000 A 
ATOM     25  C   UNL     1      48.790   6.703  19.435  0.00  0.00    +0.000 A 
ATOM     26  S   UNL     1      48.810   8.420  19.403  0.00  0.00    +0.000 S 
ATOM     27  C   UNL     1      48.924   8.452  17.715  0.00  0.00    +0.000 A 
ATOM     28  C   UNL     1      48.984   7.195  17.136  0.00  0.00    +0.000 A 
ATOM     29  C   UNL     1      48.905   6.144  18.152  0.00  0.00    +0.000 A 
BRANCH  21  31
ATOM     30  C   UNL     1      48.536   2.739  16.901  0.00  0.00    +0.000 C 
ATOM     31  O   UNL     1      49.021   4.081  16.870  0.00  0.00    +0.000 OA
ENDBRANCH  21  31
ENDBRANCH  17  28
ENDBRANCH   1  19
TORSDOF 8
ENDMDL
MODEL 3
REMARK VINA RESULT:    -7.237      2.417      3.155
REMARK INTER + INTRA:         -12.156
REMARK INTER:                 -11.204
REMARK INTRA:                  -0.953
REMARK UNBOUND:                -1.535
REMARK  Name = 
REMARK  9 active torsions:
REMARK  status: ('A' for Active; 'I' for Inactive)
REMARK    1  A    between atoms: C_1  and  O_2
REMARK    2  A    between atoms: O_2  and  C_3
REMARK    3  A    between atoms: C_10  and  C_11
REMARK    4  A    between atoms: N_13  and  C_14
REMARK    5  A    between atoms: C_14  and  C_15
REMARK    6  A    between atoms: C_18  and  O_19
REMARK    7  A    between atoms: O_19  and  C_20
REMARK    8  A    between atoms: C_20  and  C_21
REMARK    9  A    between atoms: C_21  and  N_22
REMARK                            x       y       z     vdW  Elec       q    Type
REMARK                         _______ _______ _______ _____ _____    ______ ____
ROOT
ATOM      1  C   UNL     1      48.024   6.736  13.837  0.00  0.00    +0.000 C 
ENDROOT
BRANCH   1   2
ATOM      2  C   UNL     1      46.863   6.177  13.061  0.00  0.00    +0.000 A 
ATOM      3  C   UNL     1      46.121   5.137  13.621  0.00  0.00    +0.000 A 
ATOM      4  C   UNL     1      45.102   4.531  12.893  0.00  0.00    +0.000 A 
ATOM      5  C   UNL     1      44.800   4.939  11.589  0.00  0.00    +0.000 A 
ATOM      6  C   UNL     1      45.525   5.992  11.033  0.00  0.00    +0.000 A 
ATOM      7  C   UNL     1      46.558   6.606  11.764  0.00  0.00    +0.000 A 
BRANCH   5   8
ATOM      8  O   UNL     1      43.832   4.354  10.795  0.00  0.00    +0.000 OA
BRANCH   8   9
ATOM      9  C   UNL     1      44.374   3.391   9.887  0.00  0.00    +0.000 C 
BRANCH   9  10
ATOM     10  C   UNL     1      44.537   3.889   8.446  0.00  0.00    +0.000 C 
BRANCH  10  11
ATOM     11  N   UNL     1      45.347   2.942   7.635  0.00  0.00    +0.000 NA
ATOM     12  C   UNL     1      46.420   3.620   6.885  0.00  0.00    +0.000 C 
ATOM     13  C   UNL     1      47.243   2.645   6.041  0.00  0.00    +0.000 C 
ATOM     14  C   UNL     1      47.818   1.529   6.897  0.00  0.00    +0.000 C 
ATOM     15  C   UNL     1      46.703   0.857   7.685  0.00  0.00    +0.000 C 
ATOM     16  C   UNL     1      45.888   1.876   8.489  0.00  0.00    +0.000 C 
ENDBRANCH  10  11
ENDBRANCH   9  10
ENDBRANCH   8   9
ENDBRANCH   5   8
ENDBRANCH   1   2
BRANCH   1  19
ATOM     17  C   UNL     1      48.991   6.341  16.047  0.00  0.00    +0.000 C 
ATOM     18  O   UNL     1      50.132   6.415  15.598  0.00  0.00    +0.000 OA
ATOM     19  N   UNL     1      47.892   6.415  15.236  0.00  0.00    +0.000 N 
ATOM     20  H   UNL     1      46.976   6.501  15.659  0.00  0.00    +0.000 HD
BRANCH  17  28
ATOM     21  C   UNL     1      47.807   8.350  18.511  0.00  0.00    +0.000 A 
ATOM     22  N   UNL     1      47.399   8.967  19.647  0.00  0.00    +0.000 NA
ATOM     23  C   UNL     1      47.386   8.293  20.805  0.00  0.00    +0.000 A 
ATOM     24  C   UNL     1      47.760   6.976  20.927  0.00  0.00    +0.000 A 
ATOM     25  C   UNL     1      48.186   6.339  19.754  0.00  0.00    +0.000 A 
ATOM     26  S   UNL     1      48.714   4.708  19.645  0.00  0.00    +0.000 S 
ATOM     27  C   UNL     1      49.045   4.857  17.993  0.00  0.00    +0.000 A 
ATOM     28  C   UNL     1      48.741   6.105  17.474  0.00  0.00    +0.000 A 
ATOM     29  C   UNL     1      48.228   6.997  18.515  0.00  0.00    +0.000 A 
BRANCH  21  31
ATOM     30  C   UNL     1      48.959   9.898  17.181  0.00  0.00    +0.000 C 
ATOM     31  O   UNL     1      47.798   9.081  17.338  0.00  0.00    +0.000 OA
ENDBRANCH  21  31
ENDBRANCH  17  28
ENDBRANCH   1  19
TORSDOF 8
ENDMDL
MODEL 4
REMARK VINA RESULT:    -6.923      1.813      2.307
REMARK INTER + INTRA:         -11.697
REMARK INTER:                 -10.561
REMARK INTRA:                  -1.135
REMARK UNBOUND:                -1.535
REMARK  Name = 
REMARK  9 active torsions:
REMARK  status: ('A' for Active; 'I' for Inactive)
REMARK    1  A    between atoms: C_1  and  O_2
REMARK    2  A    between atoms: O_2  and  C_3
REMARK    3  A    between atoms: C_10  and  C_11
REMARK    4  A    between atoms: N_13  and  C_14
REMARK    5  A    between atoms: C_14  and  C_15
REMARK    6  A    between atoms: C_18  and  O_19
REMARK    7  A    between atoms: O_19  and  C_20
REMARK    8  A    between atoms: C_20  and  C_21
REMARK    9  A    between atoms: C_21  and  N_22
REMARK                            x       y       z     vdW  Elec       q    Type
REMARK                         _______ _______ _______ _____ _____    ______ ____
ROOT
ATOM      1  C   UNL     1      47.565   7.531  13.564  0.00  0.00    +0.000 C 
ENDROOT
BRANCH   1   2
ATOM      2  C   UNL     1      46.710   6.391  13.085  0.00  0.00    +0.000 A 
ATOM      3  C   UNL     1      46.853   5.143  13.691  0.00  0.00    +0.000 A 
ATOM      4  C   UNL     1      46.149   4.044  13.211  0.00  0.00    +0.000 A 
ATOM      5  C   UNL     1      45.290   4.156  12.112  0.00  0.00    +0.000 A 
ATOM      6  C   UNL     1      45.127   5.406  11.516  0.00  0.00    +0.000 A 
ATOM      7  C   UNL     1      45.838   6.519  11.996  0.00  0.00    +0.000 A 
BRANCH   5   8
ATOM      8  O   UNL     1      44.595   3.099  11.556  0.00  0.00    +0.000 OA
BRANCH   8   9
ATOM      9  C   UNL     1      44.196   3.351  10.206  0.00  0.00    +0.000 C 
BRANCH   9  10
ATOM     10  C   UNL     1      44.465   2.197   9.232  0.00  0.00    +0.000 C 
BRANCH  10  11
ATOM     11  N   UNL     1      45.726   2.412   8.475  0.00  0.00    +0.000 NA
ATOM     12  C   UNL     1      46.288   1.155   7.949  0.00  0.00    +0.000 C 
ATOM     13  C   UNL     1      47.592   1.378   7.182  0.00  0.00    +0.000 C 
ATOM     14  C   UNL     1      47.404   2.385   6.059  0.00  0.00    +0.000 C 
ATOM     15  C   UNL     1      46.798   3.666   6.612  0.00  0.00    +0.000 C 
ATOM     16  C   UNL     1      45.512   3.389   7.398  0.00  0.00    +0.000 C 
ENDBRANCH  10  11
ENDBRANCH   9  10
ENDBRANCH   8   9
ENDBRANCH   5   8
ENDBRANCH   1   2
BRANCH   1  19
ATOM     17  C   UNL     1      49.585   7.864  14.900  0.00  0.00    +0.000 C 
ATOM     18  O   UNL     1      49.423   9.081  14.904  0.00  0.00    +0.000 OA
ATOM     19  N   UNL     1      48.756   7.029  14.202  0.00  0.00    +0.000 N 
ATOM     20  H   UNL     1      48.833   6.029  14.346  0.00  0.00    +0.000 HD
BRANCH  17  28
ATOM     21  C   UNL     1      49.738   5.535  17.362  0.00  0.00    +0.000 A 
ATOM     22  N   UNL     1      50.041   4.659  18.352  0.00  0.00    +0.000 NA
ATOM     23  C   UNL     1      51.322   4.437  18.676  0.00  0.00    +0.000 A 
ATOM     24  C   UNL     1      52.385   5.045  18.053  0.00  0.00    +0.000 A 
ATOM     25  C   UNL     1      52.072   5.953  17.034  0.00  0.00    +0.000 A 
ATOM     26  S   UNL     1      53.216   6.848  16.116  0.00  0.00    +0.000 S 
ATOM     27  C   UNL     1      51.997   7.640  15.250  0.00  0.00    +0.000 A 
ATOM     28  C   UNL     1      50.718   7.238  15.593  0.00  0.00    +0.000 A 
ATOM     29  C   UNL     1      50.750   6.232  16.656  0.00  0.00    +0.000 A 
BRANCH  21  31
ATOM     30  C   UNL     1      47.659   4.512  17.012  0.00  0.00    +0.000 C 
ATOM     31  O   UNL     1      48.404   5.729  17.055  0.00  0.00    +0.000 OA
ENDBRANCH  21  31
ENDBRANCH  17  28
ENDBRANCH   1  19
TORSDOF 8
ENDMDL
MODEL 5
REMARK VINA RESULT:    -6.906      2.441      3.622
REMARK INTER + INTRA:         -11.672
REMARK INTER:                 -10.568
REMARK INTRA:                  -1.103
REMARK UNBOUND:                -1.535
REMARK  Name = 
REMARK  9 active torsions:
REMARK  status: ('A' for Active; 'I' for Inactive)
REMARK    1  A    between atoms: C_1  and  O_2
REMARK    2  A    between atoms: O_2  and  C_3
REMARK    3  A    between atoms: C_10  and  C_11
REMARK    4  A    between atoms: N_13  and  C_14
REMARK    5  A    between atoms: C_14  and  C_15
REMARK    6  A    between atoms: C_18  and  O_19
REMARK    7  A    between atoms: O_19  and  C_20
REMARK    8  A    between atoms: C_20  and  C_21
REMARK    9  A    between atoms: C_21  and  N_22
REMARK                            x       y       z     vdW  Elec       q    Type
REMARK                         _______ _______ _______ _____ _____    ______ ____
ROOT
ATOM      1  C   UNL     1      47.352   4.042  15.293  0.00  0.00    +0.000 C 
ENDROOT
BRANCH   1   2
ATOM      2  C   UNL     1      46.738   4.600  14.040  0.00  0.00    +0.000 A 
ATOM      3  C   UNL     1      45.780   3.841  13.368  0.00  0.00    +0.000 A 
ATOM      4  C   UNL     1      45.261   4.281  12.154  0.00  0.00    +0.000 A 
ATOM      5  C   UNL     1      45.685   5.482  11.576  0.00  0.00    +0.000 A 
ATOM      6  C   UNL     1      46.627   6.255  12.255  0.00  0.00    +0.000 A 
ATOM      7  C   UNL     1      47.157   5.813  13.480  0.00  0.00    +0.000 A 
BRANCH   5   8
ATOM      8  O   UNL     1      45.245   5.957  10.355  0.00  0.00    +0.000 OA
BRANCH   8   9
ATOM      9  C   UNL     1      45.732   5.184   9.255  0.00  0.00    +0.000 C 
BRANCH   9  10
ATOM     10  C   UNL     1      44.714   4.207   8.656  0.00  0.00    +0.000 C 
BRANCH  10  11
ATOM     11  N   UNL     1      45.381   3.182   7.812  0.00  0.00    +0.000 NA
ATOM     12  C   UNL     1      46.492   3.741   7.020  0.00  0.00    +0.000 C 
ATOM     13  C   UNL     1      47.167   2.687   6.142  0.00  0.00    +0.000 C 
ATOM     14  C   UNL     1      47.649   1.508   6.971  0.00  0.00    +0.000 C 
ATOM     15  C   UNL     1      46.499   0.959   7.803  0.00  0.00    +0.000 C 
ATOM     16  C   UNL     1      45.834   2.056   8.641  0.00  0.00    +0.000 C 
ENDBRANCH  10  11
ENDBRANCH   9  10
ENDBRANCH   8   9
ENDBRANCH   5   8
ENDBRANCH   1   2
BRANCH   1  19
ATOM     17  C   UNL     1      47.601   5.177  17.445  0.00  0.00    +0.000 C 
ATOM     18  O   UNL     1      46.791   4.421  17.975  0.00  0.00    +0.000 OA
ATOM     19  N   UNL     1      47.882   5.107  16.108  0.00  0.00    +0.000 N 
ATOM     20  H   UNL     1      48.661   5.642  15.742  0.00  0.00    +0.000 HD
BRANCH  17  28
ATOM     21  C   UNL     1      50.872   5.995  17.820  0.00  0.00    +0.000 A 
ATOM     22  N   UNL     1      52.096   6.479  18.144  0.00  0.00    +0.000 NA
ATOM     23  C   UNL     1      52.202   7.524  18.975  0.00  0.00    +0.000 A 
ATOM     24  C   UNL     1      51.124   8.168  19.534  0.00  0.00    +0.000 A 
ATOM     25  C   UNL     1      49.859   7.666  19.203  0.00  0.00    +0.000 A 
ATOM     26  S   UNL     1      48.364   8.285  19.779  0.00  0.00    +0.000 S 
ATOM     27  C   UNL     1      47.482   7.102  18.952  0.00  0.00    +0.000 A 
ATOM     28  C   UNL     1      48.267   6.242  18.203  0.00  0.00    +0.000 A 
ATOM     29  C   UNL     1      49.687   6.569  18.344  0.00  0.00    +0.000 A 
BRANCH  21  31
ATOM     30  C   UNL     1      50.984   3.663  17.610  0.00  0.00    +0.000 C 
ATOM     31  O   UNL     1      50.808   4.919  16.954  0.00  0.00    +0.000 OA
ENDBRANCH  21  31
ENDBRANCH  17  28
ENDBRANCH   1  19
TORSDOF 8
ENDMDL
MODEL 6
REMARK VINA RESULT:    -6.580      2.668      3.696
REMARK INTER + INTRA:         -11.192
REMARK INTER:                 -10.092
REMARK INTRA:                  -1.100
REMARK UNBOUND:                -1.535
REMARK  Name = 
REMARK  9 active torsions:
REMARK  status: ('A' for Active; 'I' for Inactive)
REMARK    1  A    between atoms: C_1  and  O_2
REMARK    2  A    between atoms: O_2  and  C_3
REMARK    3  A    between atoms: C_10  and  C_11
REMARK    4  A    between atoms: N_13  and  C_14
REMARK    5  A    between atoms: C_14  and  C_15
REMARK    6  A    between atoms: C_18  and  O_19
REMARK    7  A    between atoms: O_19  and  C_20
REMARK    8  A    between atoms: C_20  and  C_21
REMARK    9  A    between atoms: C_21  and  N_22
REMARK                            x       y       z     vdW  Elec       q    Type
REMARK                         _______ _______ _______ _____ _____    ______ ____
ROOT
ATOM      1  C   UNL     1      47.535   4.456  15.396  0.00  0.00    +0.000 C 
ENDROOT
BRANCH   1   2
ATOM      2  C   UNL     1      46.810   4.505  14.080  0.00  0.00    +0.000 A 
ATOM      3  C   UNL     1      46.560   5.747  13.497  0.00  0.00    +0.000 A 
ATOM      4  C   UNL     1      45.808   5.836  12.330  0.00  0.00    +0.000 A 
ATOM      5  C   UNL     1      45.282   4.695  11.716  0.00  0.00    +0.000 A 
ATOM      6  C   UNL     1      45.548   3.448  12.283  0.00  0.00    +0.000 A 
ATOM      7  C   UNL     1      46.304   3.353  13.464  0.00  0.00    +0.000 A 
BRANCH   5   8
ATOM      8  O   UNL     1      44.493   4.714  10.582  0.00  0.00    +0.000 OA
BRANCH   8   9
ATOM      9  C   UNL     1      45.257   4.621   9.377  0.00  0.00    +0.000 C 
BRANCH   9  10
ATOM     10  C   UNL     1      44.509   4.002   8.190  0.00  0.00    +0.000 C 
BRANCH  10  11
ATOM     11  N   UNL     1      45.340   2.982   7.500  0.00  0.00    +0.000 NA
ATOM     12  C   UNL     1      46.446   3.583   6.732  0.00  0.00    +0.000 C 
ATOM     13  C   UNL     1      47.292   2.531   6.012  0.00  0.00    +0.000 C 
ATOM     14  C   UNL     1      47.826   1.495   6.986  0.00  0.00    +0.000 C 
ATOM     15  C   UNL     1      46.678   0.904   7.791  0.00  0.00    +0.000 C 
ATOM     16  C   UNL     1      45.842   1.995   8.467  0.00  0.00    +0.000 C 
ENDBRANCH  10  11
ENDBRANCH   9  10
ENDBRANCH   8   9
ENDBRANCH   5   8
ENDBRANCH   1   2
BRANCH   1  19
ATOM     17  C   UNL     1      48.978   6.150  16.409  0.00  0.00    +0.000 C 
ATOM     18  O   UNL     1      49.872   5.328  16.592  0.00  0.00    +0.000 OA
ATOM     19  N   UNL     1      47.763   5.790  15.892  0.00  0.00    +0.000 N 
ATOM     20  H   UNL     1      47.113   6.517  15.618  0.00  0.00    +0.000 HD
BRANCH  17  28
ATOM     21  C   UNL     1      47.632   7.982  18.928  0.00  0.00    +0.000 A 
ATOM     22  N   UNL     1      47.197   8.908  19.817  0.00  0.00    +0.000 NA
ATOM     23  C   UNL     1      47.628  10.172  19.728  0.00  0.00    +0.000 A 
ATOM     24  C   UNL     1      48.516  10.613  18.775  0.00  0.00    +0.000 A 
ATOM     25  C   UNL     1      48.963   9.657  17.853  0.00  0.00    +0.000 A 
ATOM     26  S   UNL     1      50.058   9.958  16.565  0.00  0.00    +0.000 S 
ATOM     27  C   UNL     1      49.956   8.360  16.019  0.00  0.00    +0.000 A 
ATOM     28  C   UNL     1      49.137   7.557  16.795  0.00  0.00    +0.000 A 
ATOM     29  C   UNL     1      48.539   8.320  17.892  0.00  0.00    +0.000 A 
BRANCH  21  31
ATOM     30  C   UNL     1      47.862   5.944  20.061  0.00  0.00    +0.000 C 
ATOM     31  O   UNL     1      47.166   6.687  19.060  0.00  0.00    +0.000 OA
ENDBRANCH  21  31
ENDBRANCH  17  28
ENDBRANCH   1  19
TORSDOF 8
ENDMDL
MODEL 7
REMARK VINA RESULT:    -6.381      1.784      2.583
REMARK INTER + INTRA:         -10.901
REMARK INTER:                  -9.774
REMARK INTRA:                  -1.127
REMARK UNBOUND:                -1.535
REMARK  Name = 
REMARK  9 active torsions:
REMARK  status: ('A' for Active; 'I' for Inactive)
REMARK    1  A    between atoms: C_1  and  O_2
REMARK    2  A    between atoms: O_2  and  C_3
REMARK    3  A    between atoms: C_10  and  C_11
REMARK    4  A    between atoms: N_13  and  C_14
REMARK    5  A    between atoms: C_14  and  C_15
REMARK    6  A    between atoms: C_18  and  O_19
REMARK    7  A    between atoms: O_19  and  C_20
REMARK    8  A    between atoms: C_20  and  C_21
REMARK    9  A    between atoms: C_21  and  N_22
REMARK                            x       y       z     vdW  Elec       q    Type
REMARK                         _______ _______ _______ _____ _____    ______ ____
ROOT
ATOM      1  C   UNL     1      48.163   8.694  14.692  0.00  0.00    +0.000 C 
ENDROOT
BRANCH   1   2
ATOM      2  C   UNL     1      47.288   7.968  13.708  0.00  0.00    +0.000 A 
ATOM      3  C   UNL     1      47.721   6.743  13.202  0.00  0.00    +0.000 A 
ATOM      4  C   UNL     1      46.985   6.091  12.218  0.00  0.00    +0.000 A 
ATOM      5  C   UNL     1      45.804   6.641  11.709  0.00  0.00    +0.000 A 
ATOM      6  C   UNL     1      45.355   7.857  12.228  0.00  0.00    +0.000 A 
ATOM      7  C   UNL     1      46.097   8.521  13.220  0.00  0.00    +0.000 A 
BRANCH   5   8
ATOM      8  O   UNL     1      45.048   6.070  10.704  0.00  0.00    +0.000 OA
BRANCH   8   9
ATOM      9  C   UNL     1      45.194   4.649  10.644  0.00  0.00    +0.000 C 
BRANCH   9  10
ATOM     10  C   UNL     1      44.194   3.939   9.723  0.00  0.00    +0.000 C 
BRANCH  10  11
ATOM     11  N   UNL     1      44.889   3.218   8.625  0.00  0.00    +0.000 NA
ATOM     12  C   UNL     1      45.901   4.056   7.955  0.00  0.00    +0.000 C 
ATOM     13  C   UNL     1      46.605   3.315   6.816  0.00  0.00    +0.000 C 
ATOM     14  C   UNL     1      47.231   2.020   7.307  0.00  0.00    +0.000 C 
ATOM     15  C   UNL     1      46.182   1.180   8.021  0.00  0.00    +0.000 C 
ATOM     16  C   UNL     1      45.483   1.972   9.130  0.00  0.00    +0.000 C 
ENDBRANCH  10  11
ENDBRANCH   9  10
ENDBRANCH   8   9
ENDBRANCH   5   8
ENDBRANCH   1   2
BRANCH   1  19
ATOM     17  C   UNL     1      49.376   7.690  16.562  0.00  0.00    +0.000 C 
ATOM     18  O   UNL     1      48.808   8.422  17.368  0.00  0.00    +0.000 OA
ATOM     19  N   UNL     1      49.172   7.806  15.214  0.00  0.00    +0.000 N 
ATOM     20  H   UNL     1      49.539   7.091  14.599  0.00  0.00    +0.000 HD
BRANCH  17  28
ATOM     21  C   UNL     1      49.278   4.300  16.649  0.00  0.00    +0.000 A 
ATOM     22  N   UNL     1      49.452   2.965  16.811  0.00  0.00    +0.000 NA
ATOM     23  C   UNL     1      50.597   2.499  17.328  0.00  0.00    +0.000 A 
ATOM     24  C   UNL     1      51.645   3.301  17.711  0.00  0.00    +0.000 A 
ATOM     25  C   UNL     1      51.465   4.681  17.548  0.00  0.00    +0.000 A 
ATOM     26  S   UNL     1      52.615   5.887  17.960  0.00  0.00    +0.000 S 
ATOM     27  C   UNL     1      51.569   7.134  17.497  0.00  0.00    +0.000 A 
ATOM     28  C   UNL     1      50.359   6.689  16.994  0.00  0.00    +0.000 A 
ATOM     29  C   UNL     1      50.285   5.227  17.019  0.00  0.00    +0.000 A 
BRANCH  21  31
ATOM     30  C   UNL     1      46.942   4.288  16.836  0.00  0.00    +0.000 C 
ATOM     31  O   UNL     1      48.084   4.737  16.106  0.00  0.00    +0.000 OA
ENDBRANCH  21  31
ENDBRANCH  17  28
ENDBRANCH   1  19
TORSDOF 8
ENDMDL
MODEL 8
REMARK VINA RESULT:    -6.262      2.111      3.875
REMARK INTER + INTRA:         -10.727
REMARK INTER:                  -9.535
REMARK INTRA:                  -1.191
REMARK UNBOUND:                -1.535
REMARK  Name = 
REMARK  9 active torsions:
REMARK  status: ('A' for Active; 'I' for Inactive)
REMARK    1  A    between atoms: C_1  and  O_2
REMARK    2  A    between atoms: O_2  and  C_3
REMARK    3  A    between atoms: C_10  and  C_11
REMARK    4  A    between atoms: N_13  and  C_14
REMARK    5  A    between atoms: C_14  and  C_15
REMARK    6  A    between atoms: C_18  and  O_19
REMARK    7  A    between atoms: O_19  and  C_20
REMARK    8  A    between atoms: C_20  and  C_21
REMARK    9  A    between atoms: C_21  and  N_22
REMARK                            x       y       z     vdW  Elec       q    Type
REMARK                         _______ _______ _______ _____ _____    ______ ____
ROOT
ATOM      1  C   UNL     1      47.500   4.392  15.107  0.00  0.00    +0.000 C 
ENDROOT
BRANCH   1   2
ATOM      2  C   UNL     1      46.581   4.485  13.921  0.00  0.00    +0.000 A 
ATOM      3  C   UNL     1      46.167   3.307  13.299  0.00  0.00    +0.000 A 
ATOM      4  C   UNL     1      45.396   3.358  12.142  0.00  0.00    +0.000 A 
ATOM      5  C   UNL     1      45.023   4.579  11.571  0.00  0.00    +0.000 A 
ATOM      6  C   UNL     1      45.416   5.760  12.201  0.00  0.00    +0.000 A 
ATOM      7  C   UNL     1      46.198   5.714  13.369  0.00  0.00    +0.000 A 
BRANCH   5   8
ATOM      8  O   UNL     1      44.297   4.702  10.402  0.00  0.00    +0.000 OA
BRANCH   8   9
ATOM      9  C   UNL     1      45.114   4.602   9.232  0.00  0.00    +0.000 C 
BRANCH   9  10
ATOM     10  C   UNL     1      44.438   3.927   8.033  0.00  0.00    +0.000 C 
BRANCH  10  11
ATOM     11  N   UNL     1      45.343   2.939   7.389  0.00  0.00    +0.000 NA
ATOM     12  C   UNL     1      46.443   3.583   6.649  0.00  0.00    +0.000 C 
ATOM     13  C   UNL     1      47.365   2.564   5.976  0.00  0.00    +0.000 C 
ATOM     14  C   UNL     1      47.915   1.571   6.985  0.00  0.00    +0.000 C 
ATOM     15  C   UNL     1      46.770   0.935   7.760  0.00  0.00    +0.000 C 
ATOM     16  C   UNL     1      45.858   1.993   8.389  0.00  0.00    +0.000 C 
ENDBRANCH  10  11
ENDBRANCH   9  10
ENDBRANCH   8   9
ENDBRANCH   5   8
ENDBRANCH   1   2
BRANCH   1  19
ATOM     17  C   UNL     1      48.852   5.912  16.463  0.00  0.00    +0.000 C 
ATOM     18  O   UNL     1      49.494   4.977  16.933  0.00  0.00    +0.000 OA
ATOM     19  N   UNL     1      47.801   5.709  15.611  0.00  0.00    +0.000 N 
ATOM     20  H   UNL     1      47.398   6.505  15.131  0.00  0.00    +0.000 HD
BRANCH  17  28
ATOM     21  C   UNL     1      50.007   8.561  14.685  0.00  0.00    +0.000 A 
ATOM     22  N   UNL     1      50.485   9.731  14.196  0.00  0.00    +0.000 NA
ATOM     23  C   UNL     1      50.610  10.791  15.005  0.00  0.00    +0.000 A 
ATOM     24  C   UNL     1      50.269  10.781  16.336  0.00  0.00    +0.000 A 
ATOM     25  C   UNL     1      49.779   9.571  16.844  0.00  0.00    +0.000 A 
ATOM     26  S   UNL     1      49.298   9.299  18.470  0.00  0.00    +0.000 S 
ATOM     27  C   UNL     1      48.940   7.674  18.160  0.00  0.00    +0.000 A 
ATOM     28  C   UNL     1      49.133   7.303  16.840  0.00  0.00    +0.000 A 
ATOM     29  C   UNL     1      49.633   8.426  16.045  0.00  0.00    +0.000 A 
BRANCH  21  31
ATOM     30  C   UNL     1      49.128   7.810  12.646  0.00  0.00    +0.000 C 
ATOM     31  O   UNL     1      49.888   7.494  13.813  0.00  0.00    +0.000 OA
ENDBRANCH  21  31
ENDBRANCH  17  28
ENDBRANCH   1  19
TORSDOF 8
ENDMDL
MODEL 9
REMARK VINA RESULT:    -6.076      3.493      8.428
REMARK INTER + INTRA:         -10.453
REMARK INTER:                  -9.073
REMARK INTRA:                  -1.380
REMARK UNBOUND:                -1.535
REMARK  Name = 
REMARK  9 active torsions:
REMARK  status: ('A' for Active; 'I' for Inactive)
REMARK    1  A    between atoms: C_1  and  O_2
REMARK    2  A    between atoms: O_2  and  C_3
REMARK    3  A    between atoms: C_10  and  C_11
REMARK    4  A    between atoms: N_13  and  C_14
REMARK    5  A    between atoms: C_14  and  C_15
REMARK    6  A    between atoms: C_18  and  O_19
REMARK    7  A    between atoms: O_19  and  C_20
REMARK    8  A    between atoms: C_20  and  C_21
REMARK    9  A    between atoms: C_21  and  N_22
REMARK                            x       y       z     vdW  Elec       q    Type
REMARK                         _______ _______ _______ _____ _____    ______ ____
ROOT
ATOM      1  C   UNL     1      47.157   3.310  16.779  0.00  0.00    +0.000 C 
ENDROOT
BRANCH   1   2
ATOM      2  C   UNL     1      48.518   3.470  17.395  0.00  0.00    +0.000 A 
ATOM      3  C   UNL     1      48.703   4.453  18.368  0.00  0.00    +0.000 A 
ATOM      4  C   UNL     1      49.970   4.694  18.890  0.00  0.00    +0.000 A 
ATOM      5  C   UNL     1      51.085   3.969  18.455  0.00  0.00    +0.000 A 
ATOM      6  C   UNL     1      50.901   2.970  17.498  0.00  0.00    +0.000 A 
ATOM      7  C   UNL     1      49.624   2.725  16.965  0.00  0.00    +0.000 A 
BRANCH   5   8
ATOM      8  O   UNL     1      52.376   4.185  18.898  0.00  0.00    +0.000 OA
BRANCH   8   9
ATOM      9  C   UNL     1      53.248   4.631  17.856  0.00  0.00    +0.000 C 
BRANCH   9  10
ATOM     10  C   UNL     1      53.306   6.153  17.675  0.00  0.00    +0.000 C 
BRANCH  10  11
ATOM     11  N   UNL     1      52.714   6.566  16.376  0.00  0.00    +0.000 NA
ATOM     12  C   UNL     1      51.303   6.975  16.506  0.00  0.00    +0.000 C 
ATOM     13  C   UNL     1      50.693   7.386  15.165  0.00  0.00    +0.000 C 
ATOM     14  C   UNL     1      51.505   8.489  14.506  0.00  0.00    +0.000 C 
ATOM     15  C   UNL     1      52.963   8.064  14.405  0.00  0.00    +0.000 C 
ATOM     16  C   UNL     1      53.521   7.631  15.765  0.00  0.00    +0.000 C 
ENDBRANCH  10  11
ENDBRANCH   9  10
ENDBRANCH   8   9
ENDBRANCH   5   8
ENDBRANCH   1   2
BRANCH   1  19
ATOM     17  C   UNL     1      46.864   4.218  14.528  0.00  0.00    +0.000 C 
ATOM     18  O   UNL     1      47.206   3.155  14.017  0.00  0.00    +0.000 OA
ATOM     19  N   UNL     1      46.881   4.405  15.883  0.00  0.00    +0.000 N 
ATOM     20  H   UNL     1      46.451   5.237  16.268  0.00  0.00    +0.000 HD
BRANCH  17  28
ATOM     21  C   UNL     1      44.095   4.868  12.678  0.00  0.00    +0.000 A 
ATOM     22  N   UNL     1      43.117   5.325  11.857  0.00  0.00    +0.000 NA
ATOM     23  C   UNL     1      43.251   6.515  11.257  0.00  0.00    +0.000 A 
ATOM     24  C   UNL     1      44.339   7.338  11.426  0.00  0.00    +0.000 A 
ATOM     25  C   UNL     1      45.352   6.865  12.270  0.00  0.00    +0.000 A 
ATOM     26  S   UNL     1      46.811   7.696  12.632  0.00  0.00    +0.000 S 
ATOM     27  C   UNL     1      47.370   6.426  13.601  0.00  0.00    +0.000 A 
ATOM     28  C   UNL     1      46.477   5.373  13.709  0.00  0.00    +0.000 A 
ATOM     29  C   UNL     1      45.270   5.624  12.920  0.00  0.00    +0.000 A 
BRANCH  21  31
ATOM     30  C   UNL     1      43.567   2.608  12.356  0.00  0.00    +0.000 C 
ATOM     31  O   UNL     1      43.912   3.639  13.282  0.00  0.00    +0.000 OA
ENDBRANCH  21  31
ENDBRANCH  17  28
ENDBRANCH   1  19
TORSDOF 8
ENDMDL
