MODEL 1
REMARK VINA RESULT:    -8.479      0.000      0.000
REMARK INTER + INTRA:         -12.336
REMARK INTER:                 -10.958
REMARK INTRA:                  -1.378
REMARK UNBOUND:                -1.378
REMARK  Name = 
REMARK  6 active torsions:
REMARK  status: ('A' for Active; 'I' for Inactive)
REMARK    1  A    between atoms: C_1  and  C_2
REMARK    2  A    between atoms: C_4  and  C_5
REMARK    3  A    between atoms: C_10  and  O_11
REMARK    4  A    between atoms: O_11  and  C_12
REMARK    5  A    between atoms: C_12  and  C_13
REMARK    6  A    between atoms: C_17  and  C_18
REMARK                            x       y       z     vdW  Elec       q    Type
REMARK                         _______ _______ _______ _____ _____    ______ ____
ROOT
ATOM      1  C   UNL     1      44.127   6.710  11.387  0.00  0.00    +0.000 C 
ENDROOT
BRANCH   1   2
ATOM      2  C   UNL     1      44.068   5.218  11.138  0.00  0.00    +0.000 A 
ATOM      3  C   UNL     1      43.292   4.344  11.902  0.00  0.00    +0.000 A 
ATOM      4  C   UNL     1      43.289   2.981  11.613  0.00  0.00    +0.000 A 
ATOM      5  C   UNL     1      44.054   2.481  10.555  0.00  0.00    +0.000 A 
ATOM      6  C   UNL     1      44.838   3.328   9.754  0.00  0.00    +0.000 A 
ATOM      7  C   UNL     1      44.836   4.696  10.078  0.00  0.00    +0.000 A 
BRANCH   6   8
ATOM      8  C   UNL     1      45.632   2.820   8.615  0.00  0.00    +0.000 A 
ATOM      9  C   UNL     1      46.068   3.650   7.577  0.00  0.00    +0.000 A 
ATOM     10  C   UNL     1      46.805   3.109   6.526  0.00  0.00    +0.000 A 
ATOM     11  C   UNL     1      47.097   1.754   6.538  0.00  0.00    +0.000 A 
ATOM     12  C   UNL     1      46.647   1.001   7.606  0.00  0.00    +0.000 A 
ATOM     13  F   UNL     1      46.937  -0.308   7.628  0.00  0.00    +0.000 F 
ATOM     14  N   UNL     1      45.932   1.496   8.638  0.00  0.00    +0.000 NA
ENDBRANCH   6   8
ENDBRANCH   1   2
BRANCH   1  15
ATOM     15  O   UNL     1      44.809   7.051  12.586  0.00  0.00    +0.000 OA
BRANCH  15  22
ATOM     16  C   UNL     1      46.809   4.767  13.548  0.00  0.00    +0.000 C 
ATOM     17  C   UNL     1      47.116   6.138  13.010  0.00  0.00    +0.000 A 
ATOM     18  C   UNL     1      48.490   6.460  12.917  0.00  0.00    +0.000 A 
ATOM     19  C   UNL     1      48.948   7.692  12.432  0.00  0.00    +0.000 A 
ATOM     20  C   UNL     1      48.009   8.637  12.027  0.00  0.00    +0.000 A 
ATOM     21  C   UNL     1      46.644   8.337  12.115  0.00  0.00    +0.000 A 
ATOM     22  C   UNL     1      46.177   7.101  12.602  0.00  0.00    +0.000 A 
BRANCH  19  23
ATOM     23  C   UNL     1      50.423   7.907  12.381  0.00  0.00    +0.000 C 
ATOM     24  N   UNL     1      51.114   7.485  11.281  0.00  0.00    +0.000 N 
ATOM     25  O   UNL     1      51.023   8.452  13.300  0.00  0.00    +0.000 OA
ATOM     26  H   UNL     1      50.711   7.034  10.474  0.00  0.00    +0.000 HD
ATOM     27  H   UNL     1      52.112   7.651  11.284  0.00  0.00    +0.000 HD
ENDBRANCH  19  23
ENDBRANCH  15  22
ENDBRANCH   1  15
TORSDOF 5
ENDMDL
MODEL 2
REMARK VINA RESULT:    -8.045      3.729      7.288
REMARK INTER + INTRA:         -11.774
REMARK INTER:                 -11.033
REMARK INTRA:                  -0.741
REMARK UNBOUND:                -1.378
REMARK  Name = 
REMARK  6 active torsions:
REMARK  status: ('A' for Active; 'I' for Inactive)
REMARK    1  A    between atoms: C_1  and  C_2
REMARK    2  A    between atoms: C_4  and  C_5
REMARK    3  A    between atoms: C_10  and  O_11
REMARK    4  A    between atoms: O_11  and  C_12
REMARK    5  A    between atoms: C_12  and  C_13
REMARK    6  A    between atoms: C_17  and  C_18
REMARK                            x       y       z     vdW  Elec       q    Type
REMARK                         _______ _______ _______ _____ _____    ______ ____
ROOT
ATOM      1  C   UNL     1      44.365   5.070  11.619  0.00  0.00    +0.000 C 
ENDROOT
BRANCH   1   2
ATOM      2  C   UNL     1      45.666   5.598  12.187  0.00  0.00    +0.000 A 
ATOM      3  C   UNL     1      46.481   6.509  11.515  0.00  0.00    +0.000 A 
ATOM      4  C   UNL     1      47.666   6.950  12.102  0.00  0.00    +0.000 A 
ATOM      5  C   UNL     1      48.041   6.490  13.368  0.00  0.00    +0.000 A 
ATOM      6  C   UNL     1      47.241   5.583  14.084  0.00  0.00    +0.000 A 
ATOM      7  C   UNL     1      46.060   5.141  13.461  0.00  0.00    +0.000 A 
BRANCH   6   8
ATOM      8  C   UNL     1      47.608   5.107  15.435  0.00  0.00    +0.000 A 
ATOM      9  C   UNL     1      48.572   5.748  16.220  0.00  0.00    +0.000 A 
ATOM     10  C   UNL     1      48.881   5.244  17.481  0.00  0.00    +0.000 A 
ATOM     11  C   UNL     1      48.215   4.115  17.934  0.00  0.00    +0.000 A 
ATOM     12  C   UNL     1      47.264   3.546  17.110  0.00  0.00    +0.000 A 
ATOM     13  F   UNL     1      46.609   2.461  17.548  0.00  0.00    +0.000 F 
ATOM     14  N   UNL     1      46.943   4.012  15.884  0.00  0.00    +0.000 NA
ENDBRANCH   6   8
ENDBRANCH   1   2
BRANCH   1  15
ATOM     15  O   UNL     1      44.312   5.123  10.200  0.00  0.00    +0.000 OA
BRANCH  15  22
ATOM     16  C   UNL     1      43.997   1.963  10.434  0.00  0.00    +0.000 C 
ATOM     17  C   UNL     1      44.866   2.768   9.508  0.00  0.00    +0.000 A 
ATOM     18  C   UNL     1      45.658   2.014   8.610  0.00  0.00    +0.000 A 
ATOM     19  C   UNL     1      46.519   2.608   7.676  0.00  0.00    +0.000 A 
ATOM     20  C   UNL     1      46.596   3.997   7.635  0.00  0.00    +0.000 A 
ATOM     21  C   UNL     1      45.822   4.759   8.518  0.00  0.00    +0.000 A 
ATOM     22  C   UNL     1      44.956   4.169   9.458  0.00  0.00    +0.000 A 
BRANCH  19  23
ATOM     23  C   UNL     1      47.297   1.701   6.783  0.00  0.00    +0.000 C 
ATOM     24  N   UNL     1      48.243   2.241   5.959  0.00  0.00    +0.000 N 
ATOM     25  O   UNL     1      47.106   0.491   6.775  0.00  0.00    +0.000 OA
ATOM     26  H   UNL     1      48.478   3.220   5.899  0.00  0.00    +0.000 HD
ATOM     27  H   UNL     1      48.751   1.593   5.371  0.00  0.00    +0.000 HD
ENDBRANCH  19  23
ENDBRANCH  15  22
ENDBRANCH   1  15
TORSDOF 5
ENDMDL
MODEL 3
REMARK VINA RESULT:    -7.705      1.691      2.247
REMARK INTER + INTRA:         -11.335
REMARK INTER:                 -10.682
REMARK INTRA:                  -0.653
REMARK UNBOUND:                -1.378
REMARK  Name = 
REMARK  6 active torsions:
REMARK  status: ('A' for Active; 'I' for Inactive)
REMARK    1  A    between atoms: C_1  and  C_2
REMARK    2  A    between atoms: C_4  and  C_5
REMARK    3  A    between atoms: C_10  and  O_11
REMARK    4  A    between atoms: O_11  and  C_12
REMARK    5  A    between atoms: C_12  and  C_13
REMARK    6  A    between atoms: C_17  and  C_18
REMARK                            x       y       z     vdW  Elec       q    Type
REMARK                         _______ _______ _______ _____ _____    ______ ____
ROOT
ATOM      1  C   UNL     1      44.268   6.621  11.384  0.00  0.00    +0.000 C 
ENDROOT
BRANCH   1   2
ATOM      2  C   UNL     1      44.148   5.142  11.079  0.00  0.00    +0.000 A 
ATOM      3  C   UNL     1      43.306   4.281  11.785  0.00  0.00    +0.000 A 
ATOM      4  C   UNL     1      43.248   2.930  11.447  0.00  0.00    +0.000 A 
ATOM      5  C   UNL     1      44.026   2.431  10.397  0.00  0.00    +0.000 A 
ATOM      6  C   UNL     1      44.875   3.266   9.653  0.00  0.00    +0.000 A 
ATOM      7  C   UNL     1      44.927   4.621  10.027  0.00  0.00    +0.000 A 
BRANCH   6   8
ATOM      8  C   UNL     1      45.684   2.761   8.523  0.00  0.00    +0.000 A 
ATOM      9  C   UNL     1      46.121   3.590   7.486  0.00  0.00    +0.000 A 
ATOM     10  C   UNL     1      46.872   3.051   6.444  0.00  0.00    +0.000 A 
ATOM     11  C   UNL     1      47.176   1.698   6.464  0.00  0.00    +0.000 A 
ATOM     12  C   UNL     1      46.722   0.946   7.531  0.00  0.00    +0.000 A 
ATOM     13  F   UNL     1      47.023  -0.361   7.561  0.00  0.00    +0.000 F 
ATOM     14  N   UNL     1      45.994   1.440   8.555  0.00  0.00    +0.000 NA
ENDBRANCH   6   8
ENDBRANCH   1   2
BRANCH   1  15
ATOM     15  O   UNL     1      45.585   7.124  11.203  0.00  0.00    +0.000 OA
BRANCH  15  22
ATOM     16  C   UNL     1      46.953   9.761  12.349  0.00  0.00    +0.000 C 
ATOM     17  C   UNL     1      47.067   8.342  12.833  0.00  0.00    +0.000 A 
ATOM     18  C   UNL     1      47.901   8.148  13.960  0.00  0.00    +0.000 A 
ATOM     19  C   UNL     1      48.110   6.890  14.540  0.00  0.00    +0.000 A 
ATOM     20  C   UNL     1      47.471   5.787  13.982  0.00  0.00    +0.000 A 
ATOM     21  C   UNL     1      46.645   5.958  12.865  0.00  0.00    +0.000 A 
ATOM     22  C   UNL     1      46.430   7.219  12.276  0.00  0.00    +0.000 A 
BRANCH  19  23
ATOM     23  C   UNL     1      49.010   6.821  15.728  0.00  0.00    +0.000 C 
ATOM     24  N   UNL     1      48.517   7.176  16.951  0.00  0.00    +0.000 N 
ATOM     25  O   UNL     1      50.176   6.455  15.628  0.00  0.00    +0.000 OA
ATOM     26  H   UNL     1      47.574   7.482  17.135  0.00  0.00    +0.000 HD
ATOM     27  H   UNL     1      49.158   7.113  17.731  0.00  0.00    +0.000 HD
ENDBRANCH  19  23
ENDBRANCH  15  22
ENDBRANCH   1  15
TORSDOF 5
ENDMDL
MODEL 4
REMARK VINA RESULT:    -7.411      2.945      3.575
REMARK INTER + INTRA:         -10.955
REMARK INTER:                  -9.971
REMARK INTRA:                  -0.984
REMARK UNBOUND:                -1.378
REMARK  Name = 
REMARK  6 active torsions:
REMARK  status: ('A' for Active; 'I' for Inactive)
REMARK    1  A    between atoms: C_1  and  C_2
REMARK    2  A    between atoms: C_4  and  C_5
REMARK    3  A    between atoms: C_10  and  O_11
REMARK    4  A    between atoms: O_11  and  C_12
REMARK    5  A    between atoms: C_12  and  C_13
REMARK    6  A    between atoms: C_17  and  C_18
REMARK                            x       y       z     vdW  Elec       q    Type
REMARK                         _______ _______ _______ _____ _____    ______ ____
ROOT
ATOM      1  C   UNL     1      46.183   7.242  12.291  0.00  0.00    +0.000 C 
ENDROOT
BRANCH   1   2
ATOM      2  C   UNL     1      45.212   6.321  11.581  0.00  0.00    +0.000 A 
ATOM      3  C   UNL     1      43.838   6.324  11.824  0.00  0.00    +0.000 A 
ATOM      4  C   UNL     1      43.006   5.445  11.132  0.00  0.00    +0.000 A 
ATOM      5  C   UNL     1      43.540   4.564  10.187  0.00  0.00    +0.000 A 
ATOM      6  C   UNL     1      44.915   4.539   9.903  0.00  0.00    +0.000 A 
ATOM      7  C   UNL     1      45.734   5.424  10.628  0.00  0.00    +0.000 A 
BRANCH   6   8
ATOM      8  C   UNL     1      45.493   3.633   8.888  0.00  0.00    +0.000 A 
ATOM      9  C   UNL     1      45.584   2.251   9.082  0.00  0.00    +0.000 A 
ATOM     10  C   UNL     1      46.148   1.451   8.092  0.00  0.00    +0.000 A 
ATOM     11  C   UNL     1      46.603   2.048   6.925  0.00  0.00    +0.000 A 
ATOM     12  C   UNL     1      46.465   3.417   6.798  0.00  0.00    +0.000 A 
ATOM     13  F   UNL     1      46.893   3.997   5.668  0.00  0.00    +0.000 F 
ATOM     14  N   UNL     1      45.922   4.217   7.740  0.00  0.00    +0.000 NA
ENDBRANCH   6   8
ENDBRANCH   1   2
BRANCH   1  15
ATOM     15  O   UNL     1      47.421   6.618  12.602  0.00  0.00    +0.000 OA
BRANCH  15  22
ATOM     16  C   UNL     1      46.324   3.790  13.570  0.00  0.00    +0.000 C 
ATOM     17  C   UNL     1      47.148   4.800  14.320  0.00  0.00    +0.000 A 
ATOM     18  C   UNL     1      47.487   4.443  15.647  0.00  0.00    +0.000 A 
ATOM     19  C   UNL     1      48.255   5.267  16.480  0.00  0.00    +0.000 A 
ATOM     20  C   UNL     1      48.700   6.487  15.980  0.00  0.00    +0.000 A 
ATOM     21  C   UNL     1      48.372   6.859  14.671  0.00  0.00    +0.000 A 
ATOM     22  C   UNL     1      47.601   6.036  13.828  0.00  0.00    +0.000 A 
BRANCH  19  23
ATOM     23  C   UNL     1      48.545   4.774  17.858  0.00  0.00    +0.000 C 
ATOM     24  N   UNL     1      47.531   4.224  18.589  0.00  0.00    +0.000 N 
ATOM     25  O   UNL     1      49.668   4.853  18.344  0.00  0.00    +0.000 OA
ATOM     26  H   UNL     1      46.580   4.109  18.276  0.00  0.00    +0.000 HD
ATOM     27  H   UNL     1      47.769   3.899  19.517  0.00  0.00    +0.000 HD
ENDBRANCH  19  23
ENDBRANCH  15  22
ENDBRANCH   1  15
TORSDOF 5
ENDMDL
MODEL 5
REMARK VINA RESULT:    -7.354      3.412      6.919
REMARK INTER + INTRA:         -10.882
REMARK INTER:                  -9.865
REMARK INTRA:                  -1.017
REMARK UNBOUND:                -1.378
REMARK  Name = 
REMARK  6 active torsions:
REMARK  status: ('A' for Active; 'I' for Inactive)
REMARK    1  A    between atoms: C_1  and  C_2
REMARK    2  A    between atoms: C_4  and  C_5
REMARK    3  A    between atoms: C_10  and  O_11
REMARK    4  A    between atoms: O_11  and  C_12
REMARK    5  A    between atoms: C_12  and  C_13
REMARK    6  A    between atoms: C_17  and  C_18
REMARK                            x       y       z     vdW  Elec       q    Type
REMARK                         _______ _______ _______ _____ _____    ______ ____
ROOT
ATOM      1  C   UNL     1      44.530   5.911  10.633  0.00  0.00    +0.000 C 
ENDROOT
BRANCH   1   2
ATOM      2  C   UNL     1      45.461   5.617  11.790  0.00  0.00    +0.000 A 
ATOM      3  C   UNL     1      45.210   4.627  12.742  0.00  0.00    +0.000 A 
ATOM      4  C   UNL     1      46.114   4.414  13.781  0.00  0.00    +0.000 A 
ATOM      5  C   UNL     1      47.278   5.183  13.874  0.00  0.00    +0.000 A 
ATOM      6  C   UNL     1      47.575   6.179  12.929  0.00  0.00    +0.000 A 
ATOM      7  C   UNL     1      46.637   6.385  11.901  0.00  0.00    +0.000 A 
BRANCH   6   8
ATOM      8  C   UNL     1      48.814   6.983  12.996  0.00  0.00    +0.000 A 
ATOM      9  C   UNL     1      49.299   7.704  11.900  0.00  0.00    +0.000 A 
ATOM     10  C   UNL     1      50.478   8.435  12.024  0.00  0.00    +0.000 A 
ATOM     11  C   UNL     1      51.143   8.436  13.241  0.00  0.00    +0.000 A 
ATOM     12  C   UNL     1      50.594   7.714  14.283  0.00  0.00    +0.000 A 
ATOM     13  F   UNL     1      51.227   7.721  15.465  0.00  0.00    +0.000 F 
ATOM     14  N   UNL     1      49.453   6.997  14.193  0.00  0.00    +0.000 NA
ENDBRANCH   6   8
ENDBRANCH   1   2
BRANCH   1  15
ATOM     15  O   UNL     1      44.023   4.739  10.011  0.00  0.00    +0.000 OA
BRANCH  15  22
ATOM     16  C   UNL     1      44.113   1.561   9.824  0.00  0.00    +0.000 C 
ATOM     17  C   UNL     1      44.935   2.582   9.088  0.00  0.00    +0.000 A 
ATOM     18  C   UNL     1      45.886   2.057   8.181  0.00  0.00    +0.000 A 
ATOM     19  C   UNL     1      46.728   2.871   7.411  0.00  0.00    +0.000 A 
ATOM     20  C   UNL     1      46.623   4.252   7.548  0.00  0.00    +0.000 A 
ATOM     21  C   UNL     1      45.691   4.790   8.443  0.00  0.00    +0.000 A 
ATOM     22  C   UNL     1      44.842   3.978   9.220  0.00  0.00    +0.000 A 
BRANCH  19  23
ATOM     23  C   UNL     1      47.686   2.194   6.489  0.00  0.00    +0.000 C 
ATOM     24  N   UNL     1      48.179   2.890   5.423  0.00  0.00    +0.000 N 
ATOM     25  O   UNL     1      48.036   1.033   6.669  0.00  0.00    +0.000 OA
ATOM     26  H   UNL     1      47.957   3.847   5.195  0.00  0.00    +0.000 HD
ATOM     27  H   UNL     1      48.827   2.396   4.823  0.00  0.00    +0.000 HD
ENDBRANCH  19  23
ENDBRANCH  15  22
ENDBRANCH   1  15
TORSDOF 5
ENDMDL
MODEL 6
REMARK VINA RESULT:    -7.268      3.013      3.741
REMARK INTER + INTRA:         -10.770
REMARK INTER:                  -9.952
REMARK INTRA:                  -0.819
REMARK UNBOUND:                -1.378
REMARK  Name = 
REMARK  6 active torsions:
REMARK  status: ('A' for Active; 'I' for Inactive)
REMARK    1  A    between atoms: C_1  and  C_2
REMARK    2  A    between atoms: C_4  and  C_5
REMARK    3  A    between atoms: C_10  and  O_11
REMARK    4  A    between atoms: O_11  and  C_12
REMARK    5  A    between atoms: C_12  and  C_13
REMARK    6  A    between atoms: C_17  and  C_18
REMARK                            x       y       z     vdW  Elec       q    Type
REMARK                         _______ _______ _______ _____ _____    ______ ____
ROOT
ATOM      1  C   UNL     1      45.971   6.951  12.825  0.00  0.00    +0.000 C 
ENDROOT
BRANCH   1   2
ATOM      2  C   UNL     1      45.067   6.033  12.030  0.00  0.00    +0.000 A 
ATOM      3  C   UNL     1      43.704   5.886  12.292  0.00  0.00    +0.000 A 
ATOM      4  C   UNL     1      42.935   5.020  11.517  0.00  0.00    +0.000 A 
ATOM      5  C   UNL     1      43.519   4.301  10.469  0.00  0.00    +0.000 A 
ATOM      6  C   UNL     1      44.884   4.431  10.164  0.00  0.00    +0.000 A 
ATOM      7  C   UNL     1      45.640   5.298  10.973  0.00  0.00    +0.000 A 
BRANCH   6   8
ATOM      8  C   UNL     1      45.513   3.699   9.044  0.00  0.00    +0.000 A 
ATOM      9  C   UNL     1      46.108   4.354   7.961  0.00  0.00    +0.000 A 
ATOM     10  C   UNL     1      46.675   3.607   6.932  0.00  0.00    +0.000 A 
ATOM     11  C   UNL     1      46.643   2.223   7.009  0.00  0.00    +0.000 A 
ATOM     12  C   UNL     1      46.052   1.647   8.117  0.00  0.00    +0.000 A 
ATOM     13  F   UNL     1      46.028   0.309   8.202  0.00  0.00    +0.000 F 
ATOM     14  N   UNL     1      45.495   2.344   9.131  0.00  0.00    +0.000 NA
ENDBRANCH   6   8
ENDBRANCH   1   2
BRANCH   1  15
ATOM     15  O   UNL     1      47.275   6.422  13.019  0.00  0.00    +0.000 OA
BRANCH  15  22
ATOM     16  C   UNL     1      49.224   7.870  15.079  0.00  0.00    +0.000 C 
ATOM     17  C   UNL     1      48.502   6.558  15.212  0.00  0.00    +0.000 A 
ATOM     18  C   UNL     1      48.718   5.866  16.427  0.00  0.00    +0.000 A 
ATOM     19  C   UNL     1      48.117   4.633  16.714  0.00  0.00    +0.000 A 
ATOM     20  C   UNL     1      47.274   4.068  15.761  0.00  0.00    +0.000 A 
ATOM     21  C   UNL     1      47.051   4.736  14.552  0.00  0.00    +0.000 A 
ATOM     22  C   UNL     1      47.652   5.975  14.257  0.00  0.00    +0.000 A 
BRANCH  19  23
ATOM     23  C   UNL     1      48.425   4.007  18.033  0.00  0.00    +0.000 C 
ATOM     24  N   UNL     1      47.901   4.564  19.164  0.00  0.00    +0.000 N 
ATOM     25  O   UNL     1      49.133   3.011  18.120  0.00  0.00    +0.000 OA
ATOM     26  H   UNL     1      47.305   5.376  19.196  0.00  0.00    +0.000 HD
ATOM     27  H   UNL     1      48.131   4.109  20.039  0.00  0.00    +0.000 HD
ENDBRANCH  19  23
ENDBRANCH  15  22
ENDBRANCH   1  15
TORSDOF 5
ENDMDL
MODEL 7
REMARK VINA RESULT:    -6.712      1.772      2.310
REMARK INTER + INTRA:         -10.052
REMARK INTER:                  -9.219
REMARK INTRA:                  -0.833
REMARK UNBOUND:                -1.378
REMARK  Name = 
REMARK  6 active torsions:
REMARK  status: ('A' for Active; 'I' for Inactive)
REMARK    1  A    between atoms: C_1  and  C_2
REMARK    2  A    between atoms: C_4  and  C_5
REMARK    3  A    between atoms: C_10  and  O_11
REMARK    4  A    between atoms: O_11  and  C_12
REMARK    5  A    between atoms: C_12  and  C_13
REMARK    6  A    between atoms: C_17  and  C_18
REMARK                            x       y       z     vdW  Elec       q    Type
REMARK                         _______ _______ _______ _____ _____    ______ ____
ROOT
ATOM      1  C   UNL     1      45.635   7.554  11.867  0.00  0.00    +0.000 C 
ENDROOT
BRANCH   1   2
ATOM      2  C   UNL     1      44.861   6.331  11.422  0.00  0.00    +0.000 A 
ATOM      3  C   UNL     1      43.602   5.998  11.922  0.00  0.00    +0.000 A 
ATOM      4  C   UNL     1      42.949   4.855  11.465  0.00  0.00    +0.000 A 
ATOM      5  C   UNL     1      43.547   4.039  10.498  0.00  0.00    +0.000 A 
ATOM      6  C   UNL     1      44.807   4.347   9.959  0.00  0.00    +0.000 A 
ATOM      7  C   UNL     1      45.450   5.497  10.451  0.00  0.00    +0.000 A 
BRANCH   6   8
ATOM      8  C   UNL     1      45.443   3.511   8.917  0.00  0.00    +0.000 A 
ATOM      9  C   UNL     1      45.613   2.131   9.065  0.00  0.00    +0.000 A 
ATOM     10  C   UNL     1      46.228   1.401   8.051  0.00  0.00    +0.000 A 
ATOM     11  C   UNL     1      46.653   2.063   6.909  0.00  0.00    +0.000 A 
ATOM     12  C   UNL     1      46.436   3.425   6.828  0.00  0.00    +0.000 A 
ATOM     13  F   UNL     1      46.835   4.068   5.721  0.00  0.00    +0.000 F 
ATOM     14  N   UNL     1      45.842   4.159   7.793  0.00  0.00    +0.000 NA
ENDBRANCH   6   8
ENDBRANCH   1   2
BRANCH   1  15
ATOM     15  O   UNL     1      46.464   7.312  12.994  0.00  0.00    +0.000 OA
BRANCH  15  22
ATOM     16  C   UNL     1      48.098   8.745  15.323  0.00  0.00    +0.000 C 
ATOM     17  C   UNL     1      48.557   8.330  13.952  0.00  0.00    +0.000 A 
ATOM     18  C   UNL     1      49.910   8.616  13.653  0.00  0.00    +0.000 A 
ATOM     19  C   UNL     1      50.499   8.291  12.424  0.00  0.00    +0.000 A 
ATOM     20  C   UNL     1      49.718   7.661  11.459  0.00  0.00    +0.000 A 
ATOM     21  C   UNL     1      48.376   7.373  11.736  0.00  0.00    +0.000 A 
ATOM     22  C   UNL     1      47.778   7.698  12.969  0.00  0.00    +0.000 A 
BRANCH  19  23
ATOM     23  C   UNL     1      51.937   8.644  12.234  0.00  0.00    +0.000 C 
ATOM     24  N   UNL     1      52.871   8.061  13.041  0.00  0.00    +0.000 N 
ATOM     25  O   UNL     1      52.292   9.441  11.374  0.00  0.00    +0.000 OA
ATOM     26  H   UNL     1      52.679   7.390  13.770  0.00  0.00    +0.000 HD
ATOM     27  H   UNL     1      53.834   8.324  12.880  0.00  0.00    +0.000 HD
ENDBRANCH  19  23
ENDBRANCH  15  22
ENDBRANCH   1  15
TORSDOF 5
ENDMDL
MODEL 8
REMARK VINA RESULT:    -6.666      4.896      6.851
REMARK INTER + INTRA:          -9.992
REMARK INTER:                  -8.951
REMARK INTRA:                  -1.041
REMARK UNBOUND:                -1.378
REMARK  Name = 
REMARK  6 active torsions:
REMARK  status: ('A' for Active; 'I' for Inactive)
REMARK    1  A    between atoms: C_1  and  C_2
REMARK    2  A    between atoms: C_4  and  C_5
REMARK    3  A    between atoms: C_10  and  O_11
REMARK    4  A    between atoms: O_11  and  C_12
REMARK    5  A    between atoms: C_12  and  C_13
REMARK    6  A    between atoms: C_17  and  C_18
REMARK                            x       y       z     vdW  Elec       q    Type
REMARK                         _______ _______ _______ _____ _____    ______ ____
ROOT
ATOM      1  C   UNL     1      49.131   6.965  16.364  0.00  0.00    +0.000 C 
ENDROOT
BRANCH   1   2
ATOM      2  C   UNL     1      48.698   6.862  14.917  0.00  0.00    +0.000 A 
ATOM      3  C   UNL     1      49.372   7.489  13.868  0.00  0.00    +0.000 A 
ATOM      4  C   UNL     1      48.912   7.349  12.560  0.00  0.00    +0.000 A 
ATOM      5  C   UNL     1      47.781   6.573  12.289  0.00  0.00    +0.000 A 
ATOM      6  C   UNL     1      47.082   5.913  13.313  0.00  0.00    +0.000 A 
ATOM      7  C   UNL     1      47.557   6.087  14.626  0.00  0.00    +0.000 A 
BRANCH   6   8
ATOM      8  C   UNL     1      45.900   5.068  13.041  0.00  0.00    +0.000 A 
ATOM      9  C   UNL     1      46.005   3.704  12.751  0.00  0.00    +0.000 A 
ATOM     10  C   UNL     1      44.854   2.964  12.494  0.00  0.00    +0.000 A 
ATOM     11  C   UNL     1      43.622   3.599  12.540  0.00  0.00    +0.000 A 
ATOM     12  C   UNL     1      43.596   4.945  12.851  0.00  0.00    +0.000 A 
ATOM     13  F   UNL     1      42.407   5.562  12.908  0.00  0.00    +0.000 F 
ATOM     14  N   UNL     1      44.694   5.689  13.105  0.00  0.00    +0.000 NA
ENDBRANCH   6   8
ENDBRANCH   1   2
BRANCH   1  15
ATOM     15  O   UNL     1      48.633   5.910  17.175  0.00  0.00    +0.000 OA
BRANCH  15  22
ATOM     16  C   UNL     1      47.481   2.942  17.204  0.00  0.00    +0.000 C 
ATOM     17  C   UNL     1      48.906   3.412  17.312  0.00  0.00    +0.000 A 
ATOM     18  C   UNL     1      49.875   2.390  17.445  0.00  0.00    +0.000 A 
ATOM     19  C   UNL     1      51.247   2.655  17.551  0.00  0.00    +0.000 A 
ATOM     20  C   UNL     1      51.670   3.981  17.525  0.00  0.00    +0.000 A 
ATOM     21  C   UNL     1      50.725   5.006  17.398  0.00  0.00    +0.000 A 
ATOM     22  C   UNL     1      49.345   4.746  17.291  0.00  0.00    +0.000 A 
BRANCH  19  23
ATOM     23  C   UNL     1      52.166   1.488  17.683  0.00  0.00    +0.000 C 
ATOM     24  N   UNL     1      51.654   0.288  18.088  0.00  0.00    +0.000 N 
ATOM     25  O   UNL     1      53.363   1.583  17.437  0.00  0.00    +0.000 OA
ATOM     26  H   UNL     1      50.687   0.108  18.307  0.00  0.00    +0.000 HD
ATOM     27  H   UNL     1      52.309  -0.479  18.164  0.00  0.00    +0.000 HD
ENDBRANCH  19  23
ENDBRANCH  15  22
ENDBRANCH   1  15
TORSDOF 5
ENDMDL
MODEL 9
REMARK VINA RESULT:    -6.581      4.068      5.282
REMARK INTER + INTRA:          -9.883
REMARK INTER:                  -8.952
REMARK INTRA:                  -0.931
REMARK UNBOUND:                -1.378
REMARK  Name = 
REMARK  6 active torsions:
REMARK  status: ('A' for Active; 'I' for Inactive)
REMARK    1  A    between atoms: C_1  and  C_2
REMARK    2  A    between atoms: C_4  and  C_5
REMARK    3  A    between atoms: C_10  and  O_11
REMARK    4  A    between atoms: O_11  and  C_12
REMARK    5  A    between atoms: C_12  and  C_13
REMARK    6  A    between atoms: C_17  and  C_18
REMARK                            x       y       z     vdW  Elec       q    Type
REMARK                         _______ _______ _______ _____ _____    ______ ____
ROOT
ATOM      1  C   UNL     1      48.556   7.212  13.853  0.00  0.00    +0.000 C 
ENDROOT
BRANCH   1   2
ATOM      2  C   UNL     1      47.262   7.357  13.080  0.00  0.00    +0.000 A 
ATOM      3  C   UNL     1      46.459   8.497  13.138  0.00  0.00    +0.000 A 
ATOM      4  C   UNL     1      45.280   8.558  12.397  0.00  0.00    +0.000 A 
ATOM      5  C   UNL     1      44.898   7.484  11.587  0.00  0.00    +0.000 A 
ATOM      6  C   UNL     1      45.684   6.324  11.490  0.00  0.00    +0.000 A 
ATOM      7  C   UNL     1      46.860   6.282  12.261  0.00  0.00    +0.000 A 
BRANCH   6   8
ATOM      8  C   UNL     1      45.310   5.190  10.618  0.00  0.00    +0.000 A 
ATOM      9  C   UNL     1      45.690   5.121   9.274  0.00  0.00    +0.000 A 
ATOM     10  C   UNL     1      45.297   4.030   8.503  0.00  0.00    +0.000 A 
ATOM     11  C   UNL     1      44.540   3.029   9.092  0.00  0.00    +0.000 A 
ATOM     12  C   UNL     1      44.217   3.159  10.429  0.00  0.00    +0.000 A 
ATOM     13  F   UNL     1      43.494   2.188  11.006  0.00  0.00    +0.000 F 
ATOM     14  N   UNL     1      44.583   4.203  11.202  0.00  0.00    +0.000 NA
ENDBRANCH   6   8
ENDBRANCH   1   2
BRANCH   1  15
ATOM     15  O   UNL     1      48.673   5.962  14.517  0.00  0.00    +0.000 OA
BRANCH  15  22
ATOM     16  C   UNL     1      47.581   3.448  16.139  0.00  0.00    +0.000 C 
ATOM     17  C   UNL     1      47.963   4.813  16.641  0.00  0.00    +0.000 A 
ATOM     18  C   UNL     1      47.819   5.010  18.035  0.00  0.00    +0.000 A 
ATOM     19  C   UNL     1      48.136   6.220  18.666  0.00  0.00    +0.000 A 
ATOM     20  C   UNL     1      48.613   7.270  17.886  0.00  0.00    +0.000 A 
ATOM     21  C   UNL     1      48.759   7.095  16.505  0.00  0.00    +0.000 A 
ATOM     22  C   UNL     1      48.442   5.882  15.864  0.00  0.00    +0.000 A 
BRANCH  19  23
ATOM     23  C   UNL     1      47.941   6.299  20.143  0.00  0.00    +0.000 C 
ATOM     24  N   UNL     1      47.592   5.167  20.823  0.00  0.00    +0.000 N 
ATOM     25  O   UNL     1      48.088   7.351  20.753  0.00  0.00    +0.000 OA
ATOM     26  H   UNL     1      47.455   4.256  20.413  0.00  0.00    +0.000 HD
ATOM     27  H   UNL     1      47.471   5.261  21.823  0.00  0.00    +0.000 HD
ENDBRANCH  19  23
ENDBRANCH  15  22
ENDBRANCH   1  15
TORSDOF 5
ENDMDL
