MODEL 1
REMARK VINA RESULT:    -7.513      0.000      0.000
REMARK INTER + INTRA:          -9.838
REMARK INTER:                  -9.269
REMARK INTRA:                  -0.568
REMARK UNBOUND:                -0.568
REMARK  Name = 
REMARK  5 active torsions:
REMARK  status: ('A' for Active; 'I' for Inactive)
REMARK    1  A    between atoms: C_1  and  C_2
REMARK    2  A    between atoms: C_2  and  C_3
REMARK    3  A    between atoms: C_2  and  C_14
REMARK    4  A    between atoms: C_3  and  N_4
REMARK    5  A    between atoms: C_8  and  C_9
REMARK                            x       y       z     vdW  Elec       q    Type
REMARK                         _______ _______ _______ _____ _____    ______ ____
ROOT
ATOM      1  N   UNL     1      43.839   3.251  10.495  0.00  0.00    +0.000 N 
ATOM      2  C   UNL     1      44.760   3.056   9.455  0.00  0.00    +0.000 A 
ATOM      3  C   UNL     1      45.143   1.754   9.098  0.00  0.00    +0.000 A 
ATOM      4  N   UNL     1      46.025   1.458   8.105  0.00  0.00    +0.000 NA
ATOM      5  C   UNL     1      46.532   2.551   7.468  0.00  0.00    +0.000 A 
ATOM      6  C   UNL     1      46.180   3.843   7.819  0.00  0.00    +0.000 A 
ATOM      7  N   UNL     1      45.299   4.116   8.815  0.00  0.00    +0.000 NA
ATOM      8  H   UNL     1      42.993   2.722  10.291  0.00  0.00    +0.000 HD
ENDROOT
BRANCH   5   9
ATOM      9  C   UNL     1      47.495   2.330   6.358  0.00  0.00    +0.000 C 
ATOM     10  N   UNL     1      47.401   3.194   5.303  0.00  0.00    +0.000 N 
ATOM     11  O   UNL     1      48.326   1.428   6.382  0.00  0.00    +0.000 OA
ATOM     12  H   UNL     1      46.703   3.929   5.308  0.00  0.00    +0.000 HD
ATOM     13  H   UNL     1      48.032   3.092   4.521  0.00  0.00    +0.000 HD
ENDBRANCH   5   9
BRANCH   1  14
ATOM     14  C   UNL     1      43.519   4.652  10.753  0.00  0.00    +0.000 C 
BRANCH  14  16
ATOM     15  C   UNL     1      42.911   5.229  13.188  0.00  0.00    +0.000 C 
ATOM     16  C   UNL     1      43.960   4.948  12.159  0.00  0.00    +0.000 C 
BRANCH  16  17
ATOM     17  C   UNL     1      45.332   5.438  12.357  0.00  0.00    +0.000 A 
ATOM     18  C   UNL     1      45.895   6.369  11.476  0.00  0.00    +0.000 A 
ATOM     19  C   UNL     1      47.164   6.898  11.722  0.00  0.00    +0.000 A 
ATOM     20  C   UNL     1      47.875   6.507  12.854  0.00  0.00    +0.000 A 
ATOM     21  C   UNL     1      47.332   5.568  13.727  0.00  0.00    +0.000 A 
ATOM     22  C   UNL     1      46.070   5.028  13.473  0.00  0.00    +0.000 A 
ENDBRANCH  16  17
ENDBRANCH  14  16
ENDBRANCH   1  14
TORSDOF 4
ENDMDL
MODEL 2
REMARK VINA RESULT:    -7.503      0.085      1.110
REMARK INTER + INTRA:          -9.825
REMARK INTER:                  -9.258
REMARK INTRA:                  -0.567
REMARK UNBOUND:                -0.568
REMARK  Name = 
REMARK  5 active torsions:
REMARK  status: ('A' for Active; 'I' for Inactive)
REMARK    1  A    between atoms: C_1  and  C_2
REMARK    2  A    between atoms: C_2  and  C_3
REMARK    3  A    between atoms: C_2  and  C_14
REMARK    4  A    between atoms: C_3  and  N_4
REMARK    5  A    between atoms: C_8  and  C_9
REMARK                            x       y       z     vdW  Elec       q    Type
REMARK                         _______ _______ _______ _____ _____    ______ ____
ROOT
ATOM      1  N   UNL     1      43.869   3.286  10.473  0.00  0.00    +0.000 N 
ATOM      2  C   UNL     1      44.769   3.087   9.416  0.00  0.00    +0.000 A 
ATOM      3  C   UNL     1      45.129   1.783   9.045  0.00  0.00    +0.000 A 
ATOM      4  N   UNL     1      45.989   1.482   8.034  0.00  0.00    +0.000 NA
ATOM      5  C   UNL     1      46.500   2.572   7.396  0.00  0.00    +0.000 A 
ATOM      6  C   UNL     1      46.171   3.866   7.761  0.00  0.00    +0.000 A 
ATOM      7  N   UNL     1      45.311   4.144   8.774  0.00  0.00    +0.000 NA
ATOM      8  H   UNL     1      43.013   2.769  10.280  0.00  0.00    +0.000 HD
ENDROOT
BRANCH   5   9
ATOM      9  C   UNL     1      47.441   2.346   6.268  0.00  0.00    +0.000 C 
ATOM     10  N   UNL     1      47.377   3.251   5.245  0.00  0.00    +0.000 N 
ATOM     11  O   UNL     1      48.228   1.407   6.250  0.00  0.00    +0.000 OA
ATOM     12  H   UNL     1      46.714   4.017   5.283  0.00  0.00    +0.000 HD
ATOM     13  H   UNL     1      47.995   3.147   4.453  0.00  0.00    +0.000 HD
ENDBRANCH   5   9
BRANCH   1  14
ATOM     14  C   UNL     1      43.571   4.690  10.746  0.00  0.00    +0.000 C 
BRANCH  14  16
ATOM     15  C   UNL     1      42.893   5.122  13.192  0.00  0.00    +0.000 C 
ATOM     16  C   UNL     1      43.973   4.951  12.171  0.00  0.00    +0.000 C 
BRANCH  16  17
ATOM     17  C   UNL     1      45.309   5.516  12.413  0.00  0.00    +0.000 A 
ATOM     18  C   UNL     1      46.081   5.088  13.500  0.00  0.00    +0.000 A 
ATOM     19  C   UNL     1      47.383   5.561  13.672  0.00  0.00    +0.000 A 
ATOM     20  C   UNL     1      47.926   6.459  12.755  0.00  0.00    +0.000 A 
ATOM     21  C   UNL     1      47.160   6.905  11.682  0.00  0.00    +0.000 A 
ATOM     22  C   UNL     1      45.853   6.443  11.518  0.00  0.00    +0.000 A 
ENDBRANCH  16  17
ENDBRANCH  14  16
ENDBRANCH   1  14
TORSDOF 4
ENDMDL
MODEL 3
REMARK VINA RESULT:    -7.007      3.157      6.402
REMARK INTER + INTRA:          -9.213
REMARK INTER:                  -8.795
REMARK INTRA:                  -0.418
REMARK UNBOUND:                -0.568
REMARK  Name = 
REMARK  5 active torsions:
REMARK  status: ('A' for Active; 'I' for Inactive)
REMARK    1  A    between atoms: C_1  and  C_2
REMARK    2  A    between atoms: C_2  and  C_3
REMARK    3  A    between atoms: C_2  and  C_14
REMARK    4  A    between atoms: C_3  and  N_4
REMARK    5  A    between atoms: C_8  and  C_9
REMARK                            x       y       z     vdW  Elec       q    Type
REMARK                         _______ _______ _______ _____ _____    ______ ____
ROOT
ATOM      1  N   UNL     1      43.883   4.731  10.445  0.00  0.00    +0.000 N 
ATOM      2  C   UNL     1      44.801   5.494  11.182  0.00  0.00    +0.000 A 
ATOM      3  C   UNL     1      44.546   5.779  12.532  0.00  0.00    +0.000 A 
ATOM      4  N   UNL     1      45.372   6.504  13.333  0.00  0.00    +0.000 NA
ATOM      5  C   UNL     1      46.495   6.958  12.709  0.00  0.00    +0.000 A 
ATOM      6  C   UNL     1      46.754   6.702  11.373  0.00  0.00    +0.000 A 
ATOM      7  N   UNL     1      45.915   5.976  10.591  0.00  0.00    +0.000 NA
ATOM      8  H   UNL     1      43.725   3.848  10.926  0.00  0.00    +0.000 HD
ENDROOT
BRANCH   5   9
ATOM      9  C   UNL     1      47.467   7.751  13.505  0.00  0.00    +0.000 C 
ATOM     10  N   UNL     1      46.932   8.703  14.327  0.00  0.00    +0.000 N 
ATOM     11  O   UNL     1      48.677   7.567  13.433  0.00  0.00    +0.000 OA
ATOM     12  H   UNL     1      45.927   8.837  14.364  0.00  0.00    +0.000 HD
ATOM     13  H   UNL     1      47.545   9.271  14.893  0.00  0.00    +0.000 HD
ENDBRANCH   5   9
BRANCH   1  14
ATOM     14  C   UNL     1      44.277   4.498   9.059  0.00  0.00    +0.000 C 
BRANCH  14  16
ATOM     15  C   UNL     1      44.246   2.130  10.068  0.00  0.00    +0.000 C 
ATOM     16  C   UNL     1      44.624   3.041   8.943  0.00  0.00    +0.000 C 
BRANCH  16  17
ATOM     17  C   UNL     1      45.714   2.666   8.029  0.00  0.00    +0.000 A 
ATOM     18  C   UNL     1      46.317   1.406   8.112  0.00  0.00    +0.000 A 
ATOM     19  C   UNL     1      47.288   1.024   7.184  0.00  0.00    +0.000 A 
ATOM     20  C   UNL     1      47.657   1.896   6.162  0.00  0.00    +0.000 A 
ATOM     21  C   UNL     1      47.077   3.159   6.082  0.00  0.00    +0.000 A 
ATOM     22  C   UNL     1      46.117   3.546   7.019  0.00  0.00    +0.000 A 
ENDBRANCH  16  17
ENDBRANCH  14  16
ENDBRANCH   1  14
TORSDOF 4
ENDMDL
MODEL 4
REMARK VINA RESULT:    -6.870      3.466      5.956
REMARK INTER + INTRA:          -9.044
REMARK INTER:                  -8.487
REMARK INTRA:                  -0.557
REMARK UNBOUND:                -0.568
REMARK  Name = 
REMARK  5 active torsions:
REMARK  status: ('A' for Active; 'I' for Inactive)
REMARK    1  A    between atoms: C_1  and  C_2
REMARK    2  A    between atoms: C_2  and  C_3
REMARK    3  A    between atoms: C_2  and  C_14
REMARK    4  A    between atoms: C_3  and  N_4
REMARK    5  A    between atoms: C_8  and  C_9
REMARK                            x       y       z     vdW  Elec       q    Type
REMARK                         _______ _______ _______ _____ _____    ______ ____
ROOT
ATOM      1  N   UNL     1      45.005   4.742  12.521  0.00  0.00    +0.000 N 
ATOM      2  C   UNL     1      46.186   5.494  12.603  0.00  0.00    +0.000 A 
ATOM      3  C   UNL     1      47.027   5.350  13.716  0.00  0.00    +0.000 A 
ATOM      4  N   UNL     1      48.194   6.028  13.890  0.00  0.00    +0.000 NA
ATOM      5  C   UNL     1      48.491   6.891  12.877  0.00  0.00    +0.000 A 
ATOM      6  C   UNL     1      47.663   7.060  11.781  0.00  0.00    +0.000 A 
ATOM      7  N   UNL     1      46.502   6.373  11.629  0.00  0.00    +0.000 NA
ATOM      8  H   UNL     1      45.234   3.754  12.614  0.00  0.00    +0.000 HD
ENDROOT
BRANCH   5   9
ATOM      9  C   UNL     1      49.753   7.670  12.969  0.00  0.00    +0.000 C 
ATOM     10  N   UNL     1      50.502   7.465  14.094  0.00  0.00    +0.000 N 
ATOM     11  O   UNL     1      50.106   8.450  12.092  0.00  0.00    +0.000 OA
ATOM     12  H   UNL     1      50.185   6.817  14.806  0.00  0.00    +0.000 HD
ATOM     13  H   UNL     1      51.371   7.967  14.209  0.00  0.00    +0.000 HD
ENDBRANCH   5   9
BRANCH   1  14
ATOM     14  C   UNL     1      44.230   4.978  11.306  0.00  0.00    +0.000 C 
BRANCH  14  16
ATOM     15  C   UNL     1      43.375   2.555  11.476  0.00  0.00    +0.000 C 
ATOM     16  C   UNL     1      44.009   3.638  10.662  0.00  0.00    +0.000 C 
BRANCH  16  17
ATOM     17  C   UNL     1      44.841   3.291   9.501  0.00  0.00    +0.000 A 
ATOM     18  C   UNL     1      45.393   4.290   8.690  0.00  0.00    +0.000 A 
ATOM     19  C   UNL     1      46.256   3.957   7.644  0.00  0.00    +0.000 A 
ATOM     20  C   UNL     1      46.580   2.622   7.406  0.00  0.00    +0.000 A 
ATOM     21  C   UNL     1      46.021   1.620   8.194  0.00  0.00    +0.000 A 
ATOM     22  C   UNL     1      45.147   1.953   9.230  0.00  0.00    +0.000 A 
ENDBRANCH  16  17
ENDBRANCH  14  16
ENDBRANCH   1  14
TORSDOF 4
ENDMDL
MODEL 5
REMARK VINA RESULT:    -6.615      4.377      7.216
REMARK INTER + INTRA:          -8.729
REMARK INTER:                  -8.376
REMARK INTRA:                  -0.354
REMARK UNBOUND:                -0.568
REMARK  Name = 
REMARK  5 active torsions:
REMARK  status: ('A' for Active; 'I' for Inactive)
REMARK    1  A    between atoms: C_1  and  C_2
REMARK    2  A    between atoms: C_2  and  C_3
REMARK    3  A    between atoms: C_2  and  C_14
REMARK    4  A    between atoms: C_3  and  N_4
REMARK    5  A    between atoms: C_8  and  C_9
REMARK                            x       y       z     vdW  Elec       q    Type
REMARK                         _______ _______ _______ _____ _____    ______ ____
ROOT
ATOM      1  N   UNL     1      46.238   5.310  12.655  0.00  0.00    +0.000 N 
ATOM      2  C   UNL     1      46.841   5.127  13.908  0.00  0.00    +0.000 A 
ATOM      3  C   UNL     1      47.847   6.008  14.332  0.00  0.00    +0.000 A 
ATOM      4  N   UNL     1      48.492   5.920  15.527  0.00  0.00    +0.000 NA
ATOM      5  C   UNL     1      48.084   4.875  16.303  0.00  0.00    +0.000 A 
ATOM      6  C   UNL     1      47.106   3.985  15.893  0.00  0.00    +0.000 A 
ATOM      7  N   UNL     1      46.477   4.091  14.695  0.00  0.00    +0.000 NA
ATOM      8  H   UNL     1      45.866   6.257  12.602  0.00  0.00    +0.000 HD
ENDROOT
BRANCH   5   9
ATOM      9  C   UNL     1      48.721   4.702  17.634  0.00  0.00    +0.000 C 
ATOM     10  N   UNL     1      47.873   4.439  18.673  0.00  0.00    +0.000 N 
ATOM     11  O   UNL     1      49.933   4.788  17.796  0.00  0.00    +0.000 OA
ATOM     12  H   UNL     1      46.873   4.377  18.512  0.00  0.00    +0.000 HD
ATOM     13  H   UNL     1      48.250   4.310  19.601  0.00  0.00    +0.000 HD
ENDBRANCH   5   9
BRANCH   1  14
ATOM     14  C   UNL     1      45.199   4.332  12.344  0.00  0.00    +0.000 C 
BRANCH  14  16
ATOM     15  C   UNL     1      43.288   5.413  10.999  0.00  0.00    +0.000 C 
ATOM     16  C   UNL     1      44.615   4.722  11.016  0.00  0.00    +0.000 C 
BRANCH  16  17
ATOM     17  C   UNL     1      45.081   3.999   9.824  0.00  0.00    +0.000 A 
ATOM     18  C   UNL     1      45.693   4.680   8.765  0.00  0.00    +0.000 A 
ATOM     19  C   UNL     1      46.214   3.976   7.678  0.00  0.00    +0.000 A 
ATOM     20  C   UNL     1      46.135   2.585   7.645  0.00  0.00    +0.000 A 
ATOM     21  C   UNL     1      45.511   1.899   8.683  0.00  0.00    +0.000 A 
ATOM     22  C   UNL     1      44.977   2.605   9.763  0.00  0.00    +0.000 A 
ENDBRANCH  16  17
ENDBRANCH  14  16
ENDBRANCH   1  14
TORSDOF 4
ENDMDL
MODEL 6
REMARK VINA RESULT:    -6.251      4.780      7.437
REMARK INTER + INTRA:          -8.280
REMARK INTER:                  -7.944
REMARK INTRA:                  -0.337
REMARK UNBOUND:                -0.568
REMARK  Name = 
REMARK  5 active torsions:
REMARK  status: ('A' for Active; 'I' for Inactive)
REMARK    1  A    between atoms: C_1  and  C_2
REMARK    2  A    between atoms: C_2  and  C_3
REMARK    3  A    between atoms: C_2  and  C_14
REMARK    4  A    between atoms: C_3  and  N_4
REMARK    5  A    between atoms: C_8  and  C_9
REMARK                            x       y       z     vdW  Elec       q    Type
REMARK                         _______ _______ _______ _____ _____    ______ ____
ROOT
ATOM      1  N   UNL     1      46.691   6.061  13.853  0.00  0.00    +0.000 N 
ATOM      2  C   UNL     1      47.291   5.327  14.887  0.00  0.00    +0.000 A 
ATOM      3  C   UNL     1      48.383   5.868  15.583  0.00  0.00    +0.000 A 
ATOM      4  N   UNL     1      49.031   5.241  16.601  0.00  0.00    +0.000 NA
ATOM      5  C   UNL     1      48.536   4.007  16.899  0.00  0.00    +0.000 A 
ATOM      6  C   UNL     1      47.472   3.449  16.211  0.00  0.00    +0.000 A 
ATOM      7  N   UNL     1      46.840   4.092  15.197  0.00  0.00    +0.000 NA
ATOM      8  H   UNL     1      46.411   6.971  14.213  0.00  0.00    +0.000 HD
ENDROOT
BRANCH   5   9
ATOM      9  C   UNL     1      49.172   3.247  18.007  0.00  0.00    +0.000 C 
ATOM     10  N   UNL     1      48.631   3.434  19.248  0.00  0.00    +0.000 N 
ATOM     11  O   UNL     1      50.123   2.496  17.824  0.00  0.00    +0.000 OA
ATOM     12  H   UNL     1      47.846   4.065  19.372  0.00  0.00    +0.000 HD
ATOM     13  H   UNL     1      49.021   2.942  20.039  0.00  0.00    +0.000 HD
ENDBRANCH   5   9
BRANCH   1  14
ATOM     14  C   UNL     1      45.559   5.387  13.222  0.00  0.00    +0.000 C 
BRANCH  14  16
ATOM     15  C   UNL     1      45.244   7.347  11.583  0.00  0.00    +0.000 C 
ATOM     16  C   UNL     1      45.486   5.888  11.808  0.00  0.00    +0.000 C 
BRANCH  16  17
ATOM     17  C   UNL     1      45.153   4.918  10.754  0.00  0.00    +0.000 A 
ATOM     18  C   UNL     1      45.544   5.138   9.428  0.00  0.00    +0.000 A 
ATOM     19  C   UNL     1      45.304   4.171   8.449  0.00  0.00    +0.000 A 
ATOM     20  C   UNL     1      44.680   2.973   8.791  0.00  0.00    +0.000 A 
ATOM     21  C   UNL     1      44.270   2.753  10.103  0.00  0.00    +0.000 A 
ATOM     22  C   UNL     1      44.497   3.726  11.078  0.00  0.00    +0.000 A 
ENDBRANCH  16  17
ENDBRANCH  14  16
ENDBRANCH   1  14
TORSDOF 4
ENDMDL
MODEL 7
REMARK VINA RESULT:    -6.229      4.445      6.305
REMARK INTER + INTRA:          -8.254
REMARK INTER:                  -7.888
REMARK INTRA:                  -0.366
REMARK UNBOUND:                -0.568
REMARK  Name = 
REMARK  5 active torsions:
REMARK  status: ('A' for Active; 'I' for Inactive)
REMARK    1  A    between atoms: C_1  and  C_2
REMARK    2  A    between atoms: C_2  and  C_3
REMARK    3  A    between atoms: C_2  and  C_14
REMARK    4  A    between atoms: C_3  and  N_4
REMARK    5  A    between atoms: C_8  and  C_9
REMARK                            x       y       z     vdW  Elec       q    Type
REMARK                         _______ _______ _______ _____ _____    ______ ____
ROOT
ATOM      1  N   UNL     1      47.306   4.909  15.240  0.00  0.00    +0.000 N 
ATOM      2  C   UNL     1      46.626   4.844  14.015  0.00  0.00    +0.000 A 
ATOM      3  C   UNL     1      46.517   5.992  13.217  0.00  0.00    +0.000 A 
ATOM      4  N   UNL     1      45.883   6.033  12.014  0.00  0.00    +0.000 NA
ATOM      5  C   UNL     1      45.335   4.845  11.633  0.00  0.00    +0.000 A 
ATOM      6  C   UNL     1      45.417   3.706  12.417  0.00  0.00    +0.000 A 
ATOM      7  N   UNL     1      46.053   3.688  13.615  0.00  0.00    +0.000 NA
ATOM      8  H   UNL     1      48.245   5.267  15.078  0.00  0.00    +0.000 HD
ENDROOT
BRANCH   5   9
ATOM      9  C   UNL     1      44.631   4.785  10.325  0.00  0.00    +0.000 C 
ATOM     10  N   UNL     1      45.346   5.211   9.241  0.00  0.00    +0.000 N 
ATOM     11  O   UNL     1      43.479   4.379  10.220  0.00  0.00    +0.000 OA
ATOM     12  H   UNL     1      46.296   5.546   9.356  0.00  0.00    +0.000 HD
ATOM     13  H   UNL     1      44.917   5.191   8.327  0.00  0.00    +0.000 HD
ENDBRANCH   5   9
BRANCH   1  14
ATOM     14  C   UNL     1      47.356   3.642  15.964  0.00  0.00    +0.000 C 
BRANCH  14  16
ATOM     15  C   UNL     1      47.532   4.983  18.154  0.00  0.00    +0.000 C 
ATOM     16  C   UNL     1      48.066   3.908  17.261  0.00  0.00    +0.000 C 
BRANCH  16  17
ATOM     17  C   UNL     1      49.473   3.495  17.370  0.00  0.00    +0.000 A 
ATOM     18  C   UNL     1      50.455   4.400  17.787  0.00  0.00    +0.000 A 
ATOM     19  C   UNL     1      51.773   3.977  17.976  0.00  0.00    +0.000 A 
ATOM     20  C   UNL     1      52.116   2.644  17.756  0.00  0.00    +0.000 A 
ATOM     21  C   UNL     1      51.150   1.740  17.322  0.00  0.00    +0.000 A 
ATOM     22  C   UNL     1      49.836   2.167  17.120  0.00  0.00    +0.000 A 
ENDBRANCH  16  17
ENDBRANCH  14  16
ENDBRANCH   1  14
TORSDOF 4
ENDMDL
MODEL 8
REMARK VINA RESULT:    -5.893      3.349      5.181
REMARK INTER + INTRA:          -7.839
REMARK INTER:                  -7.347
REMARK INTRA:                  -0.492
REMARK UNBOUND:                -0.568
REMARK  Name = 
REMARK  5 active torsions:
REMARK  status: ('A' for Active; 'I' for Inactive)
REMARK    1  A    between atoms: C_1  and  C_2
REMARK    2  A    between atoms: C_2  and  C_3
REMARK    3  A    between atoms: C_2  and  C_14
REMARK    4  A    between atoms: C_3  and  N_4
REMARK    5  A    between atoms: C_8  and  C_9
REMARK                            x       y       z     vdW  Elec       q    Type
REMARK                         _______ _______ _______ _____ _____    ______ ____
ROOT
ATOM      1  N   UNL     1      44.879   8.158  12.394  0.00  0.00    +0.000 N 
ATOM      2  C   UNL     1      44.637   6.814  12.073  0.00  0.00    +0.000 A 
ATOM      3  C   UNL     1      43.464   6.462  11.390  0.00  0.00    +0.000 A 
ATOM      4  N   UNL     1      43.138   5.191  11.030  0.00  0.00    +0.000 NA
ATOM      5  C   UNL     1      44.056   4.255  11.401  0.00  0.00    +0.000 A 
ATOM      6  C   UNL     1      45.210   4.582  12.092  0.00  0.00    +0.000 A 
ATOM      7  N   UNL     1      45.515   5.857  12.443  0.00  0.00    +0.000 NA
ATOM      8  H   UNL     1      44.834   8.715  11.543  0.00  0.00    +0.000 HD
ENDROOT
BRANCH   5   9
ATOM      9  C   UNL     1      43.795   2.837  11.041  0.00  0.00    +0.000 C 
ATOM     10  N   UNL     1      44.589   2.313  10.059  0.00  0.00    +0.000 N 
ATOM     11  O   UNL     1      42.923   2.172  11.589  0.00  0.00    +0.000 OA
ATOM     12  H   UNL     1      45.301   2.886   9.620  0.00  0.00    +0.000 HD
ATOM     13  H   UNL     1      44.457   1.353   9.775  0.00  0.00    +0.000 HD
ENDBRANCH   5   9
BRANCH   1  14
ATOM     14  C   UNL     1      46.141   8.388  13.093  0.00  0.00    +0.000 C 
BRANCH  14  16
ATOM     15  C   UNL     1      46.052  10.520  11.652  0.00  0.00    +0.000 C 
ATOM     16  C   UNL     1      46.864   9.470  12.342  0.00  0.00    +0.000 C 
BRANCH  16  17
ATOM     17  C   UNL     1      48.237   9.193  11.895  0.00  0.00    +0.000 A 
ATOM     18  C   UNL     1      49.117  10.239  11.593  0.00  0.00    +0.000 A 
ATOM     19  C   UNL     1      50.446   9.972  11.257  0.00  0.00    +0.000 A 
ATOM     20  C   UNL     1      50.907   8.657  11.229  0.00  0.00    +0.000 A 
ATOM     21  C   UNL     1      50.035   7.608  11.509  0.00  0.00    +0.000 A 
ATOM     22  C   UNL     1      48.703   7.876  11.831  0.00  0.00    +0.000 A 
ENDBRANCH  16  17
ENDBRANCH  14  16
ENDBRANCH   1  14
TORSDOF 4
ENDMDL
MODEL 9
REMARK VINA RESULT:    -5.686      3.983      6.220
REMARK INTER + INTRA:          -7.583
REMARK INTER:                  -7.124
REMARK INTRA:                  -0.459
REMARK UNBOUND:                -0.568
REMARK  Name = 
REMARK  5 active torsions:
REMARK  status: ('A' for Active; 'I' for Inactive)
REMARK    1  A    between atoms: C_1  and  C_2
REMARK    2  A    between atoms: C_2  and  C_3
REMARK    3  A    between atoms: C_2  and  C_14
REMARK    4  A    between atoms: C_3  and  N_4
REMARK    5  A    between atoms: C_8  and  C_9
REMARK                            x       y       z     vdW  Elec       q    Type
REMARK                         _______ _______ _______ _____ _____    ______ ____
ROOT
ATOM      1  N   UNL     1      47.340   7.144  13.874  0.00  0.00    +0.000 N 
ATOM      2  C   UNL     1      46.450   6.183  13.371  0.00  0.00    +0.000 A 
ATOM      3  C   UNL     1      45.198   6.584  12.881  0.00  0.00    +0.000 A 
ATOM      4  N   UNL     1      44.266   5.734  12.371  0.00  0.00    +0.000 NA
ATOM      5  C   UNL     1      44.643   4.425  12.379  0.00  0.00    +0.000 A 
ATOM      6  C   UNL     1      45.867   4.010  12.876  0.00  0.00    +0.000 A 
ATOM      7  N   UNL     1      46.782   4.875  13.382  0.00  0.00    +0.000 NA
ATOM      8  H   UNL     1      47.497   7.855  13.162  0.00  0.00    +0.000 HD
ENDROOT
BRANCH   5   9
ATOM      9  C   UNL     1      43.696   3.420  11.830  0.00  0.00    +0.000 C 
ATOM     10  N   UNL     1      43.701   2.197  12.440  0.00  0.00    +0.000 N 
ATOM     11  O   UNL     1      42.954   3.667  10.886  0.00  0.00    +0.000 OA
ATOM     12  H   UNL     1      44.329   2.017  13.216  0.00  0.00    +0.000 HD
ATOM     13  H   UNL     1      43.077   1.475  12.109  0.00  0.00    +0.000 HD
ENDBRANCH   5   9
BRANCH   1  14
ATOM     14  C   UNL     1      48.611   6.594  14.339  0.00  0.00    +0.000 C 
BRANCH  14  16
ATOM     15  C   UNL     1      49.061   7.960  16.474  0.00  0.00    +0.000 C 
ATOM     16  C   UNL     1      48.603   6.685  15.839  0.00  0.00    +0.000 C 
BRANCH  16  17
ATOM     17  C   UNL     1      48.643   5.429  16.602  0.00  0.00    +0.000 A 
ATOM     18  C   UNL     1      49.776   5.078  17.345  0.00  0.00    +0.000 A 
ATOM     19  C   UNL     1      49.773   3.930  18.140  0.00  0.00    +0.000 A 
ATOM     20  C   UNL     1      48.635   3.129  18.203  0.00  0.00    +0.000 A 
ATOM     21  C   UNL     1      47.510   3.458  17.453  0.00  0.00    +0.000 A 
ATOM     22  C   UNL     1      47.519   4.598  16.647  0.00  0.00    +0.000 A 
ENDBRANCH  16  17
ENDBRANCH  14  16
ENDBRANCH   1  14
TORSDOF 4
ENDMDL
