MODEL 1
REMARK VINA RESULT:    -9.264      0.000      0.000
REMARK INTER + INTRA:         -14.684
REMARK INTER:                 -13.326
REMARK INTRA:                  -1.358
REMARK UNBOUND:                -1.358
REMARK  Name = 
REMARK  8 active torsions:
REMARK  status: ('A' for Active; 'I' for Inactive)
REMARK    1  A    between atoms: C_2  and  C_4
REMARK    2  A    between atoms: N_8  and  C_9
REMARK    3  A    between atoms: C_9  and  C_10
REMARK    4  A    between atoms: C_10  and  C_11
REMARK    5  A    between atoms: C_10  and  C_13
REMARK    6  A    between atoms: C_11  and  O_12
REMARK    7  A    between atoms: C_17  and  O_18
REMARK    8  A    between atoms: O_18  and  C_19
REMARK                            x       y       z     vdW  Elec       q    Type
REMARK                         _______ _______ _______ _____ _____    ______ ____
ROOT
ATOM      1  C   UNL     1      43.975   4.973  12.319  0.00  0.00    +0.000 C 
ENDROOT
BRANCH   1   2
ATOM      2  C   UNL     1      45.409   5.458  12.531  0.00  0.00    +0.000 A 
ATOM      3  C   UNL     1      46.027   6.343  11.635  0.00  0.00    +0.000 A 
ATOM      4  C   UNL     1      47.311   6.829  11.881  0.00  0.00    +0.000 A 
ATOM      5  C   UNL     1      48.008   6.437  13.024  0.00  0.00    +0.000 A 
ATOM      6  C   UNL     1      47.420   5.545  13.916  0.00  0.00    +0.000 A 
ATOM      7  C   UNL     1      46.127   5.066  13.674  0.00  0.00    +0.000 A 
BRANCH   6   8
ATOM      8  O   UNL     1      48.001   5.112  15.083  0.00  0.00    +0.000 OA
BRANCH   8   9
ATOM      9  C   UNL     1      47.326   4.115  15.879  0.00  0.00    +0.000 C 
ATOM     10  C   UNL     1      47.155   4.417  17.380  0.00  0.00    +0.000 C 
ATOM     11  C   UNL     1      47.707   3.020  17.706  0.00  0.00    +0.000 C 
ATOM     12  F   UNL     1      48.660   2.981  18.663  0.00  0.00    +0.000 F 
ATOM     13  F   UNL     1      46.775   2.102  18.052  0.00  0.00    +0.000 F 
ATOM     14  C   UNL     1      48.217   2.917  16.261  0.00  0.00    +0.000 C 
ENDBRANCH   8   9
ENDBRANCH   6   8
ENDBRANCH   1   2
BRANCH   1  15
ATOM     15  C   UNL     1      43.604   5.094  10.826  0.00  0.00    +0.000 C 
BRANCH  15  20
ATOM     16  C   UNL     1      46.646   2.704   7.540  0.00  0.00    +0.000 A 
ATOM     17  C   UNL     1      46.309   4.052   7.618  0.00  0.00    +0.000 A 
ATOM     18  C   UNL     1      45.299   4.449   8.495  0.00  0.00    +0.000 A 
ATOM     19  C   UNL     1      44.661   3.502   9.290  0.00  0.00    +0.000 A 
ATOM     20  N   UNL     1      43.617   3.804  10.148  0.00  0.00    +0.000 N 
ATOM     21  N   UNL     1      44.983   2.194   9.227  0.00  0.00    +0.000 NA
ATOM     22  C   UNL     1      45.948   1.818   8.344  0.00  0.00    +0.000 A 
ATOM     23  H   UNL     1      43.438   2.968  10.699  0.00  0.00    +0.000 HD
BRANCH  16  25
ATOM     24  N   UNL     1      47.954   2.945   5.507  0.00  0.00    +0.000 N 
ATOM     25  C   UNL     1      47.677   2.192   6.616  0.00  0.00    +0.000 C 
ATOM     26  O   UNL     1      48.281   1.151   6.844  0.00  0.00    +0.000 OA
ATOM     27  H   UNL     1      48.728   2.636   4.932  0.00  0.00    +0.000 HD
ATOM     28  H   UNL     1      47.660   3.907   5.412  0.00  0.00    +0.000 HD
ENDBRANCH  16  25
ENDBRANCH  15  20
ENDBRANCH   1  15
BRANCH   1  29
ATOM     29  C   UNL     1      43.740   3.560  12.891  0.00  0.00    +0.000 C 
BRANCH  29  30
ATOM     30  O   UNL     1      44.693   2.602  12.441  0.00  0.00    +0.000 OA
ATOM     31  H   UNL     1      44.965   2.063  13.205  0.00  0.00    +0.000 HD
ENDBRANCH  29  30
ENDBRANCH   1  29
TORSDOF 8
ENDMDL
MODEL 2
REMARK VINA RESULT:    -7.687      4.529      8.429
REMARK INTER + INTRA:         -12.415
REMARK INTER:                 -11.605
REMARK INTRA:                  -0.810
REMARK UNBOUND:                -1.358
REMARK  Name = 
REMARK  8 active torsions:
REMARK  status: ('A' for Active; 'I' for Inactive)
REMARK    1  A    between atoms: C_2  and  C_4
REMARK    2  A    between atoms: N_8  and  C_9
REMARK    3  A    between atoms: C_9  and  C_10
REMARK    4  A    between atoms: C_10  and  C_11
REMARK    5  A    between atoms: C_10  and  C_13
REMARK    6  A    between atoms: C_11  and  O_12
REMARK    7  A    between atoms: C_17  and  O_18
REMARK    8  A    between atoms: O_18  and  C_19
REMARK                            x       y       z     vdW  Elec       q    Type
REMARK                         _______ _______ _______ _____ _____    ______ ____
ROOT
ATOM      1  C   UNL     1      45.683   6.785  12.785  0.00  0.00    +0.000 C 
ENDROOT
BRANCH   1   2
ATOM      2  C   UNL     1      45.069   5.805  11.786  0.00  0.00    +0.000 A 
ATOM      3  C   UNL     1      43.892   5.099  12.075  0.00  0.00    +0.000 A 
ATOM      4  C   UNL     1      43.309   4.261  11.124  0.00  0.00    +0.000 A 
ATOM      5  C   UNL     1      43.892   4.106   9.867  0.00  0.00    +0.000 A 
ATOM      6  C   UNL     1      45.070   4.783   9.566  0.00  0.00    +0.000 A 
ATOM      7  C   UNL     1      45.649   5.632  10.517  0.00  0.00    +0.000 A 
BRANCH   6   8
ATOM      8  O   UNL     1      45.715   4.726   8.355  0.00  0.00    +0.000 OA
BRANCH   8   9
ATOM      9  C   UNL     1      45.696   3.494   7.604  0.00  0.00    +0.000 C 
ATOM     10  C   UNL     1      46.349   2.264   8.262  0.00  0.00    +0.000 C 
ATOM     11  C   UNL     1      47.130   2.005   6.964  0.00  0.00    +0.000 C 
ATOM     12  F   UNL     1      48.451   1.764   7.118  0.00  0.00    +0.000 F 
ATOM     13  F   UNL     1      46.642   1.006   6.191  0.00  0.00    +0.000 F 
ATOM     14  C   UNL     1      46.768   3.423   6.499  0.00  0.00    +0.000 C 
ENDBRANCH   8   9
ENDBRANCH   6   8
ENDBRANCH   1   2
BRANCH   1  15
ATOM     15  C   UNL     1      47.110   6.323  13.151  0.00  0.00    +0.000 C 
BRANCH  15  20
ATOM     16  C   UNL     1      48.252   4.535  17.762  0.00  0.00    +0.000 A 
ATOM     17  C   UNL     1      48.860   5.549  17.027  0.00  0.00    +0.000 A 
ATOM     18  C   UNL     1      48.489   5.739  15.696  0.00  0.00    +0.000 A 
ATOM     19  C   UNL     1      47.507   4.931  15.130  0.00  0.00    +0.000 A 
ATOM     20  N   UNL     1      47.117   5.021  13.804  0.00  0.00    +0.000 N 
ATOM     21  N   UNL     1      46.907   3.949  15.833  0.00  0.00    +0.000 NA
ATOM     22  C   UNL     1      47.303   3.757  17.121  0.00  0.00    +0.000 A 
ATOM     23  H   UNL     1      46.301   4.423  13.697  0.00  0.00    +0.000 HD
BRANCH  16  25
ATOM     24  N   UNL     1      48.243   3.020  19.660  0.00  0.00    +0.000 N 
ATOM     25  C   UNL     1      48.608   4.242  19.164  0.00  0.00    +0.000 C 
ATOM     26  O   UNL     1      49.229   5.046  19.849  0.00  0.00    +0.000 OA
ATOM     27  H   UNL     1      48.576   2.790  20.588  0.00  0.00    +0.000 HD
ATOM     28  H   UNL     1      47.954   2.254  19.068  0.00  0.00    +0.000 HD
ENDBRANCH  16  25
ENDBRANCH  15  20
ENDBRANCH   1  15
BRANCH   1  29
ATOM     29  C   UNL     1      45.625   8.245  12.291  0.00  0.00    +0.000 C 
BRANCH  29  30
ATOM     30  O   UNL     1      44.974   9.125  13.201  0.00  0.00    +0.000 OA
ATOM     31  H   UNL     1      45.577   9.865  13.391  0.00  0.00    +0.000 HD
ENDBRANCH  29  30
ENDBRANCH   1  29
TORSDOF 8
ENDMDL
MODEL 3
REMARK VINA RESULT:    -6.770      4.801      8.565
REMARK INTER + INTRA:         -11.096
REMARK INTER:                 -10.468
REMARK INTRA:                  -0.628
REMARK UNBOUND:                -1.358
REMARK  Name = 
REMARK  8 active torsions:
REMARK  status: ('A' for Active; 'I' for Inactive)
REMARK    1  A    between atoms: C_2  and  C_4
REMARK    2  A    between atoms: N_8  and  C_9
REMARK    3  A    between atoms: C_9  and  C_10
REMARK    4  A    between atoms: C_10  and  C_11
REMARK    5  A    between atoms: C_10  and  C_13
REMARK    6  A    between atoms: C_11  and  O_12
REMARK    7  A    between atoms: C_17  and  O_18
REMARK    8  A    between atoms: O_18  and  C_19
REMARK                            x       y       z     vdW  Elec       q    Type
REMARK                         _______ _______ _______ _____ _____    ______ ____
ROOT
ATOM      1  C   UNL     1      45.887   6.863  12.302  0.00  0.00    +0.000 C 
ENDROOT
BRANCH   1   2
ATOM      2  C   UNL     1      45.257   5.735  11.486  0.00  0.00    +0.000 A 
ATOM      3  C   UNL     1      44.250   4.915  12.016  0.00  0.00    +0.000 A 
ATOM      4  C   UNL     1      43.638   3.936  11.232  0.00  0.00    +0.000 A 
ATOM      5  C   UNL     1      44.024   3.749   9.906  0.00  0.00    +0.000 A 
ATOM      6  C   UNL     1      45.035   4.539   9.366  0.00  0.00    +0.000 A 
ATOM      7  C   UNL     1      45.641   5.529  10.149  0.00  0.00    +0.000 A 
BRANCH   6   8
ATOM      8  O   UNL     1      45.477   4.462   8.068  0.00  0.00    +0.000 OA
BRANCH   8   9
ATOM      9  C   UNL     1      45.569   3.170   7.430  0.00  0.00    +0.000 C 
ATOM     10  C   UNL     1      46.286   2.054   8.213  0.00  0.00    +0.000 C 
ATOM     11  C   UNL     1      47.124   1.739   6.964  0.00  0.00    +0.000 C 
ATOM     12  F   UNL     1      48.453   1.610   7.173  0.00  0.00    +0.000 F 
ATOM     13  F   UNL     1      46.733   0.643   6.272  0.00  0.00    +0.000 F 
ATOM     14  C   UNL     1      46.678   3.081   6.363  0.00  0.00    +0.000 C 
ENDBRANCH   8   9
ENDBRANCH   6   8
ENDBRANCH   1   2
BRANCH   1  15
ATOM     15  C   UNL     1      47.395   6.950  11.984  0.00  0.00    +0.000 C 
BRANCH  15  20
ATOM     16  C   UNL     1      48.765   7.632  16.824  0.00  0.00    +0.000 A 
ATOM     17  C   UNL     1      48.599   8.569  15.808  0.00  0.00    +0.000 A 
ATOM     18  C   UNL     1      48.401   8.124  14.500  0.00  0.00    +0.000 A 
ATOM     19  C   UNL     1      48.350   6.759  14.234  0.00  0.00    +0.000 A 
ATOM     20  N   UNL     1      48.207   6.235  12.960  0.00  0.00    +0.000 N 
ATOM     21  N   UNL     1      48.504   5.842  15.211  0.00  0.00    +0.000 NA
ATOM     22  C   UNL     1      48.728   6.292  16.476  0.00  0.00    +0.000 A 
ATOM     23  H   UNL     1      48.061   5.234  13.070  0.00  0.00    +0.000 HD
BRANCH  16  25
ATOM     24  N   UNL     1      48.357   7.303  19.196  0.00  0.00    +0.000 N 
ATOM     25  C   UNL     1      49.014   8.014  18.228  0.00  0.00    +0.000 C 
ATOM     26  O   UNL     1      49.797   8.910  18.519  0.00  0.00    +0.000 OA
ATOM     27  H   UNL     1      48.608   7.506  20.155  0.00  0.00    +0.000 HD
ATOM     28  H   UNL     1      47.904   6.419  19.011  0.00  0.00    +0.000 HD
ENDBRANCH  16  25
ENDBRANCH  15  20
ENDBRANCH   1  15
BRANCH   1  29
ATOM     29  C   UNL     1      45.149   8.205  12.122  0.00  0.00    +0.000 C 
BRANCH  29  30
ATOM     30  O   UNL     1      44.010   8.114  11.271  0.00  0.00    +0.000 OA
ATOM     31  H   UNL     1      44.302   8.271  10.356  0.00  0.00    +0.000 HD
ENDBRANCH  29  30
ENDBRANCH   1  29
TORSDOF 8
ENDMDL
MODEL 4
REMARK VINA RESULT:    -6.486      5.291      7.922
REMARK INTER + INTRA:         -10.687
REMARK INTER:                  -9.890
REMARK INTRA:                  -0.797
REMARK UNBOUND:                -1.358
REMARK  Name = 
REMARK  8 active torsions:
REMARK  status: ('A' for Active; 'I' for Inactive)
REMARK    1  A    between atoms: C_2  and  C_4
REMARK    2  A    between atoms: N_8  and  C_9
REMARK    3  A    between atoms: C_9  and  C_10
REMARK    4  A    between atoms: C_10  and  C_11
REMARK    5  A    between atoms: C_10  and  C_13
REMARK    6  A    between atoms: C_11  and  O_12
REMARK    7  A    between atoms: C_17  and  O_18
REMARK    8  A    between atoms: O_18  and  C_19
REMARK                            x       y       z     vdW  Elec       q    Type
REMARK                         _______ _______ _______ _____ _____    ______ ____
ROOT
ATOM      1  C   UNL     1      46.313   6.665  12.492  0.00  0.00    +0.000 C 
ENDROOT
BRANCH   1   2
ATOM      2  C   UNL     1      45.569   5.532  11.785  0.00  0.00    +0.000 A 
ATOM      3  C   UNL     1      44.778   4.615  12.493  0.00  0.00    +0.000 A 
ATOM      4  C   UNL     1      44.051   3.630  11.823  0.00  0.00    +0.000 A 
ATOM      5  C   UNL     1      44.105   3.535  10.433  0.00  0.00    +0.000 A 
ATOM      6  C   UNL     1      44.899   4.424   9.712  0.00  0.00    +0.000 A 
ATOM      7  C   UNL     1      45.620   5.418  10.384  0.00  0.00    +0.000 A 
BRANCH   6   8
ATOM      8  O   UNL     1      45.006   4.440   8.344  0.00  0.00    +0.000 OA
BRANCH   8   9
ATOM      9  C   UNL     1      45.254   3.204   7.641  0.00  0.00    +0.000 C 
ATOM     10  C   UNL     1      46.142   2.163   8.350  0.00  0.00    +0.000 C 
ATOM     11  C   UNL     1      46.975   2.024   7.066  0.00  0.00    +0.000 C 
ATOM     12  F   UNL     1      48.315   2.071   7.235  0.00  0.00    +0.000 F 
ATOM     13  F   UNL     1      46.717   0.918   6.331  0.00  0.00    +0.000 F 
ATOM     14  C   UNL     1      46.331   3.317   6.544  0.00  0.00    +0.000 C 
ENDBRANCH   8   9
ENDBRANCH   6   8
ENDBRANCH   1   2
BRANCH   1  15
ATOM     15  C   UNL     1      47.637   6.952  11.753  0.00  0.00    +0.000 C 
BRANCH  15  20
ATOM     16  C   UNL     1      51.852   9.557  10.652  0.00  0.00    +0.000 A 
ATOM     17  C   UNL     1      51.681   8.191  10.856  0.00  0.00    +0.000 A 
ATOM     18  C   UNL     1      50.457   7.725  11.337  0.00  0.00    +0.000 A 
ATOM     19  C   UNL     1      49.423   8.623  11.584  0.00  0.00    +0.000 A 
ATOM     20  N   UNL     1      48.197   8.250  12.108  0.00  0.00    +0.000 N 
ATOM     21  N   UNL     1      49.576   9.948  11.385  0.00  0.00    +0.000 NA
ATOM     22  C   UNL     1      50.785  10.391  10.945  0.00  0.00    +0.000 A 
ATOM     23  H   UNL     1      47.593   9.067  12.053  0.00  0.00    +0.000 HD
BRANCH  16  25
ATOM     24  N   UNL     1      53.141  10.661   8.914  0.00  0.00    +0.000 N 
ATOM     25  C   UNL     1      53.123  10.140  10.179  0.00  0.00    +0.000 C 
ATOM     26  O   UNL     1      54.115  10.183  10.898  0.00  0.00    +0.000 OA
ATOM     27  H   UNL     1      53.985  11.145   8.636  0.00  0.00    +0.000 HD
ATOM     28  H   UNL     1      52.298  10.861   8.394  0.00  0.00    +0.000 HD
ENDBRANCH  16  25
ENDBRANCH  15  20
ENDBRANCH   1  15
BRANCH   1  29
ATOM     29  C   UNL     1      45.436   7.919  12.679  0.00  0.00    +0.000 C 
BRANCH  29  30
ATOM     30  O   UNL     1      45.938   8.819  13.663  0.00  0.00    +0.000 OA
ATOM     31  H   UNL     1      45.567   9.701  13.484  0.00  0.00    +0.000 HD
ENDBRANCH  29  30
ENDBRANCH   1  29
TORSDOF 8
ENDMDL
MODEL 5
REMARK VINA RESULT:    -6.471      2.759      4.651
REMARK INTER + INTRA:         -10.666
REMARK INTER:                  -9.771
REMARK INTRA:                  -0.895
REMARK UNBOUND:                -1.358
REMARK  Name = 
REMARK  8 active torsions:
REMARK  status: ('A' for Active; 'I' for Inactive)
REMARK    1  A    between atoms: C_2  and  C_4
REMARK    2  A    between atoms: N_8  and  C_9
REMARK    3  A    between atoms: C_9  and  C_10
REMARK    4  A    between atoms: C_10  and  C_11
REMARK    5  A    between atoms: C_10  and  C_13
REMARK    6  A    between atoms: C_11  and  O_12
REMARK    7  A    between atoms: C_17  and  O_18
REMARK    8  A    between atoms: O_18  and  C_19
REMARK                            x       y       z     vdW  Elec       q    Type
REMARK                         _______ _______ _______ _____ _____    ______ ____
ROOT
ATOM      1  C   UNL     1      48.451   7.822  12.884  0.00  0.00    +0.000 C 
ENDROOT
BRANCH   1   2
ATOM      2  C   UNL     1      48.594   7.976  14.398  0.00  0.00    +0.000 A 
ATOM      3  C   UNL     1      48.247   9.166  15.054  0.00  0.00    +0.000 A 
ATOM      4  C   UNL     1      48.319   9.264  16.445  0.00  0.00    +0.000 A 
ATOM      5  C   UNL     1      48.747   8.178  17.208  0.00  0.00    +0.000 A 
ATOM      6  C   UNL     1      49.114   6.994  16.575  0.00  0.00    +0.000 A 
ATOM      7  C   UNL     1      49.031   6.893  15.181  0.00  0.00    +0.000 A 
BRANCH   6   8
ATOM      8  O   UNL     1      49.523   5.856  17.225  0.00  0.00    +0.000 OA
BRANCH   8   9
ATOM      9  C   UNL     1      48.537   4.885  17.636  0.00  0.00    +0.000 C 
ATOM     10  C   UNL     1      49.050   3.478  17.998  0.00  0.00    +0.000 C 
ATOM     11  C   UNL     1      47.972   2.869  17.088  0.00  0.00    +0.000 C 
ATOM     12  F   UNL     1      48.403   1.911  16.238  0.00  0.00    +0.000 F 
ATOM     13  F   UNL     1      46.897   2.359  17.733  0.00  0.00    +0.000 F 
ATOM     14  C   UNL     1      47.757   4.256  16.464  0.00  0.00    +0.000 C 
ENDBRANCH   8   9
ENDBRANCH   6   8
ENDBRANCH   1   2
BRANCH   1  15
ATOM     15  C   UNL     1      47.098   8.412  12.432  0.00  0.00    +0.000 C 
BRANCH  15  20
ATOM     16  C   UNL     1      44.539   4.145  11.428  0.00  0.00    +0.000 A 
ATOM     17  C   UNL     1      45.095   5.074  10.552  0.00  0.00    +0.000 A 
ATOM     18  C   UNL     1      45.590   6.274  11.061  0.00  0.00    +0.000 A 
ATOM     19  C   UNL     1      45.541   6.518  12.431  0.00  0.00    +0.000 A 
ATOM     20  N   UNL     1      45.965   7.702  13.010  0.00  0.00    +0.000 N 
ATOM     21  N   UNL     1      45.010   5.624  13.289  0.00  0.00    +0.000 NA
ATOM     22  C   UNL     1      44.503   4.471  12.774  0.00  0.00    +0.000 A 
ATOM     23  H   UNL     1      45.949   7.558  14.017  0.00  0.00    +0.000 HD
BRANCH  16  25
ATOM     24  N   UNL     1      44.579   2.236   9.927  0.00  0.00    +0.000 N 
ATOM     25  C   UNL     1      43.961   2.866  10.973  0.00  0.00    +0.000 C 
ATOM     26  O   UNL     1      42.985   2.372  11.525  0.00  0.00    +0.000 OA
ATOM     27  H   UNL     1      44.235   1.315   9.686  0.00  0.00    +0.000 HD
ATOM     28  H   UNL     1      45.507   2.482   9.612  0.00  0.00    +0.000 HD
ENDBRANCH  16  25
ENDBRANCH  15  20
ENDBRANCH   1  15
BRANCH   1  29
ATOM     29  C   UNL     1      49.655   8.403  12.116  0.00  0.00    +0.000 C 
BRANCH  29  30
ATOM     30  O   UNL     1      50.661   7.437  11.828  0.00  0.00    +0.000 OA
ATOM     31  H   UNL     1      50.228   6.573  11.715  0.00  0.00    +0.000 HD
ENDBRANCH  29  30
ENDBRANCH   1  29
TORSDOF 8
ENDMDL
MODEL 6
REMARK VINA RESULT:    -6.334      3.058      5.340
REMARK INTER + INTRA:         -10.469
REMARK INTER:                  -9.350
REMARK INTRA:                  -1.120
REMARK UNBOUND:                -1.358
REMARK  Name = 
REMARK  8 active torsions:
REMARK  status: ('A' for Active; 'I' for Inactive)
REMARK    1  A    between atoms: C_2  and  C_4
REMARK    2  A    between atoms: N_8  and  C_9
REMARK    3  A    between atoms: C_9  and  C_10
REMARK    4  A    between atoms: C_10  and  C_11
REMARK    5  A    between atoms: C_10  and  C_13
REMARK    6  A    between atoms: C_11  and  O_12
REMARK    7  A    between atoms: C_17  and  O_18
REMARK    8  A    between atoms: O_18  and  C_19
REMARK                            x       y       z     vdW  Elec       q    Type
REMARK                         _______ _______ _______ _____ _____    ______ ____
ROOT
ATOM      1  C   UNL     1      49.244   7.551  14.334  0.00  0.00    +0.000 C 
ENDROOT
BRANCH   1   2
ATOM      2  C   UNL     1      48.974   7.725  15.828  0.00  0.00    +0.000 A 
ATOM      3  C   UNL     1      48.373   8.885  16.338  0.00  0.00    +0.000 A 
ATOM      4  C   UNL     1      48.072   8.997  17.696  0.00  0.00    +0.000 A 
ATOM      5  C   UNL     1      48.370   7.955  18.574  0.00  0.00    +0.000 A 
ATOM      6  C   UNL     1      48.983   6.802  18.091  0.00  0.00    +0.000 A 
ATOM      7  C   UNL     1      49.276   6.687  16.727  0.00  0.00    +0.000 A 
BRANCH   6   8
ATOM      8  O   UNL     1      49.297   5.707  18.857  0.00  0.00    +0.000 OA
BRANCH   8   9
ATOM      9  C   UNL     1      48.427   4.556  18.831  0.00  0.00    +0.000 C 
ATOM     10  C   UNL     1      48.914   3.329  18.037  0.00  0.00    +0.000 C 
ATOM     11  C   UNL     1      47.549   3.264  17.333  0.00  0.00    +0.000 C 
ATOM     12  F   UNL     1      47.594   3.124  15.990  0.00  0.00    +0.000 F 
ATOM     13  F   UNL     1      46.711   2.306  17.794  0.00  0.00    +0.000 F 
ATOM     14  C   UNL     1      47.254   4.684  17.839  0.00  0.00    +0.000 C 
ENDBRANCH   8   9
ENDBRANCH   6   8
ENDBRANCH   1   2
BRANCH   1  15
ATOM     15  C   UNL     1      48.049   8.102  13.526  0.00  0.00    +0.000 C 
BRANCH  15  20
ATOM     16  C   UNL     1      44.931   4.427  11.934  0.00  0.00    +0.000 A 
ATOM     17  C   UNL     1      45.537   4.600  13.175  0.00  0.00    +0.000 A 
ATOM     18  C   UNL     1      46.511   5.589  13.322  0.00  0.00    +0.000 A 
ATOM     19  C   UNL     1      46.845   6.397  12.239  0.00  0.00    +0.000 A 
ATOM     20  N   UNL     1      47.834   7.365  12.287  0.00  0.00    +0.000 N 
ATOM     21  N   UNL     1      46.260   6.242  11.034  0.00  0.00    +0.000 NA
ATOM     22  C   UNL     1      45.335   5.253  10.899  0.00  0.00    +0.000 A 
ATOM     23  H   UNL     1      47.771   7.892  11.419  0.00  0.00    +0.000 HD
BRANCH  16  25
ATOM     24  N   UNL     1      43.844   2.351  12.575  0.00  0.00    +0.000 N 
ATOM     25  C   UNL     1      43.917   3.384  11.680  0.00  0.00    +0.000 C 
ATOM     26  O   UNL     1      43.153   3.452  10.725  0.00  0.00    +0.000 OA
ATOM     27  H   UNL     1      43.084   1.694  12.447  0.00  0.00    +0.000 HD
ATOM     28  H   UNL     1      44.280   2.385  13.486  0.00  0.00    +0.000 HD
ENDBRANCH  16  25
ENDBRANCH  15  20
ENDBRANCH   1  15
BRANCH   1  29
ATOM     29  C   UNL     1      50.597   8.153  13.905  0.00  0.00    +0.000 C 
BRANCH  29  30
ATOM     30  O   UNL     1      51.033   7.709  12.623  0.00  0.00    +0.000 OA
ATOM     31  H   UNL     1      51.069   6.737  12.636  0.00  0.00    +0.000 HD
ENDBRANCH  29  30
ENDBRANCH   1  29
TORSDOF 8
ENDMDL
