MODEL 1
REMARK VINA RESULT:    -8.027      0.000      0.000
REMARK INTER + INTRA:         -11.542
REMARK INTER:                 -10.373
REMARK INTRA:                  -1.169
REMARK UNBOUND:                -1.169
REMARK  Name = 
REMARK  6 active torsions:
REMARK  status: ('A' for Active; 'I' for Inactive)
REMARK    1  A    between atoms: C_1  and  N_2
REMARK    2  A    between atoms: N_2  and  C_3
REMARK    3  A    between atoms: C_3  and  C_4
REMARK    4  A    between atoms: C_7  and  C_8
REMARK    5  A    between atoms: C_8  and  C_9
REMARK    6  A    between atoms: C_17  and  C_19
REMARK                            x       y       z     vdW  Elec       q    Type
REMARK                         _______ _______ _______ _____ _____    ______ ____
ROOT
ATOM      1  C   UNL     1      46.269   8.471  12.389  0.00  0.00    +0.000 C 
ATOM      2  N   UNL     1      46.048   7.033  12.245  0.00  0.00    +0.000 N 
ATOM      3  C   UNL     1      44.805   6.665  11.693  0.00  0.00    +0.000 C 
ATOM      4  O   UNL     1      43.980   7.514  11.368  0.00  0.00    +0.000 OA
ENDROOT
BRANCH   3   5
ATOM      5  C   UNL     1      44.476   5.244  11.544  0.00  0.00    +0.000 A 
ATOM      6  C   UNL     1      43.715   4.514  12.442  0.00  0.00    +0.000 A 
ATOM      7  S   UNL     1      43.429   2.906  11.948  0.00  0.00    +0.000 S 
ATOM      8  C   UNL     1      44.192   3.175  10.452  0.00  0.00    +0.000 A 
ATOM      9  N   UNL     1      44.202   2.222   9.485  0.00  0.00    +0.000 NA
ATOM     10  C   UNL     1      44.751   2.593   8.379  0.00  0.00    +0.000 A 
ATOM     11  N   UNL     1      45.323   3.822   8.160  0.00  0.00    +0.000 N 
ATOM     12  C   UNL     1      45.464   4.768   9.154  0.00  0.00    +0.000 A 
ATOM     13  O   UNL     1      46.195   5.738   9.006  0.00  0.00    +0.000 OA
ATOM     14  C   UNL     1      44.747   4.442  10.375  0.00  0.00    +0.000 A 
ATOM     15  H   UNL     1      45.797   4.023   7.294  0.00  0.00    +0.000 HD
ENDBRANCH   3   5
BRANCH   2  16
ATOM     16  C   UNL     1      47.151   6.088  12.471  0.00  0.00    +0.000 C 
BRANCH  16  17
ATOM     17  C   UNL     1      47.389   5.660  13.889  0.00  0.00    +0.000 A 
ATOM     18  C   UNL     1      46.755   4.541  14.423  0.00  0.00    +0.000 A 
ATOM     19  C   UNL     1      47.086   4.113  15.705  0.00  0.00    +0.000 A 
ATOM     20  C   UNL     1      48.046   4.819  16.424  0.00  0.00    +0.000 A 
ATOM     21  N   UNL     1      48.643   5.939  15.940  0.00  0.00    +0.000 NA
ATOM     22  C   UNL     1      48.305   6.332  14.695  0.00  0.00    +0.000 A 
BRANCH  20  23
ATOM     23  C   UNL     1      48.509   4.329  17.773  0.00  0.00    +0.000 C 
BRANCH  23  24
ATOM     24  C   UNL     1      49.736   3.454  17.721  0.00  0.00    +0.000 A 
ATOM     25  C   UNL     1      50.989   3.922  18.125  0.00  0.00    +0.000 A 
ATOM     26  C   UNL     1      52.111   3.113  17.971  0.00  0.00    +0.000 A 
ATOM     27  C   UNL     1      51.943   1.852  17.426  0.00  0.00    +0.000 A 
ATOM     28  N   UNL     1      50.748   1.350  17.054  0.00  0.00    +0.000 NA
ATOM     29  C   UNL     1      49.673   2.157  17.212  0.00  0.00    +0.000 A 
ENDBRANCH  23  24
ENDBRANCH  20  23
ENDBRANCH  16  17
ENDBRANCH   2  16
TORSDOF 5
ENDMDL
MODEL 2
REMARK VINA RESULT:    -7.600      1.469      2.251
REMARK INTER + INTRA:         -10.991
REMARK INTER:                  -9.776
REMARK INTRA:                  -1.214
REMARK UNBOUND:                -1.169
REMARK  Name = 
REMARK  6 active torsions:
REMARK  status: ('A' for Active; 'I' for Inactive)
REMARK    1  A    between atoms: C_1  and  N_2
REMARK    2  A    between atoms: N_2  and  C_3
REMARK    3  A    between atoms: C_3  and  C_4
REMARK    4  A    between atoms: C_7  and  C_8
REMARK    5  A    between atoms: C_8  and  C_9
REMARK    6  A    between atoms: C_17  and  C_19
REMARK                            x       y       z     vdW  Elec       q    Type
REMARK                         _______ _______ _______ _____ _____    ______ ____
ROOT
ATOM      1  C   UNL     1      46.450   8.731  13.007  0.00  0.00    +0.000 C 
ATOM      2  N   UNL     1      46.340   7.419  12.370  0.00  0.00    +0.000 N 
ATOM      3  C   UNL     1      45.282   7.280  11.451  0.00  0.00    +0.000 C 
ATOM      4  O   UNL     1      44.515   8.212  11.223  0.00  0.00    +0.000 OA
ENDROOT
BRANCH   3   5
ATOM      5  C   UNL     1      45.068   5.990  10.789  0.00  0.00    +0.000 A 
ATOM      6  C   UNL     1      45.613   5.635   9.566  0.00  0.00    +0.000 A 
ATOM      7  S   UNL     1      45.255   4.033   9.097  0.00  0.00    +0.000 S 
ATOM      8  C   UNL     1      44.482   3.718  10.579  0.00  0.00    +0.000 A 
ATOM      9  N   UNL     1      44.031   2.475  10.887  0.00  0.00    +0.000 NA
ATOM     10  C   UNL     1      43.534   2.368  12.072  0.00  0.00    +0.000 A 
ATOM     11  N   UNL     1      43.415   3.401  12.968  0.00  0.00    +0.000 N 
ATOM     12  C   UNL     1      43.726   4.708  12.649  0.00  0.00    +0.000 A 
ATOM     13  O   UNL     1      43.374   5.635  13.366  0.00  0.00    +0.000 OA
ATOM     14  C   UNL     1      44.407   4.849  11.374  0.00  0.00    +0.000 A 
ATOM     15  H   UNL     1      42.953   3.266  13.853  0.00  0.00    +0.000 HD
ENDBRANCH   3   5
BRANCH   2  16
ATOM     16  C   UNL     1      47.405   6.421  12.543  0.00  0.00    +0.000 C 
BRANCH  16  17
ATOM     17  C   UNL     1      47.585   5.864  13.925  0.00  0.00    +0.000 A 
ATOM     18  C   UNL     1      46.894   4.729  14.343  0.00  0.00    +0.000 A 
ATOM     19  C   UNL     1      47.171   4.180  15.592  0.00  0.00    +0.000 A 
ATOM     20  C   UNL     1      48.135   4.784  16.394  0.00  0.00    +0.000 A 
ATOM     21  N   UNL     1      48.788   5.916  16.024  0.00  0.00    +0.000 NA
ATOM     22  C   UNL     1      48.501   6.427  14.809  0.00  0.00    +0.000 A 
BRANCH  20  23
ATOM     23  C   UNL     1      48.539   4.162  17.707  0.00  0.00    +0.000 C 
BRANCH  23  24
ATOM     24  C   UNL     1      49.879   3.472  17.673  0.00  0.00    +0.000 A 
ATOM     25  C   UNL     1      50.024   2.173  17.179  0.00  0.00    +0.000 A 
ATOM     26  C   UNL     1      51.261   1.539  17.255  0.00  0.00    +0.000 A 
ATOM     27  C   UNL     1      52.322   2.231  17.813  0.00  0.00    +0.000 A 
ATOM     28  N   UNL     1      52.232   3.497  18.271  0.00  0.00    +0.000 NA
ATOM     29  C   UNL     1      51.019   4.089  18.188  0.00  0.00    +0.000 A 
ENDBRANCH  23  24
ENDBRANCH  20  23
ENDBRANCH  16  17
ENDBRANCH   2  16
TORSDOF 5
ENDMDL
MODEL 3
REMARK VINA RESULT:    -7.115      3.011      8.197
REMARK INTER + INTRA:         -10.364
REMARK INTER:                 -10.147
REMARK INTRA:                  -0.216
REMARK UNBOUND:                -1.169
REMARK  Name = 
REMARK  6 active torsions:
REMARK  status: ('A' for Active; 'I' for Inactive)
REMARK    1  A    between atoms: C_1  and  N_2
REMARK    2  A    between atoms: N_2  and  C_3
REMARK    3  A    between atoms: C_3  and  C_4
REMARK    4  A    between atoms: C_7  and  C_8
REMARK    5  A    between atoms: C_8  and  C_9
REMARK    6  A    between atoms: C_17  and  C_19
REMARK                            x       y       z     vdW  Elec       q    Type
REMARK                         _______ _______ _______ _____ _____    ______ ____
ROOT
ATOM      1  C   UNL     1      47.775   7.290  12.186  0.00  0.00    +0.000 C 
ATOM      2  N   UNL     1      47.353   6.439  13.298  0.00  0.00    +0.000 N 
ATOM      3  C   UNL     1      48.303   6.270  14.323  0.00  0.00    +0.000 C 
ATOM      4  O   UNL     1      49.405   6.808  14.260  0.00  0.00    +0.000 OA
ENDROOT
BRANCH   3   5
ATOM      5  C   UNL     1      47.986   5.404  15.464  0.00  0.00    +0.000 A 
ATOM      6  C   UNL     1      47.570   4.087  15.360  0.00  0.00    +0.000 A 
ATOM      7  S   UNL     1      47.365   3.313  16.867  0.00  0.00    +0.000 S 
ATOM      8  C   UNL     1      47.963   4.669  17.702  0.00  0.00    +0.000 A 
ATOM      9  N   UNL     1      48.161   4.637  19.045  0.00  0.00    +0.000 NA
ATOM     10  C   UNL     1      48.687   5.709  19.530  0.00  0.00    +0.000 A 
ATOM     11  N   UNL     1      49.003   6.828  18.799  0.00  0.00    +0.000 N 
ATOM     12  C   UNL     1      48.690   6.961  17.462  0.00  0.00    +0.000 A 
ATOM     13  O   UNL     1      48.748   8.047  16.903  0.00  0.00    +0.000 OA
ATOM     14  C   UNL     1      48.216   5.731  16.850  0.00  0.00    +0.000 A 
ATOM     15  H   UNL     1      49.349   7.659  19.252  0.00  0.00    +0.000 HD
ENDBRANCH   3   5
BRANCH   2  16
ATOM     16  C   UNL     1      45.957   5.991  13.399  0.00  0.00    +0.000 C 
BRANCH  16  17
ATOM     17  C   UNL     1      45.454   5.105  12.297  0.00  0.00    +0.000 A 
ATOM     18  C   UNL     1      44.941   5.640  11.117  0.00  0.00    +0.000 A 
ATOM     19  C   UNL     1      44.588   4.786  10.076  0.00  0.00    +0.000 A 
ATOM     20  C   UNL     1      44.756   3.415  10.244  0.00  0.00    +0.000 A 
ATOM     21  N   UNL     1      45.212   2.871  11.402  0.00  0.00    +0.000 NA
ATOM     22  C   UNL     1      45.547   3.720  12.394  0.00  0.00    +0.000 A 
BRANCH  20  23
ATOM     23  C   UNL     1      44.485   2.464   9.105  0.00  0.00    +0.000 C 
BRANCH  23  24
ATOM     24  C   UNL     1      45.608   2.367   8.104  0.00  0.00    +0.000 A 
ATOM     25  C   UNL     1      45.850   3.379   7.172  0.00  0.00    +0.000 A 
ATOM     26  C   UNL     1      46.838   3.206   6.205  0.00  0.00    +0.000 A 
ATOM     27  C   UNL     1      47.563   2.027   6.209  0.00  0.00    +0.000 A 
ATOM     28  N   UNL     1      47.383   1.041   7.112  0.00  0.00    +0.000 NA
ATOM     29  C   UNL     1      46.416   1.232   8.039  0.00  0.00    +0.000 A 
ENDBRANCH  23  24
ENDBRANCH  20  23
ENDBRANCH  16  17
ENDBRANCH   2  16
TORSDOF 5
ENDMDL
MODEL 4
REMARK VINA RESULT:    -6.995      3.618      8.092
REMARK INTER + INTRA:         -10.209
REMARK INTER:                  -9.184
REMARK INTRA:                  -1.024
REMARK UNBOUND:                -1.169
REMARK  Name = 
REMARK  6 active torsions:
REMARK  status: ('A' for Active; 'I' for Inactive)
REMARK    1  A    between atoms: C_1  and  N_2
REMARK    2  A    between atoms: N_2  and  C_3
REMARK    3  A    between atoms: C_3  and  C_4
REMARK    4  A    between atoms: C_7  and  C_8
REMARK    5  A    between atoms: C_8  and  C_9
REMARK    6  A    between atoms: C_17  and  C_19
REMARK                            x       y       z     vdW  Elec       q    Type
REMARK                         _______ _______ _______ _____ _____    ______ ____
ROOT
ATOM      1  C   UNL     1      49.413   7.144  12.482  0.00  0.00    +0.000 C 
ATOM      2  N   UNL     1      48.859   7.449  13.800  0.00  0.00    +0.000 N 
ATOM      3  C   UNL     1      49.803   7.570  14.839  0.00  0.00    +0.000 C 
ATOM      4  O   UNL     1      51.003   7.420  14.624  0.00  0.00    +0.000 OA
ENDROOT
BRANCH   3   5
ATOM      5  C   UNL     1      49.341   7.839  16.204  0.00  0.00    +0.000 A 
ATOM      6  C   UNL     1      49.407   9.075  16.827  0.00  0.00    +0.000 A 
ATOM      7  S   UNL     1      48.709   9.094  18.384  0.00  0.00    +0.000 S 
ATOM      8  C   UNL     1      48.169   7.490  18.218  0.00  0.00    +0.000 A 
ATOM      9  N   UNL     1      47.389   6.908  19.165  0.00  0.00    +0.000 NA
ATOM     10  C   UNL     1      46.995   5.716  18.870  0.00  0.00    +0.000 A 
ATOM     11  N   UNL     1      47.338   5.037  17.727  0.00  0.00    +0.000 N 
ATOM     12  C   UNL     1      48.241   5.530  16.807  0.00  0.00    +0.000 A 
ATOM     13  O   UNL     1      48.720   4.809  15.942  0.00  0.00    +0.000 OA
ATOM     14  C   UNL     1      48.606   6.917  17.035  0.00  0.00    +0.000 A 
ATOM     15  H   UNL     1      47.052   4.081  17.590  0.00  0.00    +0.000 HD
ENDBRANCH   3   5
BRANCH   2  16
ATOM     16  C   UNL     1      47.441   7.808  13.943  0.00  0.00    +0.000 C 
BRANCH  16  17
ATOM     17  C   UNL     1      46.468   7.058  13.080  0.00  0.00    +0.000 A 
ATOM     18  C   UNL     1      45.717   7.709  12.104  0.00  0.00    +0.000 A 
ATOM     19  C   UNL     1      44.910   6.962  11.251  0.00  0.00    +0.000 A 
ATOM     20  C   UNL     1      44.872   5.578  11.399  0.00  0.00    +0.000 A 
ATOM     21  N   UNL     1      45.562   4.929  12.372  0.00  0.00    +0.000 NA
ATOM     22  C   UNL     1      46.337   5.676  13.185  0.00  0.00    +0.000 A 
BRANCH  20  23
ATOM     23  C   UNL     1      44.093   4.725  10.431  0.00  0.00    +0.000 C 
BRANCH  23  24
ATOM     24  C   UNL     1      44.954   3.924   9.487  0.00  0.00    +0.000 A 
ATOM     25  C   UNL     1      45.713   4.537   8.487  0.00  0.00    +0.000 A 
ATOM     26  C   UNL     1      46.418   3.754   7.576  0.00  0.00    +0.000 A 
ATOM     27  C   UNL     1      46.351   2.377   7.703  0.00  0.00    +0.000 A 
ATOM     28  N   UNL     1      45.658   1.747   8.674  0.00  0.00    +0.000 NA
ATOM     29  C   UNL     1      44.979   2.531   9.544  0.00  0.00    +0.000 A 
ENDBRANCH  23  24
ENDBRANCH  20  23
ENDBRANCH  16  17
ENDBRANCH   2  16
TORSDOF 5
ENDMDL
MODEL 5
REMARK VINA RESULT:    -6.984      3.883      8.015
REMARK INTER + INTRA:         -10.194
REMARK INTER:                  -9.294
REMARK INTRA:                  -0.900
REMARK UNBOUND:                -1.169
REMARK  Name = 
REMARK  6 active torsions:
REMARK  status: ('A' for Active; 'I' for Inactive)
REMARK    1  A    between atoms: C_1  and  N_2
REMARK    2  A    between atoms: N_2  and  C_3
REMARK    3  A    between atoms: C_3  and  C_4
REMARK    4  A    between atoms: C_7  and  C_8
REMARK    5  A    between atoms: C_8  and  C_9
REMARK    6  A    between atoms: C_17  and  C_19
REMARK                            x       y       z     vdW  Elec       q    Type
REMARK                         _______ _______ _______ _____ _____    ______ ____
ROOT
ATOM      1  C   UNL     1      46.845   4.708  14.181  0.00  0.00    +0.000 C 
ATOM      2  N   UNL     1      47.077   6.142  14.017  0.00  0.00    +0.000 N 
ATOM      3  C   UNL     1      48.267   6.631  14.591  0.00  0.00    +0.000 C 
ATOM      4  O   UNL     1      49.036   5.882  15.188  0.00  0.00    +0.000 OA
ENDROOT
BRANCH   3   5
ATOM      5  C   UNL     1      48.570   8.063  14.510  0.00  0.00    +0.000 A 
ATOM      6  C   UNL     1      48.282   8.985  15.502  0.00  0.00    +0.000 A 
ATOM      7  S   UNL     1      48.838  10.561  15.155  0.00  0.00    +0.000 S 
ATOM      8  C   UNL     1      49.606  10.031  13.733  0.00  0.00    +0.000 A 
ATOM      9  N   UNL     1      50.377  10.871  12.995  0.00  0.00    +0.000 NA
ATOM     10  C   UNL     1      50.956  10.313  11.987  0.00  0.00    +0.000 A 
ATOM     11  N   UNL     1      50.808   8.996  11.627  0.00  0.00    +0.000 N 
ATOM     12  C   UNL     1      49.926   8.143  12.259  0.00  0.00    +0.000 A 
ATOM     13  O   UNL     1      49.625   7.065  11.766  0.00  0.00    +0.000 OA
ATOM     14  C   UNL     1      49.354   8.694  13.475  0.00  0.00    +0.000 A 
ATOM     15  H   UNL     1      51.234   8.640  10.786  0.00  0.00    +0.000 HD
ENDBRANCH   3   5
BRANCH   2  16
ATOM     16  C   UNL     1      46.217   6.934  13.126  0.00  0.00    +0.000 C 
BRANCH  16  17
ATOM     17  C   UNL     1      45.720   6.248  11.887  0.00  0.00    +0.000 A 
ATOM     18  C   UNL     1      46.431   6.313  10.691  0.00  0.00    +0.000 A 
ATOM     19  C   UNL     1      45.995   5.572   9.595  0.00  0.00    +0.000 A 
ATOM     20  C   UNL     1      44.855   4.785   9.725  0.00  0.00    +0.000 A 
ATOM     21  N   UNL     1      44.124   4.742  10.869  0.00  0.00    +0.000 NA
ATOM     22  C   UNL     1      44.568   5.468  11.915  0.00  0.00    +0.000 A 
BRANCH  20  23
ATOM     23  C   UNL     1      44.411   3.888   8.597  0.00  0.00    +0.000 C 
BRANCH  23  24
ATOM     24  C   UNL     1      45.501   3.002   8.050  0.00  0.00    +0.000 A 
ATOM     25  C   UNL     1      46.309   3.405   6.984  0.00  0.00    +0.000 A 
ATOM     26  C   UNL     1      47.239   2.519   6.448  0.00  0.00    +0.000 A 
ATOM     27  C   UNL     1      47.341   1.256   7.006  0.00  0.00    +0.000 A 
ATOM     28  N   UNL     1      46.604   0.839   8.056  0.00  0.00    +0.000 NA
ATOM     29  C   UNL     1      45.706   1.719   8.556  0.00  0.00    +0.000 A 
ENDBRANCH  23  24
ENDBRANCH  20  23
ENDBRANCH  16  17
ENDBRANCH   2  16
TORSDOF 5
ENDMDL
MODEL 6
REMARK VINA RESULT:    -6.744      3.014      7.976
REMARK INTER + INTRA:          -9.884
REMARK INTER:                  -8.901
REMARK INTRA:                  -0.983
REMARK UNBOUND:                -1.169
REMARK  Name = 
REMARK  6 active torsions:
REMARK  status: ('A' for Active; 'I' for Inactive)
REMARK    1  A    between atoms: C_1  and  N_2
REMARK    2  A    between atoms: N_2  and  C_3
REMARK    3  A    between atoms: C_3  and  C_4
REMARK    4  A    between atoms: C_7  and  C_8
REMARK    5  A    between atoms: C_8  and  C_9
REMARK    6  A    between atoms: C_17  and  C_19
REMARK                            x       y       z     vdW  Elec       q    Type
REMARK                         _______ _______ _______ _____ _____    ______ ____
ROOT
ATOM      1  C   UNL     1      48.842   8.826  15.763  0.00  0.00    +0.000 C 
ATOM      2  N   UNL     1      48.800   7.367  15.861  0.00  0.00    +0.000 N 
ATOM      3  C   UNL     1      48.464   6.856  17.129  0.00  0.00    +0.000 C 
ATOM      4  O   UNL     1      48.231   7.606  18.073  0.00  0.00    +0.000 OA
ENDROOT
BRANCH   3   5
ATOM      5  C   UNL     1      48.431   5.405  17.336  0.00  0.00    +0.000 A 
ATOM      6  C   UNL     1      47.285   4.628  17.282  0.00  0.00    +0.000 A 
ATOM      7  S   UNL     1      47.580   2.958  17.475  0.00  0.00    +0.000 S 
ATOM      8  C   UNL     1      49.263   3.206  17.493  0.00  0.00    +0.000 A 
ATOM      9  N   UNL     1      50.128   2.159  17.521  0.00  0.00    +0.000 NA
ATOM     10  C   UNL     1      51.371   2.496  17.456  0.00  0.00    +0.000 A 
ATOM     11  N   UNL     1      51.832   3.788  17.399  0.00  0.00    +0.000 N 
ATOM     12  C   UNL     1      51.001   4.884  17.512  0.00  0.00    +0.000 A 
ATOM     13  O   UNL     1      51.453   6.002  17.715  0.00  0.00    +0.000 OA
ATOM     14  C   UNL     1      49.588   4.552  17.457  0.00  0.00    +0.000 A 
ATOM     15  H   UNL     1      52.820   3.984  17.420  0.00  0.00    +0.000 HD
ENDBRANCH   3   5
BRANCH   2  16
ATOM     16  C   UNL     1      48.896   6.541  14.649  0.00  0.00    +0.000 C 
BRANCH  16  17
ATOM     17  C   UNL     1      47.618   6.295  13.901  0.00  0.00    +0.000 A 
ATOM     18  C   UNL     1      46.971   7.323  13.218  0.00  0.00    +0.000 A 
ATOM     19  C   UNL     1      45.850   7.032  12.446  0.00  0.00    +0.000 A 
ATOM     20  C   UNL     1      45.402   5.716  12.378  0.00  0.00    +0.000 A 
ATOM     21  N   UNL     1      45.992   4.708  13.071  0.00  0.00    +0.000 NA
ATOM     22  C   UNL     1      47.076   5.016  13.812  0.00  0.00    +0.000 A 
BRANCH  20  23
ATOM     23  C   UNL     1      44.257   5.342  11.472  0.00  0.00    +0.000 C 
BRANCH  23  24
ATOM     24  C   UNL     1      44.667   4.541  10.262  0.00  0.00    +0.000 A 
ATOM     25  C   UNL     1      44.318   3.196  10.120  0.00  0.00    +0.000 A 
ATOM     26  C   UNL     1      44.798   2.468   9.034  0.00  0.00    +0.000 A 
ATOM     27  C   UNL     1      45.605   3.116   8.114  0.00  0.00    +0.000 A 
ATOM     28  N   UNL     1      45.937   4.421   8.196  0.00  0.00    +0.000 NA
ATOM     29  C   UNL     1      45.460   5.104   9.262  0.00  0.00    +0.000 A 
ENDBRANCH  23  24
ENDBRANCH  20  23
ENDBRANCH  16  17
ENDBRANCH   2  16
TORSDOF 5
ENDMDL
MODEL 7
REMARK VINA RESULT:    -6.743      3.507      8.390
REMARK INTER + INTRA:          -9.883
REMARK INTER:                  -8.765
REMARK INTRA:                  -1.118
REMARK UNBOUND:                -1.169
REMARK  Name = 
REMARK  6 active torsions:
REMARK  status: ('A' for Active; 'I' for Inactive)
REMARK    1  A    between atoms: C_1  and  N_2
REMARK    2  A    between atoms: N_2  and  C_3
REMARK    3  A    between atoms: C_3  and  C_4
REMARK    4  A    between atoms: C_7  and  C_8
REMARK    5  A    between atoms: C_8  and  C_9
REMARK    6  A    between atoms: C_17  and  C_19
REMARK                            x       y       z     vdW  Elec       q    Type
REMARK                         _______ _______ _______ _____ _____    ______ ____
ROOT
ATOM      1  C   UNL     1      49.788   7.758  12.975  0.00  0.00    +0.000 C 
ATOM      2  N   UNL     1      48.961   7.322  14.100  0.00  0.00    +0.000 N 
ATOM      3  C   UNL     1      49.665   6.988  15.273  0.00  0.00    +0.000 C 
ATOM      4  O   UNL     1      50.890   7.063  15.320  0.00  0.00    +0.000 OA
ENDROOT
BRANCH   3   5
ATOM      5  C   UNL     1      48.926   6.505  16.444  0.00  0.00    +0.000 A 
ATOM      6  C   UNL     1      48.686   5.171  16.727  0.00  0.00    +0.000 A 
ATOM      7  S   UNL     1      47.877   4.920  18.208  0.00  0.00    +0.000 S 
ATOM      8  C   UNL     1      47.947   6.577  18.586  0.00  0.00    +0.000 A 
ATOM      9  N   UNL     1      47.523   7.043  19.789  0.00  0.00    +0.000 NA
ATOM     10  C   UNL     1      47.705   8.307  19.963  0.00  0.00    +0.000 A 
ATOM     11  N   UNL     1      48.244   9.158  19.030  0.00  0.00    +0.000 N 
ATOM     12  C   UNL     1      48.556   8.759  17.746  0.00  0.00    +0.000 A 
ATOM     13  O   UNL     1      48.789   9.578  16.867  0.00  0.00    +0.000 OA
ATOM     14  C   UNL     1      48.487   7.321  17.550  0.00  0.00    +0.000 A 
ATOM     15  H   UNL     1      48.295  10.149  19.204  0.00  0.00    +0.000 HD
ENDBRANCH   3   5
BRANCH   2  16
ATOM     16  C   UNL     1      47.498   7.446  14.035  0.00  0.00    +0.000 C 
BRANCH  16  17
ATOM     17  C   UNL     1      46.792   6.558  13.053  0.00  0.00    +0.000 A 
ATOM     18  C   UNL     1      46.570   5.210  13.327  0.00  0.00    +0.000 A 
ATOM     19  C   UNL     1      45.815   4.447  12.441  0.00  0.00    +0.000 A 
ATOM     20  C   UNL     1      45.301   5.053  11.299  0.00  0.00    +0.000 A 
ATOM     21  N   UNL     1      45.542   6.354  10.991  0.00  0.00    +0.000 NA
ATOM     22  C   UNL     1      46.276   7.071  11.866  0.00  0.00    +0.000 A 
BRANCH  20  23
ATOM     23  C   UNL     1      44.392   4.290  10.369  0.00  0.00    +0.000 C 
BRANCH  23  24
ATOM     24  C   UNL     1      45.110   3.607   9.232  0.00  0.00    +0.000 A 
ATOM     25  C   UNL     1      45.280   2.220   9.199  0.00  0.00    +0.000 A 
ATOM     26  C   UNL     1      46.031   1.641   8.179  0.00  0.00    +0.000 A 
ATOM     27  C   UNL     1      46.580   2.468   7.215  0.00  0.00    +0.000 A 
ATOM     28  N   UNL     1      46.412   3.806   7.192  0.00  0.00    +0.000 NA
ATOM     29  C   UNL     1      45.680   4.345   8.195  0.00  0.00    +0.000 A 
ENDBRANCH  23  24
ENDBRANCH  20  23
ENDBRANCH  16  17
ENDBRANCH   2  16
TORSDOF 5
ENDMDL
MODEL 8
REMARK VINA RESULT:    -6.395      3.592      5.373
REMARK INTER + INTRA:          -9.433
REMARK INTER:                  -8.621
REMARK INTRA:                  -0.812
REMARK UNBOUND:                -1.169
REMARK  Name = 
REMARK  6 active torsions:
REMARK  status: ('A' for Active; 'I' for Inactive)
REMARK    1  A    between atoms: C_1  and  N_2
REMARK    2  A    between atoms: N_2  and  C_3
REMARK    3  A    between atoms: C_3  and  C_4
REMARK    4  A    between atoms: C_7  and  C_8
REMARK    5  A    between atoms: C_8  and  C_9
REMARK    6  A    between atoms: C_17  and  C_19
REMARK                            x       y       z     vdW  Elec       q    Type
REMARK                         _______ _______ _______ _____ _____    ______ ____
ROOT
ATOM      1  C   UNL     1      45.265   8.595  12.522  0.00  0.00    +0.000 C 
ATOM      2  N   UNL     1      45.277   7.138  12.393  0.00  0.00    +0.000 N 
ATOM      3  C   UNL     1      44.237   6.593  11.614  0.00  0.00    +0.000 C 
ATOM      4  O   UNL     1      43.390   7.314  11.095  0.00  0.00    +0.000 OA
ENDROOT
BRANCH   3   5
ATOM      5  C   UNL     1      44.143   5.138  11.456  0.00  0.00    +0.000 A 
ATOM      6  C   UNL     1      43.384   4.307  12.263  0.00  0.00    +0.000 A 
ATOM      7  S   UNL     1      43.405   2.672  11.774  0.00  0.00    +0.000 S 
ATOM      8  C   UNL     1      44.313   3.046  10.386  0.00  0.00    +0.000 A 
ATOM      9  N   UNL     1      44.591   2.101   9.451  0.00  0.00    +0.000 NA
ATOM     10  C   UNL     1      45.223   2.545   8.418  0.00  0.00    +0.000 A 
ATOM     11  N   UNL     1      45.633   3.844   8.248  0.00  0.00    +0.000 N 
ATOM     12  C   UNL     1      45.500   4.805   9.229  0.00  0.00    +0.000 A 
ATOM     13  O   UNL     1      46.094   5.872   9.156  0.00  0.00    +0.000 OA
ATOM     14  C   UNL     1      44.681   4.381  10.352  0.00  0.00    +0.000 A 
ATOM     15  H   UNL     1      46.184   4.111   7.447  0.00  0.00    +0.000 HD
ENDBRANCH   3   5
BRANCH   2  16
ATOM     16  C   UNL     1      46.427   6.361  12.875  0.00  0.00    +0.000 C 
BRANCH  16  17
ATOM     17  C   UNL     1      47.775   7.007  12.746  0.00  0.00    +0.000 A 
ATOM     18  C   UNL     1      48.653   7.071  13.826  0.00  0.00    +0.000 A 
ATOM     19  C   UNL     1      49.935   7.578  13.637  0.00  0.00    +0.000 A 
ATOM     20  C   UNL     1      50.308   8.012  12.368  0.00  0.00    +0.000 A 
ATOM     21  N   UNL     1      49.453   7.999  11.313  0.00  0.00    +0.000 NA
ATOM     22  C   UNL     1      48.217   7.503  11.522  0.00  0.00    +0.000 A 
BRANCH  20  23
ATOM     23  C   UNL     1      51.719   8.469  12.098  0.00  0.00    +0.000 C 
BRANCH  23  24
ATOM     24  C   UNL     1      52.153   8.311  10.663  0.00  0.00    +0.000 A 
ATOM     25  C   UNL     1      52.375   7.052  10.099  0.00  0.00    +0.000 A 
ATOM     26  C   UNL     1      52.867   6.955   8.799  0.00  0.00    +0.000 A 
ATOM     27  C   UNL     1      53.110   8.124   8.099  0.00  0.00    +0.000 A 
ATOM     28  N   UNL     1      52.877   9.356   8.595  0.00  0.00    +0.000 NA
ATOM     29  C   UNL     1      52.402   9.423   9.861  0.00  0.00    +0.000 A 
ENDBRANCH  23  24
ENDBRANCH  20  23
ENDBRANCH  16  17
ENDBRANCH   2  16
TORSDOF 5
ENDMDL
MODEL 9
REMARK VINA RESULT:    -6.299      3.471      7.899
REMARK INTER + INTRA:          -9.309
REMARK INTER:                  -8.098
REMARK INTRA:                  -1.211
REMARK UNBOUND:                -1.169
REMARK  Name = 
REMARK  6 active torsions:
REMARK  status: ('A' for Active; 'I' for Inactive)
REMARK    1  A    between atoms: C_1  and  N_2
REMARK    2  A    between atoms: N_2  and  C_3
REMARK    3  A    between atoms: C_3  and  C_4
REMARK    4  A    between atoms: C_7  and  C_8
REMARK    5  A    between atoms: C_8  and  C_9
REMARK    6  A    between atoms: C_17  and  C_19
REMARK                            x       y       z     vdW  Elec       q    Type
REMARK                         _______ _______ _______ _____ _____    ______ ____
ROOT
ATOM      1  C   UNL     1      47.866   9.258  17.919  0.00  0.00    +0.000 C 
ATOM      2  N   UNL     1      48.819   8.238  17.483  0.00  0.00    +0.000 N 
ATOM      3  C   UNL     1      48.913   7.105  18.315  0.00  0.00    +0.000 C 
ATOM      4  O   UNL     1      48.232   7.009  19.333  0.00  0.00    +0.000 OA
ENDROOT
BRANCH   3   5
ATOM      5  C   UNL     1      49.867   6.043  17.981  0.00  0.00    +0.000 A 
ATOM      6  C   UNL     1      51.229   6.104  18.229  0.00  0.00    +0.000 A 
ATOM      7  S   UNL     1      52.065   4.676  17.810  0.00  0.00    +0.000 S 
ATOM      8  C   UNL     1      50.613   3.881  17.418  0.00  0.00    +0.000 A 
ATOM      9  N   UNL     1      50.600   2.565  17.083  0.00  0.00    +0.000 NA
ATOM     10  C   UNL     1      49.423   2.079  16.884  0.00  0.00    +0.000 A 
ATOM     11  N   UNL     1      48.255   2.797  16.956  0.00  0.00    +0.000 N 
ATOM     12  C   UNL     1      48.229   4.163  17.151  0.00  0.00    +0.000 A 
ATOM     13  O   UNL     1      47.209   4.811  16.956  0.00  0.00    +0.000 OA
ATOM     14  C   UNL     1      49.520   4.726  17.506  0.00  0.00    +0.000 A 
ATOM     15  H   UNL     1      47.372   2.372  16.721  0.00  0.00    +0.000 HD
ENDBRANCH   3   5
BRANCH   2  16
ATOM     16  C   UNL     1      49.450   8.330  16.159  0.00  0.00    +0.000 C 
BRANCH  16  17
ATOM     17  C   UNL     1      48.626   7.874  14.990  0.00  0.00    +0.000 A 
ATOM     18  C   UNL     1      47.727   8.731  14.360  0.00  0.00    +0.000 A 
ATOM     19  C   UNL     1      47.065   8.306  13.212  0.00  0.00    +0.000 A 
ATOM     20  C   UNL     1      47.319   7.028  12.723  0.00  0.00    +0.000 A 
ATOM     21  N   UNL     1      48.158   6.160  13.347  0.00  0.00    +0.000 NA
ATOM     22  C   UNL     1      48.787   6.598  14.457  0.00  0.00    +0.000 A 
BRANCH  20  23
ATOM     23  C   UNL     1      46.703   6.567  11.426  0.00  0.00    +0.000 C 
BRANCH  23  24
ATOM     24  C   UNL     1      45.387   5.850  11.591  0.00  0.00    +0.000 A 
ATOM     25  C   UNL     1      44.671   5.896  12.790  0.00  0.00    +0.000 A 
ATOM     26  C   UNL     1      43.509   5.142  12.931  0.00  0.00    +0.000 A 
ATOM     27  C   UNL     1      43.092   4.371  11.860  0.00  0.00    +0.000 A 
ATOM     28  N   UNL     1      43.735   4.324  10.675  0.00  0.00    +0.000 NA
ATOM     29  C   UNL     1      44.863   5.064  10.565  0.00  0.00    +0.000 A 
ENDBRANCH  23  24
ENDBRANCH  20  23
ENDBRANCH  16  17
ENDBRANCH   2  16
TORSDOF 5
ENDMDL
