MODEL 1
REMARK VINA RESULT:    -7.842      0.000      0.000
REMARK INTER + INTRA:         -11.853
REMARK INTER:                 -10.822
REMARK INTRA:                  -1.031
REMARK UNBOUND:                -1.031
REMARK  Name = 
REMARK  7 active torsions:
REMARK  status: ('A' for Active; 'I' for Inactive)
REMARK    1  A    between atoms: C_2  and  C_19
REMARK    2  A    between atoms: N_3  and  C_4
REMARK    3  A    between atoms: C_4  and  C_5
REMARK    4  A    between atoms: C_8  and  C_9
REMARK    5  A    between atoms: C_9  and  O_10
REMARK    6  A    between atoms: C_9  and  C_11
REMARK    7  A    between atoms: C_11  and  C_12
REMARK                            x       y       z     vdW  Elec       q    Type
REMARK                         _______ _______ _______ _____ _____    ______ ____
ROOT
ATOM      1  C   UNL     1      46.737   8.213  13.167  0.00  0.00    +0.000 C 
ENDROOT
BRANCH   1   2
ATOM      2  C   UNL     1      46.092   6.975  12.570  0.00  0.00    +0.000 A 
ATOM      3  N   UNL     1      46.559   6.537  11.388  0.00  0.00    +0.000 NA
ATOM      4  C   UNL     1      45.843   5.579  10.763  0.00  0.00    +0.000 A 
ATOM      5  C   UNL     1      44.678   5.028  11.258  0.00  0.00    +0.000 A 
ATOM      6  C   UNL     1      44.300   5.535  12.488  0.00  0.00    +0.000 A 
ATOM      7  N   UNL     1      44.964   6.510  13.149  0.00  0.00    +0.000 NA
BRANCH   5   8
ATOM      8  C   UNL     1      43.835   4.004  10.543  0.00  0.00    +0.000 C 
BRANCH   8   9
ATOM      9  O   UNL     1      42.713   3.656  11.354  0.00  0.00    +0.000 OA
ATOM     10  H   UNL     1      42.037   3.244  10.788  0.00  0.00    +0.000 HD
ENDBRANCH   8   9
BRANCH   8  11
ATOM     11  C   UNL     1      44.573   2.709  10.135  0.00  0.00    +0.000 C 
BRANCH  11  12
ATOM     12  C   UNL     1      44.611   2.428   8.619  0.00  0.00    +0.000 C 
ATOM     13  C   UNL     1      45.866   1.647   8.235  0.00  0.00    +0.000 C 
ATOM     14  C   UNL     1      46.846   2.687   7.731  0.00  0.00    +0.000 C 
ATOM     15  N   UNL     1      46.055   3.815   7.245  0.00  0.00    +0.000 NA
ATOM     16  C   UNL     1      44.684   3.675   7.741  0.00  0.00    +0.000 C 
ATOM     17  H   UNL     1      46.042   3.808   6.224  0.00  0.00    +0.000 HD
ENDBRANCH  11  12
ENDBRANCH   8  11
ENDBRANCH   5   8
ENDBRANCH   1   2
BRANCH   1  20
ATOM     18  O   UNL     1      49.058   6.571  13.622  0.00  0.00    +0.000 OA
ATOM     19  C   UNL     1      48.436   7.050  14.564  0.00  0.00    +0.000 C 
ATOM     20  N   UNL     1      47.360   7.888  14.434  0.00  0.00    +0.000 N 
ATOM     21  H   UNL     1      46.780   8.060  15.245  0.00  0.00    +0.000 HD
BRANCH  19  22
ATOM     22  C   UNL     1      48.610   6.624  15.947  0.00  0.00    +0.000 A 
ATOM     23  C   UNL     1      49.241   7.402  16.899  0.00  0.00    +0.000 A 
ATOM     24  S   UNL     1      49.758   6.466  18.241  0.00  0.00    +0.000 S 
ATOM     25  C   UNL     1      49.027   5.057  17.615  0.00  0.00    +0.000 A 
ATOM     26  N   UNL     1      49.188   3.833  18.185  0.00  0.00    +0.000 NA
ATOM     27  C   UNL     1      48.520   2.887  17.608  0.00  0.00    +0.000 A 
ATOM     28  N   UNL     1      47.668   3.061  16.543  0.00  0.00    +0.000 N 
ATOM     29  C   UNL     1      47.456   4.283  15.949  0.00  0.00    +0.000 A 
ATOM     30  O   UNL     1      46.621   4.440  15.068  0.00  0.00    +0.000 OA
ATOM     31  C   UNL     1      48.290   5.337  16.485  0.00  0.00    +0.000 A 
ATOM     32  H   UNL     1      47.105   2.298  16.198  0.00  0.00    +0.000 HD
ENDBRANCH  19  22
ENDBRANCH   1  20
TORSDOF 7
ENDMDL
MODEL 2
REMARK VINA RESULT:    -7.254      3.084      8.215
REMARK INTER + INTRA:         -11.042
REMARK INTER:                 -10.252
REMARK INTRA:                  -0.790
REMARK UNBOUND:                -1.031
REMARK  Name = 
REMARK  7 active torsions:
REMARK  status: ('A' for Active; 'I' for Inactive)
REMARK    1  A    between atoms: C_2  and  C_19
REMARK    2  A    between atoms: N_3  and  C_4
REMARK    3  A    between atoms: C_4  and  C_5
REMARK    4  A    between atoms: C_8  and  C_9
REMARK    5  A    between atoms: C_9  and  O_10
REMARK    6  A    between atoms: C_9  and  C_11
REMARK    7  A    between atoms: C_11  and  C_12
REMARK                            x       y       z     vdW  Elec       q    Type
REMARK                         _______ _______ _______ _____ _____    ______ ____
ROOT
ATOM      1  C   UNL     1      47.603   6.448  13.197  0.00  0.00    +0.000 C 
ENDROOT
BRANCH   1   2
ATOM      2  C   UNL     1      47.775   5.847  14.581  0.00  0.00    +0.000 A 
ATOM      3  N   UNL     1      48.654   6.434  15.412  0.00  0.00    +0.000 NA
ATOM      4  C   UNL     1      48.961   5.772  16.546  0.00  0.00    +0.000 A 
ATOM      5  C   UNL     1      48.435   4.546  16.902  0.00  0.00    +0.000 A 
ATOM      6  C   UNL     1      47.527   4.043  15.987  0.00  0.00    +0.000 A 
ATOM      7  N   UNL     1      47.198   4.650  14.824  0.00  0.00    +0.000 NA
BRANCH   5   8
ATOM      8  C   UNL     1      48.816   3.766  18.133  0.00  0.00    +0.000 C 
BRANCH   8   9
ATOM      9  O   UNL     1      47.980   4.153  19.223  0.00  0.00    +0.000 OA
ATOM     10  H   UNL     1      48.394   4.905  19.680  0.00  0.00    +0.000 HD
ENDBRANCH   8   9
BRANCH   8  11
ATOM     11  C   UNL     1      50.292   3.896  18.568  0.00  0.00    +0.000 C 
BRANCH  11  12
ATOM     12  C   UNL     1      51.320   3.304  17.583  0.00  0.00    +0.000 C 
ATOM     13  C   UNL     1      50.847   1.958  17.037  0.00  0.00    +0.000 C 
ATOM     14  C   UNL     1      51.551   0.915  17.881  0.00  0.00    +0.000 C 
ATOM     15  N   UNL     1      52.772   1.533  18.389  0.00  0.00    +0.000 NA
ATOM     16  C   UNL     1      52.680   2.982  18.197  0.00  0.00    +0.000 C 
ATOM     17  H   UNL     1      53.576   1.178  17.868  0.00  0.00    +0.000 HD
ENDBRANCH  11  12
ENDBRANCH   8  11
ENDBRANCH   5   8
ENDBRANCH   1   2
BRANCH   1  20
ATOM     18  O   UNL     1      45.411   7.241  11.507  0.00  0.00    +0.000 OA
ATOM     19  C   UNL     1      45.694   6.056  11.651  0.00  0.00    +0.000 C 
ATOM     20  N   UNL     1      46.755   5.598  12.387  0.00  0.00    +0.000 N 
ATOM     21  H   UNL     1      46.787   4.617  12.630  0.00  0.00    +0.000 HD
BRANCH  19  22
ATOM     22  C   UNL     1      44.820   4.963  11.247  0.00  0.00    +0.000 A 
ATOM     23  C   UNL     1      43.800   4.481  12.046  0.00  0.00    +0.000 A 
ATOM     24  S   UNL     1      43.306   2.910  11.565  0.00  0.00    +0.000 S 
ATOM     25  C   UNL     1      44.354   2.929  10.218  0.00  0.00    +0.000 A 
ATOM     26  N   UNL     1      44.550   1.839   9.429  0.00  0.00    +0.000 NA
ATOM     27  C   UNL     1      45.338   2.049   8.423  0.00  0.00    +0.000 A 
ATOM     28  N   UNL     1      45.908   3.259   8.108  0.00  0.00    +0.000 N 
ATOM     29  C   UNL     1      45.719   4.392   8.864  0.00  0.00    +0.000 A 
ATOM     30  O   UNL     1      46.152   5.483   8.517  0.00  0.00    +0.000 OA
ATOM     31  C   UNL     1      44.952   4.161  10.069  0.00  0.00    +0.000 A 
ATOM     32  H   UNL     1      46.438   3.378   7.258  0.00  0.00    +0.000 HD
ENDBRANCH  19  22
ENDBRANCH   1  20
TORSDOF 7
ENDMDL
MODEL 3
REMARK VINA RESULT:    -7.143      4.032      8.538
REMARK INTER + INTRA:         -10.888
REMARK INTER:                 -10.473
REMARK INTRA:                  -0.416
REMARK UNBOUND:                -1.031
REMARK  Name = 
REMARK  7 active torsions:
REMARK  status: ('A' for Active; 'I' for Inactive)
REMARK    1  A    between atoms: C_2  and  C_19
REMARK    2  A    between atoms: N_3  and  C_4
REMARK    3  A    between atoms: C_4  and  C_5
REMARK    4  A    between atoms: C_8  and  C_9
REMARK    5  A    between atoms: C_9  and  O_10
REMARK    6  A    between atoms: C_9  and  C_11
REMARK    7  A    between atoms: C_11  and  C_12
REMARK                            x       y       z     vdW  Elec       q    Type
REMARK                         _______ _______ _______ _____ _____    ______ ____
ROOT
ATOM      1  C   UNL     1      47.520   4.830  16.715  0.00  0.00    +0.000 C 
ENDROOT
BRANCH   1   2
ATOM      2  C   UNL     1      48.743   3.930  16.732  0.00  0.00    +0.000 A 
ATOM      3  N   UNL     1      48.575   2.642  16.388  0.00  0.00    +0.000 NA
ATOM      4  C   UNL     1      49.609   1.807  16.616  0.00  0.00    +0.000 A 
ATOM      5  C   UNL     1      50.814   2.190  17.172  0.00  0.00    +0.000 A 
ATOM      6  C   UNL     1      50.887   3.539  17.468  0.00  0.00    +0.000 A 
ATOM      7  N   UNL     1      49.876   4.417  17.282  0.00  0.00    +0.000 NA
BRANCH   5   8
ATOM      8  C   UNL     1      51.954   1.258  17.490  0.00  0.00    +0.000 C 
BRANCH   8   9
ATOM      9  O   UNL     1      51.463   0.126  18.208  0.00  0.00    +0.000 OA
ATOM     10  H   UNL     1      51.311   0.388  19.133  0.00  0.00    +0.000 HD
ENDBRANCH   8   9
BRANCH   8  11
ATOM     11  C   UNL     1      53.118   1.886  18.289  0.00  0.00    +0.000 C 
BRANCH  11  12
ATOM     12  C   UNL     1      54.477   1.173  18.136  0.00  0.00    +0.000 C 
ATOM     13  C   UNL     1      54.849   1.006  16.664  0.00  0.00    +0.000 C 
ATOM     14  C   UNL     1      54.442  -0.407  16.305  0.00  0.00    +0.000 C 
ATOM     15  N   UNL     1      54.460  -1.182  17.543  0.00  0.00    +0.000 NA
ATOM     16  C   UNL     1      54.511  -0.255  18.676  0.00  0.00    +0.000 C 
ATOM     17  H   UNL     1      55.291  -1.776  17.561  0.00  0.00    +0.000 HD
ENDBRANCH  11  12
ENDBRANCH   8  11
ENDBRANCH   5   8
ENDBRANCH   1   2
BRANCH   1  20
ATOM     18  O   UNL     1      48.595   6.295  14.482  0.00  0.00    +0.000 OA
ATOM     19  C   UNL     1      47.535   5.687  14.379  0.00  0.00    +0.000 C 
ATOM     20  N   UNL     1      46.986   4.919  15.371  0.00  0.00    +0.000 N 
ATOM     21  H   UNL     1      46.018   4.634  15.283  0.00  0.00    +0.000 HD
BRANCH  19  22
ATOM     22  C   UNL     1      46.602   5.871  13.275  0.00  0.00    +0.000 A 
ATOM     23  C   UNL     1      46.393   7.093  12.665  0.00  0.00    +0.000 A 
ATOM     24  S   UNL     1      44.913   7.123  11.796  0.00  0.00    +0.000 S 
ATOM     25  C   UNL     1      44.621   5.474  12.123  0.00  0.00    +0.000 A 
ATOM     26  N   UNL     1      43.454   4.858  11.793  0.00  0.00    +0.000 NA
ATOM     27  C   UNL     1      43.426   3.594  12.068  0.00  0.00    +0.000 A 
ATOM     28  N   UNL     1      44.474   2.880  12.598  0.00  0.00    +0.000 N 
ATOM     29  C   UNL     1      45.679   3.455  12.926  0.00  0.00    +0.000 A 
ATOM     30  O   UNL     1      46.635   2.789  13.303  0.00  0.00    +0.000 OA
ATOM     31  C   UNL     1      45.698   4.892  12.755  0.00  0.00    +0.000 A 
ATOM     32  H   UNL     1      44.420   1.877  12.703  0.00  0.00    +0.000 HD
ENDBRANCH  19  22
ENDBRANCH   1  20
TORSDOF 7
ENDMDL
MODEL 4
REMARK VINA RESULT:    -7.119      2.233      2.746
REMARK INTER + INTRA:         -10.855
REMARK INTER:                  -9.950
REMARK INTRA:                  -0.905
REMARK UNBOUND:                -1.031
REMARK  Name = 
REMARK  7 active torsions:
REMARK  status: ('A' for Active; 'I' for Inactive)
REMARK    1  A    between atoms: C_2  and  C_19
REMARK    2  A    between atoms: N_3  and  C_4
REMARK    3  A    between atoms: C_4  and  C_5
REMARK    4  A    between atoms: C_8  and  C_9
REMARK    5  A    between atoms: C_9  and  O_10
REMARK    6  A    between atoms: C_9  and  C_11
REMARK    7  A    between atoms: C_11  and  C_12
REMARK                            x       y       z     vdW  Elec       q    Type
REMARK                         _______ _______ _______ _____ _____    ______ ____
ROOT
ATOM      1  C   UNL     1      48.735   6.938  15.132  0.00  0.00    +0.000 C 
ENDROOT
BRANCH   1   2
ATOM      2  C   UNL     1      47.754   6.195  14.242  0.00  0.00    +0.000 A 
ATOM      3  N   UNL     1      46.965   6.926  13.437  0.00  0.00    +0.000 NA
ATOM      4  C   UNL     1      45.954   6.280  12.820  0.00  0.00    +0.000 A 
ATOM      5  C   UNL     1      45.687   4.933  12.960  0.00  0.00    +0.000 A 
ATOM      6  C   UNL     1      46.572   4.273  13.794  0.00  0.00    +0.000 A 
ATOM      7  N   UNL     1      47.587   4.872  14.457  0.00  0.00    +0.000 NA
BRANCH   5   8
ATOM      8  C   UNL     1      44.526   4.212  12.327  0.00  0.00    +0.000 C 
BRANCH   8   9
ATOM      9  O   UNL     1      43.658   3.713  13.344  0.00  0.00    +0.000 OA
ATOM     10  H   UNL     1      44.202   3.377  14.078  0.00  0.00    +0.000 HD
ENDBRANCH   8   9
BRANCH   8  11
ATOM     11  C   UNL     1      44.905   3.049  11.383  0.00  0.00    +0.000 C 
BRANCH  11  12
ATOM     12  C   UNL     1      44.191   3.055  10.017  0.00  0.00    +0.000 C 
ATOM     13  C   UNL     1      44.939   2.196   9.000  0.00  0.00    +0.000 C 
ATOM     14  C   UNL     1      45.776   3.167   8.194  0.00  0.00    +0.000 C 
ATOM     15  N   UNL     1      45.108   4.463   8.264  0.00  0.00    +0.000 NA
ATOM     16  C   UNL     1      44.117   4.423   9.342  0.00  0.00    +0.000 C 
ATOM     17  H   UNL     1      44.632   4.650   7.380  0.00  0.00    +0.000 HD
ENDBRANCH  11  12
ENDBRANCH   8  11
ENDBRANCH   5   8
ENDBRANCH   1   2
BRANCH   1  20
ATOM     18  O   UNL     1      48.531   6.899  18.004  0.00  0.00    +0.000 OA
ATOM     19  C   UNL     1      49.259   6.105  17.417  0.00  0.00    +0.000 C 
ATOM     20  N   UNL     1      49.367   6.017  16.055  0.00  0.00    +0.000 N 
ATOM     21  H   UNL     1      50.140   5.494  15.664  0.00  0.00    +0.000 HD
BRANCH  19  22
ATOM     22  C   UNL     1      50.273   5.297  18.082  0.00  0.00    +0.000 A 
ATOM     23  C   UNL     1      51.268   5.841  18.871  0.00  0.00    +0.000 A 
ATOM     24  S   UNL     1      52.581   4.754  19.076  0.00  0.00    +0.000 S 
ATOM     25  C   UNL     1      51.766   3.518  18.226  0.00  0.00    +0.000 A 
ATOM     26  N   UNL     1      52.360   2.340  17.900  0.00  0.00    +0.000 NA
ATOM     27  C   UNL     1      51.578   1.499  17.303  0.00  0.00    +0.000 A 
ATOM     28  N   UNL     1      50.245   1.711  17.045  0.00  0.00    +0.000 N 
ATOM     29  C   UNL     1      49.596   2.876  17.377  0.00  0.00    +0.000 A 
ATOM     30  O   UNL     1      48.388   3.011  17.231  0.00  0.00    +0.000 OA
ATOM     31  C   UNL     1      50.473   3.888  17.926  0.00  0.00    +0.000 A 
ATOM     32  H   UNL     1      49.667   0.978  16.659  0.00  0.00    +0.000 HD
ENDBRANCH  19  22
ENDBRANCH   1  20
TORSDOF 7
ENDMDL
MODEL 5
REMARK VINA RESULT:    -7.066      1.951      2.516
REMARK INTER + INTRA:         -10.782
REMARK INTER:                  -9.273
REMARK INTRA:                  -1.509
REMARK UNBOUND:                -1.031
REMARK  Name = 
REMARK  7 active torsions:
REMARK  status: ('A' for Active; 'I' for Inactive)
REMARK    1  A    between atoms: C_2  and  C_19
REMARK    2  A    between atoms: N_3  and  C_4
REMARK    3  A    between atoms: C_4  and  C_5
REMARK    4  A    between atoms: C_8  and  C_9
REMARK    5  A    between atoms: C_9  and  O_10
REMARK    6  A    between atoms: C_9  and  C_11
REMARK    7  A    between atoms: C_11  and  C_12
REMARK                            x       y       z     vdW  Elec       q    Type
REMARK                         _______ _______ _______ _____ _____    ______ ____
ROOT
ATOM      1  C   UNL     1      48.509   8.449  13.571  0.00  0.00    +0.000 C 
ENDROOT
BRANCH   1   2
ATOM      2  C   UNL     1      47.253   8.089  12.797  0.00  0.00    +0.000 A 
ATOM      3  N   UNL     1      46.132   8.778  13.073  0.00  0.00    +0.000 NA
ATOM      4  C   UNL     1      44.981   8.309  12.548  0.00  0.00    +0.000 A 
ATOM      5  C   UNL     1      44.886   7.183  11.755  0.00  0.00    +0.000 A 
ATOM      6  C   UNL     1      46.101   6.564  11.518  0.00  0.00    +0.000 A 
ATOM      7  N   UNL     1      47.280   6.974  12.036  0.00  0.00    +0.000 NA
BRANCH   5   8
ATOM      8  C   UNL     1      43.601   6.613  11.214  0.00  0.00    +0.000 C 
BRANCH   8   9
ATOM      9  O   UNL     1      42.666   7.667  10.987  0.00  0.00    +0.000 OA
ATOM     10  H   UNL     1      43.150   8.511  10.959  0.00  0.00    +0.000 HD
ENDBRANCH   8   9
BRANCH   8  11
ATOM     11  C   UNL     1      42.931   5.537  12.097  0.00  0.00    +0.000 C 
BRANCH  11  12
ATOM     12  C   UNL     1      42.984   4.102  11.533  0.00  0.00    +0.000 C 
ATOM     13  C   UNL     1      43.685   3.155  12.504  0.00  0.00    +0.000 C 
ATOM     14  C   UNL     1      45.110   3.049  12.002  0.00  0.00    +0.000 C 
ATOM     15  N   UNL     1      45.078   3.339  10.571  0.00  0.00    +0.000 NA
ATOM     16  C   UNL     1      43.789   3.952  10.245  0.00  0.00    +0.000 C 
ATOM     17  H   UNL     1      45.175   2.469  10.044  0.00  0.00    +0.000 HD
ENDBRANCH  11  12
ENDBRANCH   8  11
ENDBRANCH   5   8
ENDBRANCH   1   2
BRANCH   1  20
ATOM     18  O   UNL     1      50.459   6.963  15.080  0.00  0.00    +0.000 OA
ATOM     19  C   UNL     1      49.364   7.229  15.563  0.00  0.00    +0.000 C 
ATOM     20  N   UNL     1      48.405   7.981  14.937  0.00  0.00    +0.000 N 
ATOM     21  H   UNL     1      47.463   7.969  15.308  0.00  0.00    +0.000 HD
BRANCH  19  22
ATOM     22  C   UNL     1      48.841   6.603  16.771  0.00  0.00    +0.000 A 
ATOM     23  C   UNL     1      49.069   7.106  18.037  0.00  0.00    +0.000 A 
ATOM     24  S   UNL     1      48.803   5.921  19.249  0.00  0.00    +0.000 S 
ATOM     25  C   UNL     1      48.258   4.784  18.098  0.00  0.00    +0.000 A 
ATOM     26  N   UNL     1      47.987   3.491  18.419  0.00  0.00    +0.000 NA
ATOM     27  C   UNL     1      47.535   2.784  17.433  0.00  0.00    +0.000 A 
ATOM     28  N   UNL     1      47.284   3.264  16.170  0.00  0.00    +0.000 N 
ATOM     29  C   UNL     1      47.521   4.568  15.807  0.00  0.00    +0.000 A 
ATOM     30  O   UNL     1      47.199   5.005  14.709  0.00  0.00    +0.000 OA
ATOM     31  C   UNL     1      48.151   5.352  16.847  0.00  0.00    +0.000 A 
ATOM     32  H   UNL     1      46.844   2.683  15.471  0.00  0.00    +0.000 HD
ENDBRANCH  19  22
ENDBRANCH   1  20
TORSDOF 7
ENDMDL
MODEL 6
REMARK VINA RESULT:    -6.953      1.948      2.600
REMARK INTER + INTRA:         -10.627
REMARK INTER:                  -9.763
REMARK INTRA:                  -0.863
REMARK UNBOUND:                -1.031
REMARK  Name = 
REMARK  7 active torsions:
REMARK  status: ('A' for Active; 'I' for Inactive)
REMARK    1  A    between atoms: C_2  and  C_19
REMARK    2  A    between atoms: N_3  and  C_4
REMARK    3  A    between atoms: C_4  and  C_5
REMARK    4  A    between atoms: C_8  and  C_9
REMARK    5  A    between atoms: C_9  and  O_10
REMARK    6  A    between atoms: C_9  and  C_11
REMARK    7  A    between atoms: C_11  and  C_12
REMARK                            x       y       z     vdW  Elec       q    Type
REMARK                         _______ _______ _______ _____ _____    ______ ____
ROOT
ATOM      1  C   UNL     1      47.744   7.148  13.602  0.00  0.00    +0.000 C 
ENDROOT
BRANCH   1   2
ATOM      2  C   UNL     1      46.626   6.371  12.928  0.00  0.00    +0.000 A 
ATOM      3  N   UNL     1      46.174   5.266  13.546  0.00  0.00    +0.000 NA
ATOM      4  C   UNL     1      45.345   4.467  12.843  0.00  0.00    +0.000 A 
ATOM      5  C   UNL     1      44.937   4.712  11.548  0.00  0.00    +0.000 A 
ATOM      6  C   UNL     1      45.444   5.885  11.016  0.00  0.00    +0.000 A 
ATOM      7  N   UNL     1      46.296   6.711  11.664  0.00  0.00    +0.000 NA
BRANCH   5   8
ATOM      8  C   UNL     1      44.062   3.798  10.729  0.00  0.00    +0.000 C 
BRANCH   8   9
ATOM      9  O   UNL     1      42.929   3.402  11.500  0.00  0.00    +0.000 OA
ATOM     10  H   UNL     1      42.826   4.023  12.242  0.00  0.00    +0.000 HD
ENDBRANCH   8   9
BRANCH   8  11
ATOM     11  C   UNL     1      44.758   2.532  10.182  0.00  0.00    +0.000 C 
BRANCH  11  12
ATOM     12  C   UNL     1      44.720   2.374   8.649  0.00  0.00    +0.000 C 
ATOM     13  C   UNL     1      45.976   1.674   8.136  0.00  0.00    +0.000 C 
ATOM     14  C   UNL     1      46.890   2.787   7.665  0.00  0.00    +0.000 C 
ATOM     15  N   UNL     1      46.036   3.919   7.317  0.00  0.00    +0.000 NA
ATOM     16  C   UNL     1      44.701   3.688   7.873  0.00  0.00    +0.000 C 
ATOM     17  H   UNL     1      45.966   3.993   6.300  0.00  0.00    +0.000 HD
ENDBRANCH  11  12
ENDBRANCH   8  11
ENDBRANCH   5   8
ENDBRANCH   1   2
BRANCH   1  20
ATOM     18  O   UNL     1      50.147   6.831  15.156  0.00  0.00    +0.000 OA
ATOM     19  C   UNL     1      49.049   6.574  15.640  0.00  0.00    +0.000 C 
ATOM     20  N   UNL     1      47.857   6.754  14.991  0.00  0.00    +0.000 N 
ATOM     21  H   UNL     1      47.027   6.320  15.375  0.00  0.00    +0.000 HD
BRANCH  19  22
ATOM     22  C   UNL     1      48.869   5.838  16.884  0.00  0.00    +0.000 A 
ATOM     23  C   UNL     1      48.744   4.463  16.931  0.00  0.00    +0.000 A 
ATOM     24  S   UNL     1      48.034   3.940  18.404  0.00  0.00    +0.000 S 
ATOM     25  C   UNL     1      48.018   5.529  19.027  0.00  0.00    +0.000 A 
ATOM     26  N   UNL     1      47.417   5.847  20.204  0.00  0.00    +0.000 NA
ATOM     27  C   UNL     1      47.547   7.089  20.547  0.00  0.00    +0.000 A 
ATOM     28  N   UNL     1      48.264   8.028  19.846  0.00  0.00    +0.000 N 
ATOM     29  C   UNL     1      48.907   7.747  18.664  0.00  0.00    +0.000 A 
ATOM     30  O   UNL     1      49.622   8.567  18.103  0.00  0.00    +0.000 OA
ATOM     31  C   UNL     1      48.670   6.402  18.184  0.00  0.00    +0.000 A 
ATOM     32  H   UNL     1      48.404   8.958  20.215  0.00  0.00    +0.000 HD
ENDBRANCH  19  22
ENDBRANCH   1  20
TORSDOF 7
ENDMDL
MODEL 7
REMARK VINA RESULT:    -6.785      2.047      3.505
REMARK INTER + INTRA:         -10.394
REMARK INTER:                  -9.823
REMARK INTRA:                  -0.571
REMARK UNBOUND:                -1.031
REMARK  Name = 
REMARK  7 active torsions:
REMARK  status: ('A' for Active; 'I' for Inactive)
REMARK    1  A    between atoms: C_2  and  C_19
REMARK    2  A    between atoms: N_3  and  C_4
REMARK    3  A    between atoms: C_4  and  C_5
REMARK    4  A    between atoms: C_8  and  C_9
REMARK    5  A    between atoms: C_9  and  O_10
REMARK    6  A    between atoms: C_9  and  C_11
REMARK    7  A    between atoms: C_11  and  C_12
REMARK                            x       y       z     vdW  Elec       q    Type
REMARK                         _______ _______ _______ _____ _____    ______ ____
ROOT
ATOM      1  C   UNL     1      47.116   4.084  15.138  0.00  0.00    +0.000 C 
ENDROOT
BRANCH   1   2
ATOM      2  C   UNL     1      46.399   4.506  13.867  0.00  0.00    +0.000 A 
ATOM      3  N   UNL     1      45.545   3.630  13.313  0.00  0.00    +0.000 NA
ATOM      4  C   UNL     1      45.084   3.920  12.079  0.00  0.00    +0.000 A 
ATOM      5  C   UNL     1      45.431   5.048  11.361  0.00  0.00    +0.000 A 
ATOM      6  C   UNL     1      46.299   5.891  12.034  0.00  0.00    +0.000 A 
ATOM      7  N   UNL     1      46.810   5.640  13.260  0.00  0.00    +0.000 NA
BRANCH   5   8
ATOM      8  C   UNL     1      44.975   5.355   9.959  0.00  0.00    +0.000 C 
BRANCH   8   9
ATOM      9  O   UNL     1      43.645   4.873   9.771  0.00  0.00    +0.000 OA
ATOM     10  H   UNL     1      43.123   5.085  10.564  0.00  0.00    +0.000 HD
ENDBRANCH   8   9
BRANCH   8  11
ATOM     11  C   UNL     1      45.871   4.791   8.834  0.00  0.00    +0.000 C 
BRANCH  11  12
ATOM     12  C   UNL     1      45.215   3.707   7.955  0.00  0.00    +0.000 C 
ATOM     13  C   UNL     1      45.063   2.394   8.721  0.00  0.00    +0.000 C 
ATOM     14  C   UNL     1      46.246   1.546   8.303  0.00  0.00    +0.000 C 
ATOM     15  N   UNL     1      46.655   2.012   6.981  0.00  0.00    +0.000 NA
ATOM     16  C   UNL     1      46.024   3.308   6.723  0.00  0.00    +0.000 C 
ATOM     17  H   UNL     1      46.345   1.344   6.273  0.00  0.00    +0.000 HD
ENDBRANCH  11  12
ENDBRANCH   8  11
ENDBRANCH   5   8
ENDBRANCH   1   2
BRANCH   1  20
ATOM     18  O   UNL     1      49.389   4.332  16.888  0.00  0.00    +0.000 OA
ATOM     19  C   UNL     1      48.609   5.266  16.739  0.00  0.00    +0.000 C 
ATOM     20  N   UNL     1      47.540   5.251  15.883  0.00  0.00    +0.000 N 
ATOM     21  H   UNL     1      46.832   5.968  15.980  0.00  0.00    +0.000 HD
BRANCH  19  22
ATOM     22  C   UNL     1      48.575   6.435  17.608  0.00  0.00    +0.000 A 
ATOM     23  C   UNL     1      48.105   6.392  18.907  0.00  0.00    +0.000 A 
ATOM     24  S   UNL     1      47.698   7.955  19.486  0.00  0.00    +0.000 S 
ATOM     25  C   UNL     1      48.270   8.697  18.059  0.00  0.00    +0.000 A 
ATOM     26  N   UNL     1      48.109  10.023  17.809  0.00  0.00    +0.000 NA
ATOM     27  C   UNL     1      48.651  10.424  16.703  0.00  0.00    +0.000 A 
ATOM     28  N   UNL     1      49.379   9.629  15.851  0.00  0.00    +0.000 N 
ATOM     29  C   UNL     1      49.588   8.289  16.075  0.00  0.00    +0.000 A 
ATOM     30  O   UNL     1      50.321   7.618  15.360  0.00  0.00    +0.000 OA
ATOM     31  C   UNL     1      48.884   7.781  17.233  0.00  0.00    +0.000 A 
ATOM     32  H   UNL     1      49.854  10.023  15.052  0.00  0.00    +0.000 HD
ENDBRANCH  19  22
ENDBRANCH   1  20
TORSDOF 7
ENDMDL
MODEL 8
REMARK VINA RESULT:    -6.682      3.499      8.781
REMARK INTER + INTRA:         -10.253
REMARK INTER:                  -9.236
REMARK INTRA:                  -1.017
REMARK UNBOUND:                -1.031
REMARK  Name = 
REMARK  7 active torsions:
REMARK  status: ('A' for Active; 'I' for Inactive)
REMARK    1  A    between atoms: C_2  and  C_19
REMARK    2  A    between atoms: N_3  and  C_4
REMARK    3  A    between atoms: C_4  and  C_5
REMARK    4  A    between atoms: C_8  and  C_9
REMARK    5  A    between atoms: C_9  and  O_10
REMARK    6  A    between atoms: C_9  and  C_11
REMARK    7  A    between atoms: C_11  and  C_12
REMARK                            x       y       z     vdW  Elec       q    Type
REMARK                         _______ _______ _______ _____ _____    ______ ____
ROOT
ATOM      1  C   UNL     1      47.191   4.001  16.838  0.00  0.00    +0.000 C 
ENDROOT
BRANCH   1   2
ATOM      2  C   UNL     1      48.658   4.350  17.018  0.00  0.00    +0.000 A 
ATOM      3  N   UNL     1      49.541   3.336  17.054  0.00  0.00    +0.000 NA
ATOM      4  C   UNL     1      50.800   3.635  17.432  0.00  0.00    +0.000 A 
ATOM      5  C   UNL     1      51.234   4.899  17.777  0.00  0.00    +0.000 A 
ATOM      6  C   UNL     1      50.251   5.869  17.684  0.00  0.00    +0.000 A 
ATOM      7  N   UNL     1      48.968   5.625  17.334  0.00  0.00    +0.000 NA
BRANCH   5   8
ATOM      8  C   UNL     1      52.620   5.237  18.260  0.00  0.00    +0.000 C 
BRANCH   8   9
ATOM      9  O   UNL     1      52.786   6.654  18.291  0.00  0.00    +0.000 OA
ATOM     10  H   UNL     1      53.609   6.859  18.768  0.00  0.00    +0.000 HD
ENDBRANCH   8   9
BRANCH   8  11
ATOM     11  C   UNL     1      53.775   4.619  17.440  0.00  0.00    +0.000 C 
BRANCH  11  12
ATOM     12  C   UNL     1      54.585   3.528  18.169  0.00  0.00    +0.000 C 
ATOM     13  C   UNL     1      54.862   2.341  17.250  0.00  0.00    +0.000 C 
ATOM     14  C   UNL     1      53.802   1.314  17.591  0.00  0.00    +0.000 C 
ATOM     15  N   UNL     1      53.390   1.572  18.968  0.00  0.00    +0.000 NA
ATOM     16  C   UNL     1      53.874   2.897  19.363  0.00  0.00    +0.000 C 
ATOM     17  H   UNL     1      53.801   0.869  19.585  0.00  0.00    +0.000 HD
ENDBRANCH  11  12
ENDBRANCH   8  11
ENDBRANCH   5   8
ENDBRANCH   1   2
BRANCH   1  20
ATOM     18  O   UNL     1      47.446   2.929  14.178  0.00  0.00    +0.000 OA
ATOM     19  C   UNL     1      46.907   4.014  14.366  0.00  0.00    +0.000 C 
ATOM     20  N   UNL     1      46.693   4.567  15.601  0.00  0.00    +0.000 N 
ATOM     21  H   UNL     1      46.445   5.546  15.656  0.00  0.00    +0.000 HD
BRANCH  19  22
ATOM     22  C   UNL     1      46.620   4.968  13.303  0.00  0.00    +0.000 A 
ATOM     23  C   UNL     1      47.449   6.032  13.004  0.00  0.00    +0.000 A 
ATOM     24  S   UNL     1      46.629   7.243  12.106  0.00  0.00    +0.000 S 
ATOM     25  C   UNL     1      45.215   6.292  12.005  0.00  0.00    +0.000 A 
ATOM     26  N   UNL     1      44.052   6.764  11.484  0.00  0.00    +0.000 NA
ATOM     27  C   UNL     1      43.098   5.890  11.438  0.00  0.00    +0.000 A 
ATOM     28  N   UNL     1      43.216   4.576  11.821  0.00  0.00    +0.000 N 
ATOM     29  C   UNL     1      44.379   4.049  12.331  0.00  0.00    +0.000 A 
ATOM     30  O   UNL     1      44.499   2.854  12.573  0.00  0.00    +0.000 OA
ATOM     31  C   UNL     1      45.424   5.031  12.519  0.00  0.00    +0.000 A 
ATOM     32  H   UNL     1      42.462   3.921  11.673  0.00  0.00    +0.000 HD
ENDBRANCH  19  22
ENDBRANCH   1  20
TORSDOF 7
ENDMDL
MODEL 9
REMARK VINA RESULT:    -6.482      3.684      8.831
REMARK INTER + INTRA:          -9.977
REMARK INTER:                  -8.530
REMARK INTRA:                  -1.447
REMARK UNBOUND:                -1.031
REMARK  Name = 
REMARK  7 active torsions:
REMARK  status: ('A' for Active; 'I' for Inactive)
REMARK    1  A    between atoms: C_2  and  C_19
REMARK    2  A    between atoms: N_3  and  C_4
REMARK    3  A    between atoms: C_4  and  C_5
REMARK    4  A    between atoms: C_8  and  C_9
REMARK    5  A    between atoms: C_9  and  O_10
REMARK    6  A    between atoms: C_9  and  C_11
REMARK    7  A    between atoms: C_11  and  C_12
REMARK                            x       y       z     vdW  Elec       q    Type
REMARK                         _______ _______ _______ _____ _____    ______ ____
ROOT
ATOM      1  C   UNL     1      47.202   3.605  17.068  0.00  0.00    +0.000 C 
ENDROOT
BRANCH   1   2
ATOM      2  C   UNL     1      48.622   3.985  17.451  0.00  0.00    +0.000 A 
ATOM      3  N   UNL     1      49.616   3.187  17.026  0.00  0.00    +0.000 NA
ATOM      4  C   UNL     1      50.841   3.403  17.549  0.00  0.00    +0.000 A 
ATOM      5  C   UNL     1      51.131   4.381  18.479  0.00  0.00    +0.000 A 
ATOM      6  C   UNL     1      50.040   5.157  18.830  0.00  0.00    +0.000 A 
ATOM      7  N   UNL     1      48.787   4.972  18.357  0.00  0.00    +0.000 NA
BRANCH   5   8
ATOM      8  C   UNL     1      52.478   4.594  19.118  0.00  0.00    +0.000 C 
BRANCH   8   9
ATOM      9  O   UNL     1      52.493   5.848  19.801  0.00  0.00    +0.000 OA
ATOM     10  H   UNL     1      52.718   5.690  20.734  0.00  0.00    +0.000 HD
ENDBRANCH   8   9
BRANCH   8  11
ATOM     11  C   UNL     1      53.684   4.540  18.154  0.00  0.00    +0.000 C 
BRANCH  11  12
ATOM     12  C   UNL     1      54.683   3.396  18.419  0.00  0.00    +0.000 C 
ATOM     13  C   UNL     1      54.840   2.506  17.188  0.00  0.00    +0.000 C 
ATOM     14  C   UNL     1      53.929   1.320  17.432  0.00  0.00    +0.000 C 
ATOM     15  N   UNL     1      53.783   1.189  18.879  0.00  0.00    +0.000 NA
ATOM     16  C   UNL     1      54.259   2.420  19.514  0.00  0.00    +0.000 C 
ATOM     17  H   UNL     1      54.348   0.404  19.209  0.00  0.00    +0.000 HD
ENDBRANCH  11  12
ENDBRANCH   8  11
ENDBRANCH   5   8
ENDBRANCH   1   2
BRANCH   1  20
ATOM     18  O   UNL     1      47.435   3.033  14.256  0.00  0.00    +0.000 OA
ATOM     19  C   UNL     1      46.952   4.093  14.641  0.00  0.00    +0.000 C 
ATOM     20  N   UNL     1      46.751   4.418  15.957  0.00  0.00    +0.000 N 
ATOM     21  H   UNL     1      46.556   5.382  16.192  0.00  0.00    +0.000 HD
BRANCH  19  22
ATOM     22  C   UNL     1      46.732   5.242  13.773  0.00  0.00    +0.000 A 
ATOM     23  C   UNL     1      45.570   5.424  13.048  0.00  0.00    +0.000 A 
ATOM     24  S   UNL     1      45.794   6.531  11.756  0.00  0.00    +0.000 S 
ATOM     25  C   UNL     1      47.395   6.865  12.244  0.00  0.00    +0.000 A 
ATOM     26  N   UNL     1      48.239   7.635  11.506  0.00  0.00    +0.000 NA
ATOM     27  C   UNL     1      49.397   7.825  12.053  0.00  0.00    +0.000 A 
ATOM     28  N   UNL     1      49.770   7.357  13.290  0.00  0.00    +0.000 N 
ATOM     29  C   UNL     1      48.942   6.596  14.081  0.00  0.00    +0.000 A 
ATOM     30  O   UNL     1      49.251   6.271  15.220  0.00  0.00    +0.000 OA
ATOM     31  C   UNL     1      47.690   6.253  13.442  0.00  0.00    +0.000 A 
ATOM     32  H   UNL     1      50.654   7.619  13.700  0.00  0.00    +0.000 HD
ENDBRANCH  19  22
ENDBRANCH   1  20
TORSDOF 7
ENDMDL
