MODEL 1
REMARK VINA RESULT:    -8.582      0.000      0.000
REMARK INTER + INTRA:         -12.434
REMARK INTER:                 -11.592
REMARK INTRA:                  -0.842
REMARK UNBOUND:                -0.842
REMARK  Name = 
REMARK  6 active torsions:
REMARK  status: ('A' for Active; 'I' for Inactive)
REMARK    1  A    between atoms: C_2  and  C_19
REMARK    2  A    between atoms: N_3  and  C_4
REMARK    3  A    between atoms: C_4  and  C_5
REMARK    4  A    between atoms: C_8  and  C_9
REMARK    5  A    between atoms: C_9  and  N_10
REMARK    6  A    between atoms: N_10  and  C_11
REMARK                            x       y       z     vdW  Elec       q    Type
REMARK                         _______ _______ _______ _____ _____    ______ ____
ROOT
ATOM      1  C   UNL     1      46.004   4.733  14.685  0.00  0.00    +0.000 C 
ENDROOT
BRANCH   1   2
ATOM      2  C   UNL     1      46.225   4.618  13.175  0.00  0.00    +0.000 C 
ATOM      3  C   UNL     1      46.095   5.983  12.479  0.00  0.00    +0.000 C 
ATOM      4  C   UNL     1      46.223   5.856  10.965  0.00  0.00    +0.000 C 
ATOM      5  C   UNL     1      45.213   4.848  10.392  0.00  0.00    +0.000 C 
ATOM      6  C   UNL     1      45.352   3.488  11.087  0.00  0.00    +0.000 C 
ATOM      7  C   UNL     1      45.221   3.615  12.599  0.00  0.00    +0.000 C 
BRANCH   5   8
ATOM      8  C   UNL     1      45.418   4.733   8.874  0.00  0.00    +0.000 C 
BRANCH   8   9
ATOM      9  N   UNL     1      44.662   3.612   8.317  0.00  0.00    +0.000 NA
ATOM     10  H   UNL     1      43.884   3.960   7.758  0.00  0.00    +0.000 HD
BRANCH   9  11
ATOM     11  C   UNL     1      45.499   2.710   7.517  0.00  0.00    +0.000 C 
ATOM     12  C   UNL     1      45.955   1.474   8.302  0.00  0.00    +0.000 C 
ATOM     13  C   UNL     1      46.928   0.650   7.475  0.00  0.00    +0.000 C 
ATOM     14  O   UNL     1      48.044   1.440   7.074  0.00  0.00    +0.000 OA
ATOM     15  C   UNL     1      47.655   2.538   6.249  0.00  0.00    +0.000 C 
ATOM     16  C   UNL     1      46.724   3.478   7.004  0.00  0.00    +0.000 C 
ENDBRANCH   9  11
ENDBRANCH   8   9
ENDBRANCH   5   8
ENDBRANCH   1   2
BRANCH   1  19
ATOM     17  O   UNL     1      46.579   3.417  17.136  0.00  0.00    +0.000 OA
ATOM     18  C   UNL     1      47.433   4.124  16.612  0.00  0.00    +0.000 C 
ATOM     19  N   UNL     1      47.248   4.752  15.409  0.00  0.00    +0.000 N 
ATOM     20  H   UNL     1      47.975   5.350  15.038  0.00  0.00    +0.000 HD
BRANCH  18  21
ATOM     21  C   UNL     1      48.762   4.305  17.204  0.00  0.00    +0.000 A 
ATOM     22  C   UNL     1      49.095   5.507  17.812  0.00  0.00    +0.000 A 
ATOM     23  S   UNL     1      50.659   5.505  18.494  0.00  0.00    +0.000 S 
ATOM     24  C   UNL     1      50.953   3.915  17.962  0.00  0.00    +0.000 A 
ATOM     25  N   UNL     1      52.134   3.292  18.229  0.00  0.00    +0.000 NA
ATOM     26  C   UNL     1      52.229   2.100  17.742  0.00  0.00    +0.000 A 
ATOM     27  N   UNL     1      51.258   1.474  17.010  0.00  0.00    +0.000 N 
ATOM     28  C   UNL     1      50.039   2.049  16.739  0.00  0.00    +0.000 A 
ATOM     29  O   UNL     1      49.173   1.430  16.136  0.00  0.00    +0.000 OA
ATOM     30  C   UNL     1      49.877   3.393  17.269  0.00  0.00    +0.000 A 
ATOM     31  H   UNL     1      51.387   0.534  16.666  0.00  0.00    +0.000 HD
ENDBRANCH  18  21
ENDBRANCH   1  19
TORSDOF 6
ENDMDL
MODEL 2
REMARK VINA RESULT:    -8.531      1.830      2.408
REMARK INTER + INTRA:         -12.366
REMARK INTER:                 -11.234
REMARK INTRA:                  -1.132
REMARK UNBOUND:                -0.842
REMARK  Name = 
REMARK  6 active torsions:
REMARK  status: ('A' for Active; 'I' for Inactive)
REMARK    1  A    between atoms: C_2  and  C_19
REMARK    2  A    between atoms: N_3  and  C_4
REMARK    3  A    between atoms: C_4  and  C_5
REMARK    4  A    between atoms: C_8  and  C_9
REMARK    5  A    between atoms: C_9  and  N_10
REMARK    6  A    between atoms: N_10  and  C_11
REMARK                            x       y       z     vdW  Elec       q    Type
REMARK                         _______ _______ _______ _____ _____    ______ ____
ROOT
ATOM      1  C   UNL     1      46.621   7.266  13.151  0.00  0.00    +0.000 C 
ENDROOT
BRANCH   1   2
ATOM      2  C   UNL     1      46.405   6.100  12.185  0.00  0.00    +0.000 C 
ATOM      3  C   UNL     1      46.008   6.593  10.784  0.00  0.00    +0.000 C 
ATOM      4  C   UNL     1      45.702   5.430   9.845  0.00  0.00    +0.000 C 
ATOM      5  C   UNL     1      44.625   4.499  10.425  0.00  0.00    +0.000 C 
ATOM      6  C   UNL     1      45.030   4.008  11.821  0.00  0.00    +0.000 C 
ATOM      7  C   UNL     1      45.332   5.169  12.759  0.00  0.00    +0.000 C 
BRANCH   5   8
ATOM      8  C   UNL     1      44.391   3.330   9.458  0.00  0.00    +0.000 C 
BRANCH   8   9
ATOM      9  N   UNL     1      44.657   3.720   8.074  0.00  0.00    +0.000 NA
ATOM     10  H   UNL     1      45.115   4.630   8.050  0.00  0.00    +0.000 HD
BRANCH   9  11
ATOM     11  C   UNL     1      45.462   2.726   7.353  0.00  0.00    +0.000 C 
ATOM     12  C   UNL     1      45.964   1.598   8.262  0.00  0.00    +0.000 C 
ATOM     13  C   UNL     1      46.903   0.679   7.499  0.00  0.00    +0.000 C 
ATOM     14  O   UNL     1      47.992   1.415   6.949  0.00  0.00    +0.000 OA
ATOM     15  C   UNL     1      47.556   2.401   6.014  0.00  0.00    +0.000 C 
ATOM     16  C   UNL     1      46.655   3.427   6.690  0.00  0.00    +0.000 C 
ENDBRANCH   9  11
ENDBRANCH   8   9
ENDBRANCH   5   8
ENDBRANCH   1   2
BRANCH   1  19
ATOM     17  O   UNL     1      49.388   6.860  13.652  0.00  0.00    +0.000 OA
ATOM     18  C   UNL     1      48.571   6.620  14.533  0.00  0.00    +0.000 C 
ATOM     19  N   UNL     1      47.227   6.835  14.385  0.00  0.00    +0.000 N 
ATOM     20  H   UNL     1      46.593   6.589  15.134  0.00  0.00    +0.000 HD
BRANCH  18  21
ATOM     21  C   UNL     1      48.975   6.140  15.859  0.00  0.00    +0.000 A 
ATOM     22  C   UNL     1      49.931   6.832  16.588  0.00  0.00    +0.000 A 
ATOM     23  S   UNL     1      50.223   6.156  18.127  0.00  0.00    +0.000 S 
ATOM     24  C   UNL     1      49.110   4.897  17.850  0.00  0.00    +0.000 A 
ATOM     25  N   UNL     1      48.871   3.950  18.797  0.00  0.00    +0.000 NA
ATOM     26  C   UNL     1      48.025   3.042  18.441  0.00  0.00    +0.000 A 
ATOM     27  N   UNL     1      47.401   2.988  17.224  0.00  0.00    +0.000 N 
ATOM     28  C   UNL     1      47.588   3.936  16.246  0.00  0.00    +0.000 A 
ATOM     29  O   UNL     1      46.960   3.886  15.197  0.00  0.00    +0.000 OA
ATOM     30  C   UNL     1      48.529   4.985  16.599  0.00  0.00    +0.000 A 
ATOM     31  H   UNL     1      46.739   2.257  17.009  0.00  0.00    +0.000 HD
ENDBRANCH  18  21
ENDBRANCH   1  19
TORSDOF 6
ENDMDL
MODEL 3
REMARK VINA RESULT:    -7.804      2.611      3.575
REMARK INTER + INTRA:         -11.383
REMARK INTER:                 -10.269
REMARK INTRA:                  -1.115
REMARK UNBOUND:                -0.842
REMARK  Name = 
REMARK  6 active torsions:
REMARK  status: ('A' for Active; 'I' for Inactive)
REMARK    1  A    between atoms: C_2  and  C_19
REMARK    2  A    between atoms: N_3  and  C_4
REMARK    3  A    between atoms: C_4  and  C_5
REMARK    4  A    between atoms: C_8  and  C_9
REMARK    5  A    between atoms: C_9  and  N_10
REMARK    6  A    between atoms: N_10  and  C_11
REMARK                            x       y       z     vdW  Elec       q    Type
REMARK                         _______ _______ _______ _____ _____    ______ ____
ROOT
ATOM      1  C   UNL     1      47.945   7.051  13.700  0.00  0.00    +0.000 C 
ENDROOT
BRANCH   1   2
ATOM      2  C   UNL     1      47.157   6.228  12.680  0.00  0.00    +0.000 C 
ATOM      3  C   UNL     1      46.146   7.094  11.913  0.00  0.00    +0.000 C 
ATOM      4  C   UNL     1      45.296   6.258  10.962  0.00  0.00    +0.000 C 
ATOM      5  C   UNL     1      44.590   5.106  11.694  0.00  0.00    +0.000 C 
ATOM      6  C   UNL     1      45.606   4.243  12.453  0.00  0.00    +0.000 C 
ATOM      7  C   UNL     1      46.451   5.078  13.405  0.00  0.00    +0.000 C 
BRANCH   5   8
ATOM      8  C   UNL     1      43.787   4.278  10.681  0.00  0.00    +0.000 C 
BRANCH   8   9
ATOM      9  N   UNL     1      44.054   4.706   9.309  0.00  0.00    +0.000 NA
ATOM     10  H   UNL     1      44.659   5.527   9.312  0.00  0.00    +0.000 HD
BRANCH   9  11
ATOM     11  C   UNL     1      44.645   3.640   8.490  0.00  0.00    +0.000 C 
ATOM     12  C   UNL     1      44.909   2.359   9.289  0.00  0.00    +0.000 C 
ATOM     13  C   UNL     1      45.647   1.343   8.432  0.00  0.00    +0.000 C 
ATOM     14  O   UNL     1      46.862   1.893   7.932  0.00  0.00    +0.000 OA
ATOM     15  C   UNL     1      46.634   3.026   7.094  0.00  0.00    +0.000 C 
ATOM     16  C   UNL     1      45.955   4.146   7.873  0.00  0.00    +0.000 C 
ENDBRANCH   9  11
ENDBRANCH   8   9
ENDBRANCH   5   8
ENDBRANCH   1   2
BRANCH   1  19
ATOM     17  O   UNL     1      50.112   6.640  15.491  0.00  0.00    +0.000 OA
ATOM     18  C   UNL     1      48.988   6.269  15.805  0.00  0.00    +0.000 C 
ATOM     19  N   UNL     1      47.886   6.473  15.017  0.00  0.00    +0.000 N 
ATOM     20  H   UNL     1      46.985   6.116  15.311  0.00  0.00    +0.000 HD
BRANCH  18  21
ATOM     21  C   UNL     1      48.712   5.625  17.094  0.00  0.00    +0.000 A 
ATOM     22  C   UNL     1      48.847   4.251  17.228  0.00  0.00    +0.000 A 
ATOM     23  S   UNL     1      48.544   3.697  18.813  0.00  0.00    +0.000 S 
ATOM     24  C   UNL     1      48.185   5.270  19.357  0.00  0.00    +0.000 A 
ATOM     25  N   UNL     1      47.847   5.504  20.654  0.00  0.00    +0.000 NA
ATOM     26  C   UNL     1      47.575   6.738  20.919  0.00  0.00    +0.000 A 
ATOM     27  N   UNL     1      47.603   7.759  20.009  0.00  0.00    +0.000 N 
ATOM     28  C   UNL     1      47.967   7.578  18.695  0.00  0.00    +0.000 A 
ATOM     29  O   UNL     1      48.042   8.529  17.929  0.00  0.00    +0.000 OA
ATOM     30  C   UNL     1      48.288   6.205  18.344  0.00  0.00    +0.000 A 
ATOM     31  H   UNL     1      47.392   8.708  20.281  0.00  0.00    +0.000 HD
ENDBRANCH  18  21
ENDBRANCH   1  19
TORSDOF 6
ENDMDL
MODEL 4
REMARK VINA RESULT:    -7.550      2.534      3.196
REMARK INTER + INTRA:         -11.040
REMARK INTER:                  -9.802
REMARK INTRA:                  -1.239
REMARK UNBOUND:                -0.842
REMARK  Name = 
REMARK  6 active torsions:
REMARK  status: ('A' for Active; 'I' for Inactive)
REMARK    1  A    between atoms: C_2  and  C_19
REMARK    2  A    between atoms: N_3  and  C_4
REMARK    3  A    between atoms: C_4  and  C_5
REMARK    4  A    between atoms: C_8  and  C_9
REMARK    5  A    between atoms: C_9  and  N_10
REMARK    6  A    between atoms: N_10  and  C_11
REMARK                            x       y       z     vdW  Elec       q    Type
REMARK                         _______ _______ _______ _____ _____    ______ ____
ROOT
ATOM      1  C   UNL     1      48.840   7.019  13.785  0.00  0.00    +0.000 C 
ENDROOT
BRANCH   1   2
ATOM      2  C   UNL     1      47.870   6.191  12.939  0.00  0.00    +0.000 C 
ATOM      3  C   UNL     1      46.940   7.087  12.105  0.00  0.00    +0.000 C 
ATOM      4  C   UNL     1      45.913   6.266  11.333  0.00  0.00    +0.000 C 
ATOM      5  C   UNL     1      45.103   5.349  12.263  0.00  0.00    +0.000 C 
ATOM      6  C   UNL     1      46.037   4.455  13.088  0.00  0.00    +0.000 C 
ATOM      7  C   UNL     1      47.060   5.275  13.862  0.00  0.00    +0.000 C 
BRANCH   5   8
ATOM      8  C   UNL     1      44.118   4.520  11.426  0.00  0.00    +0.000 C 
BRANCH   8   9
ATOM      9  N   UNL     1      44.083   4.975  10.036  0.00  0.00    +0.000 NA
ATOM     10  H   UNL     1      44.715   5.765   9.912  0.00  0.00    +0.000 HD
BRANCH   9  11
ATOM     11  C   UNL     1      44.411   3.906   9.085  0.00  0.00    +0.000 C 
ATOM     12  C   UNL     1      44.652   2.556   9.771  0.00  0.00    +0.000 C 
ATOM     13  C   UNL     1      45.123   1.524   8.760  0.00  0.00    +0.000 C 
ATOM     14  O   UNL     1      46.298   1.974   8.090  0.00  0.00    +0.000 OA
ATOM     15  C   UNL     1      46.069   3.175   7.353  0.00  0.00    +0.000 C 
ATOM     16  C   UNL     1      45.655   4.309   8.282  0.00  0.00    +0.000 C 
ENDBRANCH   9  11
ENDBRANCH   8   9
ENDBRANCH   5   8
ENDBRANCH   1   2
BRANCH   1  19
ATOM     17  O   UNL     1      49.922   8.609  15.876  0.00  0.00    +0.000 OA
ATOM     18  C   UNL     1      49.138   7.706  16.144  0.00  0.00    +0.000 C 
ATOM     19  N   UNL     1      48.539   6.928  15.190  0.00  0.00    +0.000 N 
ATOM     20  H   UNL     1      47.924   6.173  15.469  0.00  0.00    +0.000 HD
BRANCH  18  21
ATOM     21  C   UNL     1      48.722   7.421  17.522  0.00  0.00    +0.000 A 
ATOM     22  C   UNL     1      48.134   8.415  18.290  0.00  0.00    +0.000 A 
ATOM     23  S   UNL     1      47.663   7.877  19.839  0.00  0.00    +0.000 S 
ATOM     24  C   UNL     1      48.267   6.313  19.544  0.00  0.00    +0.000 A 
ATOM     25  N   UNL     1      48.173   5.335  20.486  0.00  0.00    +0.000 NA
ATOM     26  C   UNL     1      48.696   4.207  20.137  0.00  0.00    +0.000 A 
ATOM     27  N   UNL     1      49.310   3.967  18.938  0.00  0.00    +0.000 N 
ATOM     28  C   UNL     1      49.405   4.913  17.945  0.00  0.00    +0.000 A 
ATOM     29  O   UNL     1      49.905   4.638  16.862  0.00  0.00    +0.000 OA
ATOM     30  C   UNL     1      48.826   6.202  18.285  0.00  0.00    +0.000 A 
ATOM     31  H   UNL     1      49.691   3.058  18.719  0.00  0.00    +0.000 HD
ENDBRANCH  18  21
ENDBRANCH   1  19
TORSDOF 6
ENDMDL
MODEL 5
REMARK VINA RESULT:    -7.389      3.643      4.805
REMARK INTER + INTRA:         -10.823
REMARK INTER:                  -9.725
REMARK INTRA:                  -1.097
REMARK UNBOUND:                -0.842
REMARK  Name = 
REMARK  6 active torsions:
REMARK  status: ('A' for Active; 'I' for Inactive)
REMARK    1  A    between atoms: C_2  and  C_19
REMARK    2  A    between atoms: N_3  and  C_4
REMARK    3  A    between atoms: C_4  and  C_5
REMARK    4  A    between atoms: C_8  and  C_9
REMARK    5  A    between atoms: C_9  and  N_10
REMARK    6  A    between atoms: N_10  and  C_11
REMARK                            x       y       z     vdW  Elec       q    Type
REMARK                         _______ _______ _______ _____ _____    ______ ____
ROOT
ATOM      1  C   UNL     1      47.025   5.078  14.386  0.00  0.00    +0.000 C 
ENDROOT
BRANCH   1   2
ATOM      2  C   UNL     1      45.969   4.924  13.290  0.00  0.00    +0.000 C 
ATOM      3  C   UNL     1      45.890   3.477  12.778  0.00  0.00    +0.000 C 
ATOM      4  C   UNL     1      44.904   3.342  11.623  0.00  0.00    +0.000 C 
ATOM      5  C   UNL     1      45.234   4.313  10.478  0.00  0.00    +0.000 C 
ATOM      6  C   UNL     1      45.306   5.755  10.995  0.00  0.00    +0.000 C 
ATOM      7  C   UNL     1      46.294   5.890  12.145  0.00  0.00    +0.000 C 
BRANCH   5   8
ATOM      8  C   UNL     1      44.186   4.160   9.366  0.00  0.00    +0.000 C 
BRANCH   8   9
ATOM      9  N   UNL     1      44.803   4.198   8.040  0.00  0.00    +0.000 NA
ATOM     10  H   UNL     1      45.058   5.156   7.802  0.00  0.00    +0.000 HD
BRANCH   9  11
ATOM     11  C   UNL     1      45.975   3.320   7.938  0.00  0.00    +0.000 C 
ATOM     12  C   UNL     1      46.732   3.494   6.616  0.00  0.00    +0.000 C 
ATOM     13  C   UNL     1      47.846   2.467   6.504  0.00  0.00    +0.000 C 
ATOM     14  O   UNL     1      47.328   1.145   6.625  0.00  0.00    +0.000 OA
ATOM     15  C   UNL     1      46.713   0.925   7.894  0.00  0.00    +0.000 C 
ATOM     16  C   UNL     1      45.527   1.860   8.090  0.00  0.00    +0.000 C 
ENDBRANCH   9  11
ENDBRANCH   8   9
ENDBRANCH   5   8
ENDBRANCH   1   2
BRANCH   1  19
ATOM     17  O   UNL     1      49.289   5.950  15.864  0.00  0.00    +0.000 OA
ATOM     18  C   UNL     1      48.670   6.751  15.174  0.00  0.00    +0.000 C 
ATOM     19  N   UNL     1      47.599   6.398  14.397  0.00  0.00    +0.000 N 
ATOM     20  H   UNL     1      47.103   7.108  13.872  0.00  0.00    +0.000 HD
BRANCH  18  21
ATOM     21  C   UNL     1      49.069   8.159  15.071  0.00  0.00    +0.000 A 
ATOM     22  C   UNL     1      48.953   8.998  16.169  0.00  0.00    +0.000 A 
ATOM     23  S   UNL     1      49.523  10.578  15.872  0.00  0.00    +0.000 S 
ATOM     24  C   UNL     1      49.903  10.200  14.256  0.00  0.00    +0.000 A 
ATOM     25  N   UNL     1      50.448  11.132  13.426  0.00  0.00    +0.000 NA
ATOM     26  C   UNL     1      50.659  10.714  12.223  0.00  0.00    +0.000 A 
ATOM     27  N   UNL     1      50.371   9.456  11.769  0.00  0.00    +0.000 N 
ATOM     28  C   UNL     1      49.847   8.473  12.574  0.00  0.00    +0.000 A 
ATOM     29  O   UNL     1      49.666   7.342  12.145  0.00  0.00    +0.000 OA
ATOM     30  C   UNL     1      49.595   8.889  13.943  0.00  0.00    +0.000 A 
ATOM     31  H   UNL     1      50.572   9.186  10.817  0.00  0.00    +0.000 HD
ENDBRANCH  18  21
ENDBRANCH   1  19
TORSDOF 6
ENDMDL
MODEL 6
REMARK VINA RESULT:    -7.227      3.086      4.487
REMARK INTER + INTRA:         -10.605
REMARK INTER:                  -9.977
REMARK INTRA:                  -0.628
REMARK UNBOUND:                -0.842
REMARK  Name = 
REMARK  6 active torsions:
REMARK  status: ('A' for Active; 'I' for Inactive)
REMARK    1  A    between atoms: C_2  and  C_19
REMARK    2  A    between atoms: N_3  and  C_4
REMARK    3  A    between atoms: C_4  and  C_5
REMARK    4  A    between atoms: C_8  and  C_9
REMARK    5  A    between atoms: C_9  and  N_10
REMARK    6  A    between atoms: N_10  and  C_11
REMARK                            x       y       z     vdW  Elec       q    Type
REMARK                         _______ _______ _______ _____ _____    ______ ____
ROOT
ATOM      1  C   UNL     1      48.075   5.692  14.262  0.00  0.00    +0.000 C 
ENDROOT
BRANCH   1   2
ATOM      2  C   UNL     1      46.735   5.428  13.571  0.00  0.00    +0.000 C 
ATOM      3  C   UNL     1      46.553   3.938  13.241  0.00  0.00    +0.000 C 
ATOM      4  C   UNL     1      45.261   3.688  12.471  0.00  0.00    +0.000 C 
ATOM      5  C   UNL     1      45.183   4.546  11.198  0.00  0.00    +0.000 C 
ATOM      6  C   UNL     1      45.361   6.032  11.536  0.00  0.00    +0.000 C 
ATOM      7  C   UNL     1      46.653   6.282  12.302  0.00  0.00    +0.000 C 
BRANCH   5   8
ATOM      8  C   UNL     1      43.846   4.282  10.490  0.00  0.00    +0.000 C 
BRANCH   8   9
ATOM      9  N   UNL     1      43.931   4.581   9.060  0.00  0.00    +0.000 NA
ATOM     10  H   UNL     1      44.401   5.475   8.919  0.00  0.00    +0.000 HD
BRANCH   9  11
ATOM     11  C   UNL     1      44.608   3.523   8.301  0.00  0.00    +0.000 C 
ATOM     12  C   UNL     1      44.786   2.235   9.113  0.00  0.00    +0.000 C 
ATOM     13  C   UNL     1      45.612   1.226   8.332  0.00  0.00    +0.000 C 
ATOM     14  O   UNL     1      46.874   1.781   7.971  0.00  0.00    +0.000 OA
ATOM     15  C   UNL     1      46.736   2.921   7.123  0.00  0.00    +0.000 C 
ATOM     16  C   UNL     1      45.976   4.034   7.833  0.00  0.00    +0.000 C 
ENDBRANCH   9  11
ENDBRANCH   8   9
ENDBRANCH   5   8
ENDBRANCH   1   2
BRANCH   1  19
ATOM     17  O   UNL     1      50.006   5.928  16.333  0.00  0.00    +0.000 OA
ATOM     18  C   UNL     1      48.873   6.363  16.507  0.00  0.00    +0.000 C 
ATOM     19  N   UNL     1      47.903   6.330  15.542  0.00  0.00    +0.000 N 
ATOM     20  H   UNL     1      46.974   6.674  15.750  0.00  0.00    +0.000 HD
BRANCH  18  21
ATOM     21  C   UNL     1      48.478   7.023  17.756  0.00  0.00    +0.000 A 
ATOM     22  C   UNL     1      48.403   6.296  18.934  0.00  0.00    +0.000 A 
ATOM     23  S   UNL     1      47.987   7.248  20.287  0.00  0.00    +0.000 S 
ATOM     24  C   UNL     1      47.854   8.652  19.333  0.00  0.00    +0.000 A 
ATOM     25  N   UNL     1      47.525   9.850  19.888  0.00  0.00    +0.000 NA
ATOM     26  C   UNL     1      47.434  10.822  19.042  0.00  0.00    +0.000 A 
ATOM     27  N   UNL     1      47.634  10.706  17.694  0.00  0.00    +0.000 N 
ATOM     28  C   UNL     1      47.995   9.525  17.090  0.00  0.00    +0.000 A 
ATOM     29  O   UNL     1      48.228   9.480  15.890  0.00  0.00    +0.000 OA
ATOM     30  C   UNL     1      48.117   8.399  17.999  0.00  0.00    +0.000 A 
ATOM     31  H   UNL     1      47.560  11.508  17.084  0.00  0.00    +0.000 HD
ENDBRANCH  18  21
ENDBRANCH   1  19
TORSDOF 6
ENDMDL
MODEL 7
REMARK VINA RESULT:    -7.074      3.074      4.279
REMARK INTER + INTRA:         -10.397
REMARK INTER:                  -9.573
REMARK INTRA:                  -0.825
REMARK UNBOUND:                -0.842
REMARK  Name = 
REMARK  6 active torsions:
REMARK  status: ('A' for Active; 'I' for Inactive)
REMARK    1  A    between atoms: C_2  and  C_19
REMARK    2  A    between atoms: N_3  and  C_4
REMARK    3  A    between atoms: C_4  and  C_5
REMARK    4  A    between atoms: C_8  and  C_9
REMARK    5  A    between atoms: C_9  and  N_10
REMARK    6  A    between atoms: N_10  and  C_11
REMARK                            x       y       z     vdW  Elec       q    Type
REMARK                         _______ _______ _______ _____ _____    ______ ____
ROOT
ATOM      1  C   UNL     1      47.728   5.230  14.352  0.00  0.00    +0.000 C 
ENDROOT
BRANCH   1   2
ATOM      2  C   UNL     1      46.467   5.180  13.486  0.00  0.00    +0.000 C 
ATOM      3  C   UNL     1      46.119   3.740  13.076  0.00  0.00    +0.000 C 
ATOM      4  C   UNL     1      44.918   3.699  12.138  0.00  0.00    +0.000 C 
ATOM      5  C   UNL     1      45.130   4.587  10.901  0.00  0.00    +0.000 C 
ATOM      6  C   UNL     1      45.472   6.023  11.319  0.00  0.00    +0.000 C 
ATOM      7  C   UNL     1      46.675   6.064  12.252  0.00  0.00    +0.000 C 
BRANCH   5   8
ATOM      8  C   UNL     1      43.874   4.537  10.019  0.00  0.00    +0.000 C 
BRANCH   8   9
ATOM      9  N   UNL     1      44.215   4.299   8.617  0.00  0.00    +0.000 NA
ATOM     10  H   UNL     1      44.340   5.188   8.133  0.00  0.00    +0.000 HD
BRANCH   9  11
ATOM     11  C   UNL     1      45.411   3.463   8.461  0.00  0.00    +0.000 C 
ATOM     12  C   UNL     1      46.180   3.764   7.170  0.00  0.00    +0.000 C 
ATOM     13  C   UNL     1      47.324   2.779   6.991  0.00  0.00    +0.000 C 
ATOM     14  O   UNL     1      46.840   1.439   6.996  0.00  0.00    +0.000 OA
ATOM     15  C   UNL     1      46.214   1.099   8.233  0.00  0.00    +0.000 C 
ATOM     16  C   UNL     1      45.000   1.985   8.486  0.00  0.00    +0.000 C 
ENDBRANCH   9  11
ENDBRANCH   8   9
ENDBRANCH   5   8
ENDBRANCH   1   2
BRANCH   1  19
ATOM     17  O   UNL     1      49.746   5.953  16.217  0.00  0.00    +0.000 OA
ATOM     18  C   UNL     1      48.789   6.698  16.038  0.00  0.00    +0.000 C 
ATOM     19  N   UNL     1      47.802   6.442  15.124  0.00  0.00    +0.000 N 
ATOM     20  H   UNL     1      47.018   7.076  15.041  0.00  0.00    +0.000 HD
BRANCH  18  21
ATOM     21  C   UNL     1      48.654   7.974  16.750  0.00  0.00    +0.000 A 
ATOM     22  C   UNL     1      48.970   9.164  16.112  0.00  0.00    +0.000 A 
ATOM     23  S   UNL     1      48.690  10.541  17.079  0.00  0.00    +0.000 S 
ATOM     24  C   UNL     1      48.176   9.587  18.392  0.00  0.00    +0.000 A 
ATOM     25  N   UNL     1      47.777  10.158  19.561  0.00  0.00    +0.000 NA
ATOM     26  C   UNL     1      47.440   9.313  20.478  0.00  0.00    +0.000 A 
ATOM     27  N   UNL     1      47.470   7.953  20.339  0.00  0.00    +0.000 N 
ATOM     28  C   UNL     1      47.838   7.330  19.170  0.00  0.00    +0.000 A 
ATOM     29  O   UNL     1      47.789   6.111  19.066  0.00  0.00    +0.000 OA
ATOM     30  C   UNL     1      48.223   8.236  18.101  0.00  0.00    +0.000 A 
ATOM     31  H   UNL     1      47.182   7.344  21.091  0.00  0.00    +0.000 HD
ENDBRANCH  18  21
ENDBRANCH   1  19
TORSDOF 6
ENDMDL
MODEL 8
REMARK VINA RESULT:    -6.994      3.054      4.423
REMARK INTER + INTRA:         -10.290
REMARK INTER:                  -8.978
REMARK INTRA:                  -1.312
REMARK UNBOUND:                -0.842
REMARK  Name = 
REMARK  6 active torsions:
REMARK  status: ('A' for Active; 'I' for Inactive)
REMARK    1  A    between atoms: C_2  and  C_19
REMARK    2  A    between atoms: N_3  and  C_4
REMARK    3  A    between atoms: C_4  and  C_5
REMARK    4  A    between atoms: C_8  and  C_9
REMARK    5  A    between atoms: C_9  and  N_10
REMARK    6  A    between atoms: N_10  and  C_11
REMARK                            x       y       z     vdW  Elec       q    Type
REMARK                         _______ _______ _______ _____ _____    ______ ____
ROOT
ATOM      1  C   UNL     1      50.295   8.073  13.948  0.00  0.00    +0.000 C 
ENDROOT
BRANCH   1   2
ATOM      2  C   UNL     1      49.031   8.244  13.102  0.00  0.00    +0.000 C 
ATOM      3  C   UNL     1      47.830   8.670  13.960  0.00  0.00    +0.000 C 
ATOM      4  C   UNL     1      46.551   8.751  13.134  0.00  0.00    +0.000 C 
ATOM      5  C   UNL     1      46.262   7.431  12.402  0.00  0.00    +0.000 C 
ATOM      6  C   UNL     1      47.464   7.015  11.544  0.00  0.00    +0.000 C 
ATOM      7  C   UNL     1      48.740   6.930  12.370  0.00  0.00    +0.000 C 
BRANCH   5   8
ATOM      8  C   UNL     1      44.989   7.587  11.557  0.00  0.00    +0.000 C 
BRANCH   8   9
ATOM      9  N   UNL     1      43.916   6.720  12.042  0.00  0.00    +0.000 NA
ATOM     10  H   UNL     1      43.039   6.958  11.578  0.00  0.00    +0.000 HD
BRANCH   9  11
ATOM     11  C   UNL     1      44.217   5.295  11.862  0.00  0.00    +0.000 C 
ATOM     12  C   UNL     1      44.208   4.870  10.389  0.00  0.00    +0.000 C 
ATOM     13  C   UNL     1      44.385   3.365  10.271  0.00  0.00    +0.000 C 
ATOM     14  O   UNL     1      43.376   2.679  11.006  0.00  0.00    +0.000 OA
ATOM     15  C   UNL     1      43.434   2.976  12.401  0.00  0.00    +0.000 C 
ATOM     16  C   UNL     1      43.197   4.460  12.649  0.00  0.00    +0.000 C 
ENDBRANCH   9  11
ENDBRANCH   8   9
ENDBRANCH   5   8
ENDBRANCH   1   2
BRANCH   1  19
ATOM     17  O   UNL     1      49.921   8.500  16.732  0.00  0.00    +0.000 OA
ATOM     18  C   UNL     1      49.995   7.356  16.298  0.00  0.00    +0.000 C 
ATOM     19  N   UNL     1      50.128   7.068  14.965  0.00  0.00    +0.000 N 
ATOM     20  H   UNL     1      50.217   6.106  14.666  0.00  0.00    +0.000 HD
BRANCH  18  21
ATOM     21  C   UNL     1      49.882   6.184  17.173  0.00  0.00    +0.000 A 
ATOM     22  C   UNL     1      50.720   6.051  18.270  0.00  0.00    +0.000 A 
ATOM     23  S   UNL     1      50.396   4.657  19.198  0.00  0.00    +0.000 S 
ATOM     24  C   UNL     1      49.154   4.169  18.140  0.00  0.00    +0.000 A 
ATOM     25  N   UNL     1      48.445   3.030  18.368  0.00  0.00    +0.000 NA
ATOM     26  C   UNL     1      47.554   2.769  17.470  0.00  0.00    +0.000 A 
ATOM     27  N   UNL     1      47.310   3.536  16.364  0.00  0.00    +0.000 N 
ATOM     28  C   UNL     1      47.980   4.709  16.105  0.00  0.00    +0.000 A 
ATOM     29  O   UNL     1      47.685   5.398  15.138  0.00  0.00    +0.000 OA
ATOM     30  C   UNL     1      48.992   5.052  17.089  0.00  0.00    +0.000 A 
ATOM     31  H   UNL     1      46.589   3.285  15.703  0.00  0.00    +0.000 HD
ENDBRANCH  18  21
ENDBRANCH   1  19
TORSDOF 6
ENDMDL
MODEL 9
REMARK VINA RESULT:    -6.938      4.307      4.822
REMARK INTER + INTRA:         -10.214
REMARK INTER:                  -9.079
REMARK INTRA:                  -1.136
REMARK UNBOUND:                -0.842
REMARK  Name = 
REMARK  6 active torsions:
REMARK  status: ('A' for Active; 'I' for Inactive)
REMARK    1  A    between atoms: C_2  and  C_19
REMARK    2  A    between atoms: N_3  and  C_4
REMARK    3  A    between atoms: C_4  and  C_5
REMARK    4  A    between atoms: C_8  and  C_9
REMARK    5  A    between atoms: C_9  and  N_10
REMARK    6  A    between atoms: N_10  and  C_11
REMARK                            x       y       z     vdW  Elec       q    Type
REMARK                         _______ _______ _______ _____ _____    ______ ____
ROOT
ATOM      1  C   UNL     1      47.571   6.462  13.912  0.00  0.00    +0.000 C 
ENDROOT
BRANCH   1   2
ATOM      2  C   UNL     1      46.945   5.596  12.816  0.00  0.00    +0.000 C 
ATOM      3  C   UNL     1      46.285   6.455  11.726  0.00  0.00    +0.000 C 
ATOM      4  C   UNL     1      45.581   5.593  10.683  0.00  0.00    +0.000 C 
ATOM      5  C   UNL     1      44.560   4.642  11.326  0.00  0.00    +0.000 C 
ATOM      6  C   UNL     1      45.227   3.785  12.410  0.00  0.00    +0.000 C 
ATOM      7  C   UNL     1      45.926   4.646  13.453  0.00  0.00    +0.000 C 
BRANCH   5   8
ATOM      8  C   UNL     1      43.917   3.774  10.234  0.00  0.00    +0.000 C 
BRANCH   8   9
ATOM      9  N   UNL     1      44.221   4.284   8.898  0.00  0.00    +0.000 NA
ATOM     10  H   UNL     1      44.754   5.151   8.969  0.00  0.00    +0.000 HD
BRANCH   9  11
ATOM     11  C   UNL     1      44.943   3.308   8.072  0.00  0.00    +0.000 C 
ATOM     12  C   UNL     1      45.377   2.070   8.864  0.00  0.00    +0.000 C 
ATOM     13  C   UNL     1      46.237   1.162   8.001  0.00  0.00    +0.000 C 
ATOM     14  O   UNL     1      47.367   1.868   7.497  0.00  0.00    +0.000 OA
ATOM     15  C   UNL     1      46.988   2.965   6.666  0.00  0.00    +0.000 C 
ATOM     16  C   UNL     1      46.173   3.983   7.451  0.00  0.00    +0.000 C 
ENDBRANCH   9  11
ENDBRANCH   8   9
ENDBRANCH   5   8
ENDBRANCH   1   2
BRANCH   1  19
ATOM     17  O   UNL     1      48.114   9.211  13.442  0.00  0.00    +0.000 OA
ATOM     18  C   UNL     1      48.990   8.377  13.243  0.00  0.00    +0.000 C 
ATOM     19  N   UNL     1      48.820   7.041  13.491  0.00  0.00    +0.000 N 
ATOM     20  H   UNL     1      49.567   6.391  13.277  0.00  0.00    +0.000 HD
BRANCH  18  21
ATOM     21  C   UNL     1      50.330   8.752  12.780  0.00  0.00    +0.000 A 
ATOM     22  C   UNL     1      50.494   9.360  11.544  0.00  0.00    +0.000 A 
ATOM     23  S   UNL     1      52.115   9.776  11.209  0.00  0.00    +0.000 S 
ATOM     24  C   UNL     1      52.650   9.120  12.687  0.00  0.00    +0.000 A 
ATOM     25  N   UNL     1      53.965   9.156  13.036  0.00  0.00    +0.000 NA
ATOM     26  C   UNL     1      54.231   8.598  14.169  0.00  0.00    +0.000 A 
ATOM     27  N   UNL     1      53.307   8.002  14.984  0.00  0.00    +0.000 N 
ATOM     28  C   UNL     1      51.965   7.965  14.689  0.00  0.00    +0.000 A 
ATOM     29  O   UNL     1      51.164   7.480  15.476  0.00  0.00    +0.000 OA
ATOM     30  C   UNL     1      51.610   8.585  13.424  0.00  0.00    +0.000 A 
ATOM     31  H   UNL     1      53.576   7.593  15.867  0.00  0.00    +0.000 HD
ENDBRANCH  18  21
ENDBRANCH   1  19
TORSDOF 6
ENDMDL
