MODEL 1
REMARK VINA RESULT:    -8.645      0.000      0.000
REMARK INTER + INTRA:         -12.088
REMARK INTER:                 -11.172
REMARK INTRA:                  -0.915
REMARK UNBOUND:                -0.915
REMARK  Name = 
REMARK  5 active torsions:
REMARK  status: ('A' for Active; 'I' for Inactive)
REMARK    1  A    between atoms: C_2  and  C_4
REMARK    2  A    between atoms: C_7  and  C_8
REMARK    3  A    between atoms: C_8  and  C_9
REMARK    4  A    between atoms: C_9  and  C_10
REMARK    5  A    between atoms: C_14  and  C_15
REMARK                            x       y       z     vdW  Elec       q    Type
REMARK                         _______ _______ _______ _____ _____    ______ ____
ROOT
ATOM      1  C   UNL     1      43.969   4.358  11.690  0.00  0.00    +0.000 C 
ENDROOT
BRANCH   1   2
ATOM      2  C   UNL     1      45.276   4.874  12.231  0.00  0.00    +0.000 A 
ATOM      3  C   UNL     1      46.052   4.113  13.096  0.00  0.00    +0.000 A 
ATOM      4  N   UNL     1      47.212   4.539  13.637  0.00  0.00    +0.000 NA
ATOM      5  C   UNL     1      47.620   5.786  13.295  0.00  0.00    +0.000 A 
ATOM      6  C   UNL     1      46.943   6.650  12.429  0.00  0.00    +0.000 A 
ATOM      7  C   UNL     1      45.743   6.151  11.897  0.00  0.00    +0.000 A 
BRANCH   6   8
ATOM      8  C   UNL     1      47.447   8.002  12.105  0.00  0.00    +0.000 A 
ATOM      9  C   UNL     1      46.623   9.143  12.197  0.00  0.00    +0.000 A 
ATOM     10  C   UNL     1      47.101  10.422  11.887  0.00  0.00    +0.000 A 
ATOM     11  C   UNL     1      48.422  10.589  11.488  0.00  0.00    +0.000 A 
ATOM     12  C   UNL     1      49.249   9.479  11.397  0.00  0.00    +0.000 A 
ATOM     13  F   UNL     1      50.523   9.636  11.017  0.00  0.00    +0.000 F 
ATOM     14  C   UNL     1      48.776   8.204  11.693  0.00  0.00    +0.000 A 
ENDBRANCH   6   8
ENDBRANCH   1   2
BRANCH   1  15
ATOM     15  C   UNL     1      43.784   4.702  10.207  0.00  0.00    +0.000 C 
BRANCH  15  19
ATOM     16  C   UNL     1      46.405   2.440   7.714  0.00  0.00    +0.000 A 
ATOM     17  C   UNL     1      45.635   1.769   8.663  0.00  0.00    +0.000 A 
ATOM     18  C   UNL     1      44.767   2.494   9.479  0.00  0.00    +0.000 A 
ATOM     19  C   UNL     1      44.697   3.878   9.331  0.00  0.00    +0.000 A 
ATOM     20  N   UNL     1      45.430   4.545   8.406  0.00  0.00    +0.000 NA
ATOM     21  C   UNL     1      46.276   3.818   7.630  0.00  0.00    +0.000 A 
BRANCH  16  23
ATOM     22  N   UNL     1      48.475   2.453   6.444  0.00  0.00    +0.000 N 
ATOM     23  C   UNL     1      47.373   1.747   6.840  0.00  0.00    +0.000 C 
ATOM     24  O   UNL     1      47.209   0.583   6.500  0.00  0.00    +0.000 OA
ATOM     25  H   UNL     1      49.169   1.950   5.907  0.00  0.00    +0.000 HD
ATOM     26  H   UNL     1      48.757   3.321   6.879  0.00  0.00    +0.000 HD
ENDBRANCH  16  23
ENDBRANCH  15  19
ENDBRANCH   1  15
TORSDOF 5
ENDMDL
MODEL 2
REMARK VINA RESULT:    -8.470      1.617      2.022
REMARK INTER + INTRA:         -11.861
REMARK INTER:                 -10.985
REMARK INTRA:                  -0.876
REMARK UNBOUND:                -0.915
REMARK  Name = 
REMARK  5 active torsions:
REMARK  status: ('A' for Active; 'I' for Inactive)
REMARK    1  A    between atoms: C_2  and  C_4
REMARK    2  A    between atoms: C_7  and  C_8
REMARK    3  A    between atoms: C_8  and  C_9
REMARK    4  A    between atoms: C_9  and  C_10
REMARK    5  A    between atoms: C_14  and  C_15
REMARK                            x       y       z     vdW  Elec       q    Type
REMARK                         _______ _______ _______ _____ _____    ______ ____
ROOT
ATOM      1  C   UNL     1      43.984   5.514  11.007  0.00  0.00    +0.000 C 
ENDROOT
BRANCH   1   2
ATOM      2  C   UNL     1      45.098   5.398  12.011  0.00  0.00    +0.000 A 
ATOM      3  C   UNL     1      45.029   4.502  13.070  0.00  0.00    +0.000 A 
ATOM      4  N   UNL     1      45.982   4.381  14.017  0.00  0.00    +0.000 NA
ATOM      5  C   UNL     1      47.060   5.195  13.901  0.00  0.00    +0.000 A 
ATOM      6  C   UNL     1      47.262   6.131  12.883  0.00  0.00    +0.000 A 
ATOM      7  C   UNL     1      46.237   6.210  11.926  0.00  0.00    +0.000 A 
BRANCH   6   8
ATOM      8  C   UNL     1      48.463   6.990  12.823  0.00  0.00    +0.000 A 
ATOM      9  C   UNL     1      48.840   7.658  11.640  0.00  0.00    +0.000 A 
ATOM     10  C   UNL     1      49.980   8.469  11.584  0.00  0.00    +0.000 A 
ATOM     11  C   UNL     1      50.765   8.638  12.718  0.00  0.00    +0.000 A 
ATOM     12  C   UNL     1      50.408   7.993  13.893  0.00  0.00    +0.000 A 
ATOM     13  F   UNL     1      51.159   8.155  14.990  0.00  0.00    +0.000 F 
ATOM     14  C   UNL     1      49.282   7.177  13.951  0.00  0.00    +0.000 A 
ENDBRANCH   6   8
ENDBRANCH   1   2
BRANCH   1  15
ATOM     15  C   UNL     1      43.549   4.146  10.469  0.00  0.00    +0.000 C 
BRANCH  15  19
ATOM     16  C   UNL     1      46.413   2.459   7.794  0.00  0.00    +0.000 A 
ATOM     17  C   UNL     1      46.212   3.839   7.780  0.00  0.00    +0.000 A 
ATOM     18  C   UNL     1      45.285   4.405   8.655  0.00  0.00    +0.000 A 
ATOM     19  C   UNL     1      44.574   3.574   9.519  0.00  0.00    +0.000 A 
ATOM     20  N   UNL     1      44.766   2.233   9.553  0.00  0.00    +0.000 NA
ATOM     21  C   UNL     1      45.666   1.703   8.684  0.00  0.00    +0.000 A 
BRANCH  16  23
ATOM     22  N   UNL     1      48.428   2.500   6.440  0.00  0.00    +0.000 N 
ATOM     23  C   UNL     1      47.348   1.782   6.873  0.00  0.00    +0.000 C 
ATOM     24  O   UNL     1      47.176   0.622   6.525  0.00  0.00    +0.000 OA
ATOM     25  H   UNL     1      49.103   2.007   5.869  0.00  0.00    +0.000 HD
ATOM     26  H   UNL     1      48.724   3.364   6.873  0.00  0.00    +0.000 HD
ENDBRANCH  16  23
ENDBRANCH  15  19
ENDBRANCH   1  15
TORSDOF 5
ENDMDL
MODEL 3
REMARK VINA RESULT:    -8.377      2.898      4.215
REMARK INTER + INTRA:         -11.741
REMARK INTER:                 -11.112
REMARK INTRA:                  -0.629
REMARK UNBOUND:                -0.915
REMARK  Name = 
REMARK  5 active torsions:
REMARK  status: ('A' for Active; 'I' for Inactive)
REMARK    1  A    between atoms: C_2  and  C_4
REMARK    2  A    between atoms: C_7  and  C_8
REMARK    3  A    between atoms: C_8  and  C_9
REMARK    4  A    between atoms: C_9  and  C_10
REMARK    5  A    between atoms: C_14  and  C_15
REMARK                            x       y       z     vdW  Elec       q    Type
REMARK                         _______ _______ _______ _____ _____    ______ ____
ROOT
ATOM      1  C   UNL     1      44.070   4.590  11.653  0.00  0.00    +0.000 C 
ENDROOT
BRANCH   1   2
ATOM      2  C   UNL     1      45.312   5.232  12.208  0.00  0.00    +0.000 A 
ATOM      3  C   UNL     1      46.013   6.193  11.490  0.00  0.00    +0.000 A 
ATOM      4  N   UNL     1      47.149   6.776  11.924  0.00  0.00    +0.000 NA
ATOM      5  C   UNL     1      47.610   6.381  13.137  0.00  0.00    +0.000 A 
ATOM      6  C   UNL     1      47.000   5.435  13.965  0.00  0.00    +0.000 A 
ATOM      7  C   UNL     1      45.819   4.865  13.461  0.00  0.00    +0.000 A 
BRANCH   6   8
ATOM      8  C   UNL     1      47.563   5.050  15.277  0.00  0.00    +0.000 A 
ATOM      9  C   UNL     1      48.564   5.817  15.908  0.00  0.00    +0.000 A 
ATOM     10  C   UNL     1      49.098   5.450  17.149  0.00  0.00    +0.000 A 
ATOM     11  C   UNL     1      48.633   4.309  17.792  0.00  0.00    +0.000 A 
ATOM     12  C   UNL     1      47.645   3.545  17.190  0.00  0.00    +0.000 A 
ATOM     13  F   UNL     1      47.190   2.447  17.807  0.00  0.00    +0.000 F 
ATOM     14  C   UNL     1      47.118   3.899  15.951  0.00  0.00    +0.000 A 
ENDBRANCH   6   8
ENDBRANCH   1   2
BRANCH   1  15
ATOM     15  C   UNL     1      43.895   4.871  10.156  0.00  0.00    +0.000 C 
BRANCH  15  19
ATOM     16  C   UNL     1      46.346   2.323   7.769  0.00  0.00    +0.000 A 
ATOM     17  C   UNL     1      45.525   1.749   8.738  0.00  0.00    +0.000 A 
ATOM     18  C   UNL     1      44.712   2.569   9.520  0.00  0.00    +0.000 A 
ATOM     19  C   UNL     1      44.746   3.948   9.318  0.00  0.00    +0.000 A 
ATOM     20  N   UNL     1      45.530   4.520   8.373  0.00  0.00    +0.000 NA
ATOM     21  C   UNL     1      46.321   3.702   7.630  0.00  0.00    +0.000 A 
BRANCH  16  23
ATOM     22  N   UNL     1      48.337   2.174   6.387  0.00  0.00    +0.000 N 
ATOM     23  C   UNL     1      47.262   1.525   6.928  0.00  0.00    +0.000 C 
ATOM     24  O   UNL     1      47.080   0.330   6.739  0.00  0.00    +0.000 OA
ATOM     25  H   UNL     1      49.000   1.606   5.873  0.00  0.00    +0.000 HD
ATOM     26  H   UNL     1      48.644   3.085   6.697  0.00  0.00    +0.000 HD
ENDBRANCH  16  23
ENDBRANCH  15  19
ENDBRANCH   1  15
TORSDOF 5
ENDMDL
MODEL 4
REMARK VINA RESULT:    -8.339      3.963      7.445
REMARK INTER + INTRA:         -11.692
REMARK INTER:                 -11.068
REMARK INTRA:                  -0.624
REMARK UNBOUND:                -0.915
REMARK  Name = 
REMARK  5 active torsions:
REMARK  status: ('A' for Active; 'I' for Inactive)
REMARK    1  A    between atoms: C_2  and  C_4
REMARK    2  A    between atoms: C_7  and  C_8
REMARK    3  A    between atoms: C_8  and  C_9
REMARK    4  A    between atoms: C_9  and  C_10
REMARK    5  A    between atoms: C_14  and  C_15
REMARK                            x       y       z     vdW  Elec       q    Type
REMARK                         _______ _______ _______ _____ _____    ______ ____
ROOT
ATOM      1  C   UNL     1      46.075   7.242  11.845  0.00  0.00    +0.000 C 
ENDROOT
BRANCH   1   2
ATOM      2  C   UNL     1      45.272   6.223  11.082  0.00  0.00    +0.000 A 
ATOM      3  C   UNL     1      43.911   6.059  11.306  0.00  0.00    +0.000 A 
ATOM      4  N   UNL     1      43.151   5.139  10.676  0.00  0.00    +0.000 NA
ATOM      5  C   UNL     1      43.781   4.343   9.777  0.00  0.00    +0.000 A 
ATOM      6  C   UNL     1      45.138   4.408   9.450  0.00  0.00    +0.000 A 
ATOM      7  C   UNL     1      45.877   5.386  10.136  0.00  0.00    +0.000 A 
BRANCH   6   8
ATOM      8  C   UNL     1      45.758   3.502   8.460  0.00  0.00    +0.000 A 
ATOM      9  C   UNL     1      46.327   3.987   7.265  0.00  0.00    +0.000 A 
ATOM     10  C   UNL     1      46.912   3.128   6.327  0.00  0.00    +0.000 A 
ATOM     11  C   UNL     1      46.950   1.760   6.570  0.00  0.00    +0.000 A 
ATOM     12  C   UNL     1      46.399   1.265   7.743  0.00  0.00    +0.000 A 
ATOM     13  F   UNL     1      46.436  -0.052   7.984  0.00  0.00    +0.000 F 
ATOM     14  C   UNL     1      45.807   2.113   8.673  0.00  0.00    +0.000 A 
ENDBRANCH   6   8
ENDBRANCH   1   2
BRANCH   1  15
ATOM     15  C   UNL     1      47.475   6.726  12.196  0.00  0.00    +0.000 C 
BRANCH  15  19
ATOM     16  C   UNL     1      47.470   4.527  15.852  0.00  0.00    +0.000 A 
ATOM     17  C   UNL     1      46.702   4.060  14.786  0.00  0.00    +0.000 A 
ATOM     18  C   UNL     1      46.700   4.764  13.582  0.00  0.00    +0.000 A 
ATOM     19  C   UNL     1      47.464   5.926  13.476  0.00  0.00    +0.000 A 
ATOM     20  N   UNL     1      48.225   6.386  14.498  0.00  0.00    +0.000 NA
ATOM     21  C   UNL     1      48.202   5.689  15.664  0.00  0.00    +0.000 A 
BRANCH  16  23
ATOM     22  N   UNL     1      48.436   4.278  18.065  0.00  0.00    +0.000 N 
ATOM     23  C   UNL     1      47.494   3.858  17.168  0.00  0.00    +0.000 C 
ATOM     24  O   UNL     1      46.692   2.979  17.454  0.00  0.00    +0.000 OA
ATOM     25  H   UNL     1      48.399   3.867  18.990  0.00  0.00    +0.000 HD
ATOM     26  H   UNL     1      48.956   5.137  17.955  0.00  0.00    +0.000 HD
ENDBRANCH  16  23
ENDBRANCH  15  19
ENDBRANCH   1  15
TORSDOF 5
ENDMDL
MODEL 5
REMARK VINA RESULT:    -7.988      3.560      6.968
REMARK INTER + INTRA:         -11.238
REMARK INTER:                 -10.442
REMARK INTRA:                  -0.796
REMARK UNBOUND:                -0.915
REMARK  Name = 
REMARK  5 active torsions:
REMARK  status: ('A' for Active; 'I' for Inactive)
REMARK    1  A    between atoms: C_2  and  C_4
REMARK    2  A    between atoms: C_7  and  C_8
REMARK    3  A    between atoms: C_8  and  C_9
REMARK    4  A    between atoms: C_9  and  C_10
REMARK    5  A    between atoms: C_14  and  C_15
REMARK                            x       y       z     vdW  Elec       q    Type
REMARK                         _______ _______ _______ _____ _____    ______ ____
ROOT
ATOM      1  C   UNL     1      44.231   6.539  11.388  0.00  0.00    +0.000 C 
ENDROOT
BRANCH   1   2
ATOM      2  C   UNL     1      44.139   5.104  10.944  0.00  0.00    +0.000 A 
ATOM      3  C   UNL     1      43.309   4.198  11.591  0.00  0.00    +0.000 A 
ATOM      4  N   UNL     1      43.214   2.895  11.257  0.00  0.00    +0.000 NA
ATOM      5  C   UNL     1      43.985   2.474  10.224  0.00  0.00    +0.000 A 
ATOM      6  C   UNL     1      44.854   3.280   9.482  0.00  0.00    +0.000 A 
ATOM      7  C   UNL     1      44.908   4.627   9.875  0.00  0.00    +0.000 A 
BRANCH   6   8
ATOM      8  C   UNL     1      45.669   2.750   8.369  0.00  0.00    +0.000 A 
ATOM      9  C   UNL     1      46.169   1.432   8.377  0.00  0.00    +0.000 A 
ATOM     10  C   UNL     1      46.943   0.932   7.323  0.00  0.00    +0.000 A 
ATOM     11  C   UNL     1      47.226   1.740   6.228  0.00  0.00    +0.000 A 
ATOM     12  C   UNL     1      46.738   3.039   6.199  0.00  0.00    +0.000 A 
ATOM     13  F   UNL     1      47.004   3.820   5.145  0.00  0.00    +0.000 F 
ATOM     14  C   UNL     1      45.978   3.544   7.250  0.00  0.00    +0.000 A 
ENDBRANCH   6   8
ENDBRANCH   1   2
BRANCH   1  15
ATOM     15  C   UNL     1      44.906   6.676  12.758  0.00  0.00    +0.000 C 
BRANCH  15  19
ATOM     16  C   UNL     1      49.043   7.643  12.373  0.00  0.00    +0.000 A 
ATOM     17  C   UNL     1      48.094   8.593  11.999  0.00  0.00    +0.000 A 
ATOM     18  C   UNL     1      46.738   8.294  12.128  0.00  0.00    +0.000 A 
ATOM     19  C   UNL     1      46.364   7.045  12.621  0.00  0.00    +0.000 A 
ATOM     20  N   UNL     1      47.273   6.115  12.999  0.00  0.00    +0.000 NA
ATOM     21  C   UNL     1      48.588   6.426  12.855  0.00  0.00    +0.000 A 
BRANCH  16  23
ATOM     22  N   UNL     1      51.103   7.357  11.120  0.00  0.00    +0.000 N 
ATOM     23  C   UNL     1      50.496   7.871  12.232  0.00  0.00    +0.000 C 
ATOM     24  O   UNL     1      51.127   8.509  13.063  0.00  0.00    +0.000 OA
ATOM     25  H   UNL     1      52.083   7.580  10.992  0.00  0.00    +0.000 HD
ATOM     26  H   UNL     1      50.589   7.030  10.314  0.00  0.00    +0.000 HD
ENDBRANCH  16  23
ENDBRANCH  15  19
ENDBRANCH   1  15
TORSDOF 5
ENDMDL
MODEL 6
REMARK VINA RESULT:    -7.941      3.935      7.264
REMARK INTER + INTRA:         -11.178
REMARK INTER:                 -10.379
REMARK INTRA:                  -0.799
REMARK UNBOUND:                -0.915
REMARK  Name = 
REMARK  5 active torsions:
REMARK  status: ('A' for Active; 'I' for Inactive)
REMARK    1  A    between atoms: C_2  and  C_4
REMARK    2  A    between atoms: C_7  and  C_8
REMARK    3  A    between atoms: C_8  and  C_9
REMARK    4  A    between atoms: C_9  and  C_10
REMARK    5  A    between atoms: C_14  and  C_15
REMARK                            x       y       z     vdW  Elec       q    Type
REMARK                         _______ _______ _______ _____ _____    ______ ____
ROOT
ATOM      1  C   UNL     1      44.230   6.615  11.643  0.00  0.00    +0.000 C 
ENDROOT
BRANCH   1   2
ATOM      2  C   UNL     1      44.108   5.196  11.159  0.00  0.00    +0.000 A 
ATOM      3  C   UNL     1      43.238   4.297  11.764  0.00  0.00    +0.000 A 
ATOM      4  N   UNL     1      43.113   3.006  11.393  0.00  0.00    +0.000 NA
ATOM      5  C   UNL     1      43.895   2.591  10.366  0.00  0.00    +0.000 A 
ATOM      6  C   UNL     1      44.802   3.390   9.665  0.00  0.00    +0.000 A 
ATOM      7  C   UNL     1      44.886   4.725  10.095  0.00  0.00    +0.000 A 
BRANCH   6   8
ATOM      8  C   UNL     1      45.627   2.866   8.555  0.00  0.00    +0.000 A 
ATOM      9  C   UNL     1      46.123   3.707   7.538  0.00  0.00    +0.000 A 
ATOM     10  C   UNL     1      46.902   3.209   6.487  0.00  0.00    +0.000 A 
ATOM     11  C   UNL     1      47.211   1.855   6.436  0.00  0.00    +0.000 A 
ATOM     12  C   UNL     1      46.736   1.013   7.430  0.00  0.00    +0.000 A 
ATOM     13  F   UNL     1      47.035  -0.292   7.388  0.00  0.00    +0.000 F 
ATOM     14  C   UNL     1      45.952   1.501   8.471  0.00  0.00    +0.000 A 
ENDBRANCH   6   8
ENDBRANCH   1   2
BRANCH   1  15
ATOM     15  C   UNL     1      45.193   6.738  12.830  0.00  0.00    +0.000 C 
BRANCH  15  19
ATOM     16  C   UNL     1      48.637   9.057  11.846  0.00  0.00    +0.000 A 
ATOM     17  C   UNL     1      48.643   7.692  11.563  0.00  0.00    +0.000 A 
ATOM     18  C   UNL     1      47.521   6.923  11.871  0.00  0.00    +0.000 A 
ATOM     19  C   UNL     1      46.420   7.539  12.464  0.00  0.00    +0.000 A 
ATOM     20  N   UNL     1      46.394   8.866  12.735  0.00  0.00    +0.000 NA
ATOM     21  C   UNL     1      47.502   9.593  12.436  0.00  0.00    +0.000 A 
BRANCH  16  23
ATOM     22  N   UNL     1      50.950   9.660  12.273  0.00  0.00    +0.000 N 
ATOM     23  C   UNL     1      49.800   9.929  11.584  0.00  0.00    +0.000 C 
ATOM     24  O   UNL     1      49.745  10.842  10.771  0.00  0.00    +0.000 OA
ATOM     25  H   UNL     1      51.763  10.214  12.034  0.00  0.00    +0.000 HD
ATOM     26  H   UNL     1      51.103   8.794  12.771  0.00  0.00    +0.000 HD
ENDBRANCH  16  23
ENDBRANCH  15  19
ENDBRANCH   1  15
TORSDOF 5
ENDMDL
MODEL 7
REMARK VINA RESULT:    -7.812      4.402      7.801
REMARK INTER + INTRA:         -11.010
REMARK INTER:                 -10.332
REMARK INTRA:                  -0.678
REMARK UNBOUND:                -0.915
REMARK  Name = 
REMARK  5 active torsions:
REMARK  status: ('A' for Active; 'I' for Inactive)
REMARK    1  A    between atoms: C_2  and  C_4
REMARK    2  A    between atoms: C_7  and  C_8
REMARK    3  A    between atoms: C_8  and  C_9
REMARK    4  A    between atoms: C_9  and  C_10
REMARK    5  A    between atoms: C_14  and  C_15
REMARK                            x       y       z     vdW  Elec       q    Type
REMARK                         _______ _______ _______ _____ _____    ______ ____
ROOT
ATOM      1  C   UNL     1      45.178   5.891  12.872  0.00  0.00    +0.000 C 
ENDROOT
BRANCH   1   2
ATOM      2  C   UNL     1      44.680   4.778  11.991  0.00  0.00    +0.000 A 
ATOM      3  C   UNL     1      43.551   4.040  12.325  0.00  0.00    +0.000 A 
ATOM      4  N   UNL     1      43.081   3.012  11.590  0.00  0.00    +0.000 NA
ATOM      5  C   UNL     1      43.770   2.705  10.463  0.00  0.00    +0.000 A 
ATOM      6  C   UNL     1      44.911   3.370  10.006  0.00  0.00    +0.000 A 
ATOM      7  C   UNL     1      45.352   4.433  10.812  0.00  0.00    +0.000 A 
BRANCH   6   8
ATOM      8  C   UNL     1      45.614   2.976   8.767  0.00  0.00    +0.000 A 
ATOM      9  C   UNL     1      45.943   3.917   7.769  0.00  0.00    +0.000 A 
ATOM     10  C   UNL     1      46.607   3.542   6.595  0.00  0.00    +0.000 A 
ATOM     11  C   UNL     1      46.967   2.214   6.398  0.00  0.00    +0.000 A 
ATOM     12  C   UNL     1      46.657   1.275   7.370  0.00  0.00    +0.000 A 
ATOM     13  F   UNL     1      47.006  -0.005   7.187  0.00  0.00    +0.000 F 
ATOM     14  C   UNL     1      45.987   1.641   8.534  0.00  0.00    +0.000 A 
ENDBRANCH   6   8
ENDBRANCH   1   2
BRANCH   1  15
ATOM     15  C   UNL     1      46.710   5.958  12.905  0.00  0.00    +0.000 C 
BRANCH  15  19
ATOM     16  C   UNL     1      48.222   4.688  16.687  0.00  0.00    +0.000 A 
ATOM     17  C   UNL     1      48.641   5.914  16.174  0.00  0.00    +0.000 A 
ATOM     18  C   UNL     1      48.148   6.346  14.942  0.00  0.00    +0.000 A 
ATOM     19  C   UNL     1      47.252   5.534  14.249  0.00  0.00    +0.000 A 
ATOM     20  N   UNL     1      46.826   4.345  14.740  0.00  0.00    +0.000 NA
ATOM     21  C   UNL     1      47.328   3.941  15.936  0.00  0.00    +0.000 A 
BRANCH  16  23
ATOM     22  N   UNL     1      47.829   3.501  18.768  0.00  0.00    +0.000 N 
ATOM     23  C   UNL     1      48.727   4.146  17.965  0.00  0.00    +0.000 C 
ATOM     24  O   UNL     1      49.904   4.251  18.284  0.00  0.00    +0.000 OA
ATOM     25  H   UNL     1      48.196   3.068  19.607  0.00  0.00    +0.000 HD
ATOM     26  H   UNL     1      46.920   3.199  18.446  0.00  0.00    +0.000 HD
ENDBRANCH  16  23
ENDBRANCH  15  19
ENDBRANCH   1  15
TORSDOF 5
ENDMDL
MODEL 8
REMARK VINA RESULT:    -6.661      3.963      7.587
REMARK INTER + INTRA:          -9.524
REMARK INTER:                  -9.192
REMARK INTRA:                  -0.332
REMARK UNBOUND:                -0.915
REMARK  Name = 
REMARK  5 active torsions:
REMARK  status: ('A' for Active; 'I' for Inactive)
REMARK    1  A    between atoms: C_2  and  C_4
REMARK    2  A    between atoms: C_7  and  C_8
REMARK    3  A    between atoms: C_8  and  C_9
REMARK    4  A    between atoms: C_9  and  C_10
REMARK    5  A    between atoms: C_14  and  C_15
REMARK                            x       y       z     vdW  Elec       q    Type
REMARK                         _______ _______ _______ _____ _____    ______ ____
ROOT
ATOM      1  C   UNL     1      48.747   7.652  13.082  0.00  0.00    +0.000 C 
ENDROOT
BRANCH   1   2
ATOM      2  C   UNL     1      47.378   7.534  12.471  0.00  0.00    +0.000 A 
ATOM      3  C   UNL     1      46.418   8.524  12.647  0.00  0.00    +0.000 A 
ATOM      4  N   UNL     1      45.166   8.453  12.150  0.00  0.00    +0.000 NA
ATOM      5  C   UNL     1      44.855   7.340  11.441  0.00  0.00    +0.000 A 
ATOM      6  C   UNL     1      45.725   6.277  11.180  0.00  0.00    +0.000 A 
ATOM      7  C   UNL     1      47.015   6.408  11.721  0.00  0.00    +0.000 A 
BRANCH   6   8
ATOM      8  C   UNL     1      45.314   5.091  10.401  0.00  0.00    +0.000 A 
ATOM      9  C   UNL     1      44.555   4.051  10.977  0.00  0.00    +0.000 A 
ATOM     10  C   UNL     1      44.169   2.926  10.238  0.00  0.00    +0.000 A 
ATOM     11  C   UNL     1      44.525   2.822   8.899  0.00  0.00    +0.000 A 
ATOM     12  C   UNL     1      45.266   3.838   8.313  0.00  0.00    +0.000 A 
ATOM     13  F   UNL     1      45.609   3.744   7.022  0.00  0.00    +0.000 F 
ATOM     14  C   UNL     1      45.663   4.952   9.046  0.00  0.00    +0.000 A 
ENDBRANCH   6   8
ENDBRANCH   1   2
BRANCH   1  15
ATOM     15  C   UNL     1      48.686   8.054  14.560  0.00  0.00    +0.000 C 
BRANCH  15  19
ATOM     16  C   UNL     1      48.013   4.624  17.007  0.00  0.00    +0.000 A 
ATOM     17  C   UNL     1      48.527   5.778  17.595  0.00  0.00    +0.000 A 
ATOM     18  C   UNL     1      48.745   6.910  16.810  0.00  0.00    +0.000 A 
ATOM     19  C   UNL     1      48.448   6.856  15.449  0.00  0.00    +0.000 A 
ATOM     20  N   UNL     1      47.936   5.746  14.863  0.00  0.00    +0.000 NA
ATOM     21  C   UNL     1      47.743   4.653  15.647  0.00  0.00    +0.000 A 
BRANCH  16  23
ATOM     22  N   UNL     1      48.781   2.980  18.619  0.00  0.00    +0.000 N 
ATOM     23  C   UNL     1      47.791   3.376  17.764  0.00  0.00    +0.000 C 
ATOM     24  O   UNL     1      46.757   2.732  17.648  0.00  0.00    +0.000 OA
ATOM     25  H   UNL     1      48.591   2.164  19.189  0.00  0.00    +0.000 HD
ATOM     26  H   UNL     1      49.534   3.588  18.910  0.00  0.00    +0.000 HD
ENDBRANCH  16  23
ENDBRANCH  15  19
ENDBRANCH   1  15
TORSDOF 5
ENDMDL
MODEL 9
REMARK VINA RESULT:    -6.531      3.954      6.077
REMARK INTER + INTRA:          -9.355
REMARK INTER:                  -8.503
REMARK INTRA:                  -0.852
REMARK UNBOUND:                -0.915
REMARK  Name = 
REMARK  5 active torsions:
REMARK  status: ('A' for Active; 'I' for Inactive)
REMARK    1  A    between atoms: C_2  and  C_4
REMARK    2  A    between atoms: C_7  and  C_8
REMARK    3  A    between atoms: C_8  and  C_9
REMARK    4  A    between atoms: C_9  and  C_10
REMARK    5  A    between atoms: C_14  and  C_15
REMARK                            x       y       z     vdW  Elec       q    Type
REMARK                         _______ _______ _______ _____ _____    ______ ____
ROOT
ATOM      1  C   UNL     1      47.533   8.092  12.474  0.00  0.00    +0.000 C 
ENDROOT
BRANCH   1   2
ATOM      2  C   UNL     1      48.522   7.850  13.582  0.00  0.00    +0.000 A 
ATOM      3  C   UNL     1      49.704   8.575  13.669  0.00  0.00    +0.000 A 
ATOM      4  N   UNL     1      50.640   8.377  14.620  0.00  0.00    +0.000 NA
ATOM      5  C   UNL     1      50.383   7.407  15.532  0.00  0.00    +0.000 A 
ATOM      6  C   UNL     1      49.233   6.614  15.568  0.00  0.00    +0.000 A 
ATOM      7  C   UNL     1      48.295   6.867  14.554  0.00  0.00    +0.000 A 
BRANCH   6   8
ATOM      8  C   UNL     1      49.022   5.570  16.593  0.00  0.00    +0.000 A 
ATOM      9  C   UNL     1      49.910   5.403  17.675  0.00  0.00    +0.000 A 
ATOM     10  C   UNL     1      49.711   4.412  18.644  0.00  0.00    +0.000 A 
ATOM     11  C   UNL     1      48.609   3.570  18.556  0.00  0.00    +0.000 A 
ATOM     12  C   UNL     1      47.722   3.722  17.501  0.00  0.00    +0.000 A 
ATOM     13  F   UNL     1      46.656   2.916  17.414  0.00  0.00    +0.000 F 
ATOM     14  C   UNL     1      47.921   4.698  16.529  0.00  0.00    +0.000 A 
ENDBRANCH   6   8
ENDBRANCH   1   2
BRANCH   1  15
ATOM     15  C   UNL     1      46.090   7.839  12.925  0.00  0.00    +0.000 C 
BRANCH  15  19
ATOM     16  C   UNL     1      44.532   4.170  11.404  0.00  0.00    +0.000 A 
ATOM     17  C   UNL     1      45.180   5.039  10.528  0.00  0.00    +0.000 A 
ATOM     18  C   UNL     1      45.702   6.238  11.012  0.00  0.00    +0.000 A 
ATOM     19  C   UNL     1      45.555   6.543  12.365  0.00  0.00    +0.000 A 
ATOM     20  N   UNL     1      44.938   5.705  13.232  0.00  0.00    +0.000 NA
ATOM     21  C   UNL     1      44.429   4.547  12.734  0.00  0.00    +0.000 A 
BRANCH  16  23
ATOM     22  N   UNL     1      44.523   2.249   9.919  0.00  0.00    +0.000 N 
ATOM     23  C   UNL     1      43.921   2.901  10.960  0.00  0.00    +0.000 C 
ATOM     24  O   UNL     1      42.930   2.441  11.510  0.00  0.00    +0.000 OA
ATOM     25  H   UNL     1      44.143   1.344   9.669  0.00  0.00    +0.000 HD
ATOM     26  H   UNL     1      45.453   2.472   9.594  0.00  0.00    +0.000 HD
ENDBRANCH  16  23
ENDBRANCH  15  19
ENDBRANCH   1  15
TORSDOF 5
ENDMDL
