MODEL 1
REMARK VINA RESULT:    -7.692      0.000      0.000
REMARK INTER + INTRA:         -10.222
REMARK INTER:                  -9.716
REMARK INTRA:                  -0.507
REMARK UNBOUND:                -0.507
REMARK  Name = 
REMARK  8 active torsions:
REMARK  status: ('A' for Active; 'I' for Inactive)
REMARK    1  A    between atoms: C_1  and  C_2
REMARK    2  A    between atoms: C_2  and  C_3
REMARK    3  A    between atoms: C_2  and  C_4
REMARK    4  A    between atoms: C_2  and  C_5
REMARK    5  A    between atoms: N_7  and  C_8
REMARK    6  A    between atoms: C_8  and  C_9
REMARK    7  A    between atoms: C_12  and  C_13
REMARK    8  A    between atoms: C_13  and  N_14
REMARK                            x       y       z     vdW  Elec       q    Type
REMARK                         _______ _______ _______ _____ _____    ______ ____
ROOT
ATOM      1  C   UNL     1      46.163   7.165  12.071  0.00  0.00    +0.000 A 
ATOM      2  C   UNL     1      45.181   6.869  11.138  0.00  0.00    +0.000 A 
ATOM      3  N   UNL     1      44.915   5.524  11.167  0.00  0.00    +0.000 N 
ATOM      4  C   UNL     1      45.653   4.924  12.164  0.00  0.00    +0.000 A 
ATOM      5  C   UNL     1      45.683   3.586  12.596  0.00  0.00    +0.000 A 
ATOM      6  C   UNL     1      46.514   3.249  13.661  0.00  0.00    +0.000 A 
ATOM      7  C   UNL     1      47.286   4.216  14.292  0.00  0.00    +0.000 A 
ATOM      8  C   UNL     1      47.245   5.548  13.859  0.00  0.00    +0.000 A 
ATOM      9  C   UNL     1      46.427   5.924  12.767  0.00  0.00    +0.000 A 
ENDROOT
BRANCH   1  11
ATOM     10  C   UNL     1      48.162   8.635  11.698  0.00  0.00    +0.000 C 
ATOM     11  C   UNL     1      46.758   8.558  12.324  0.00  0.00    +0.000 C 
ATOM     12  C   UNL     1      46.884   8.844  13.841  0.00  0.00    +0.000 C 
ATOM     13  C   UNL     1      45.885   9.696  11.756  0.00  0.00    +0.000 C 
ENDBRANCH   1  11
BRANCH   3  14
ATOM     14  C   UNL     1      44.006   4.842  10.247  0.00  0.00    +0.000 C 
BRANCH  14  15
ATOM     15  C   UNL     1      44.769   3.984   9.272  0.00  0.00    +0.000 A 
ATOM     16  C   UNL     1      44.740   2.596   9.388  0.00  0.00    +0.000 A 
ATOM     17  C   UNL     1      45.600   1.838   8.598  0.00  0.00    +0.000 A 
ATOM     18  C   UNL     1      46.474   2.472   7.713  0.00  0.00    +0.000 A 
ATOM     19  C   UNL     1      46.375   3.853   7.607  0.00  0.00    +0.000 A 
ATOM     20  N   UNL     1      45.540   4.616   8.350  0.00  0.00    +0.000 NA
BRANCH  18  21
ATOM     21  C   UNL     1      47.497   1.694   6.936  0.00  0.00    +0.000 C 
BRANCH  21  22
ATOM     22  N   UNL     1      48.550   2.567   6.429  0.00  0.00    +0.000 NA
ATOM     23  H   UNL     1      48.167   3.501   6.279  0.00  0.00    +0.000 HD
ATOM     24  H   UNL     1      48.860   2.236   5.517  0.00  0.00    +0.000 HD
ENDBRANCH  21  22
ENDBRANCH  18  21
ENDBRANCH  14  15
ENDBRANCH   3  14
TORSDOF 5
ENDMDL
MODEL 2
REMARK VINA RESULT:    -6.629      1.292      3.114
REMARK INTER + INTRA:          -8.879
REMARK INTER:                  -8.477
REMARK INTRA:                  -0.402
REMARK UNBOUND:                -0.507
REMARK  Name = 
REMARK  8 active torsions:
REMARK  status: ('A' for Active; 'I' for Inactive)
REMARK    1  A    between atoms: C_1  and  C_2
REMARK    2  A    between atoms: C_2  and  C_3
REMARK    3  A    between atoms: C_2  and  C_4
REMARK    4  A    between atoms: C_2  and  C_5
REMARK    5  A    between atoms: N_7  and  C_8
REMARK    6  A    between atoms: C_8  and  C_9
REMARK    7  A    between atoms: C_12  and  C_13
REMARK    8  A    between atoms: C_13  and  N_14
REMARK                            x       y       z     vdW  Elec       q    Type
REMARK                         _______ _______ _______ _____ _____    ______ ____
ROOT
ATOM      1  C   UNL     1      46.462   6.679  12.578  0.00  0.00    +0.000 A 
ATOM      2  C   UNL     1      45.852   5.565  12.023  0.00  0.00    +0.000 A 
ATOM      3  N   UNL     1      44.723   5.953  11.348  0.00  0.00    +0.000 N 
ATOM      4  C   UNL     1      44.609   7.325  11.378  0.00  0.00    +0.000 A 
ATOM      5  C   UNL     1      43.652   8.174  10.794  0.00  0.00    +0.000 A 
ATOM      6  C   UNL     1      43.791   9.549  10.961  0.00  0.00    +0.000 A 
ATOM      7  C   UNL     1      44.860  10.072  11.677  0.00  0.00    +0.000 A 
ATOM      8  C   UNL     1      45.813   9.220  12.250  0.00  0.00    +0.000 A 
ATOM      9  C   UNL     1      45.694   7.815  12.117  0.00  0.00    +0.000 A 
ENDROOT
BRANCH   1  11
ATOM     10  C   UNL     1      48.970   6.615  12.513  0.00  0.00    +0.000 C 
ATOM     11  C   UNL     1      47.737   6.661  13.434  0.00  0.00    +0.000 C 
ATOM     12  C   UNL     1      47.771   5.417  14.357  0.00  0.00    +0.000 C 
ATOM     13  C   UNL     1      47.849   7.881  14.372  0.00  0.00    +0.000 C 
ENDBRANCH   1  11
BRANCH   3  14
ATOM     14  C   UNL     1      43.776   5.029  10.725  0.00  0.00    +0.000 C 
BRANCH  14  15
ATOM     15  C   UNL     1      44.469   4.142   9.723  0.00  0.00    +0.000 A 
ATOM     16  C   UNL     1      44.395   2.756   9.846  0.00  0.00    +0.000 A 
ATOM     17  C   UNL     1      45.196   1.966   9.025  0.00  0.00    +0.000 A 
ATOM     18  C   UNL     1      46.055   2.566   8.104  0.00  0.00    +0.000 A 
ATOM     19  C   UNL     1      46.000   3.950   7.996  0.00  0.00    +0.000 A 
ATOM     20  N   UNL     1      45.223   4.744   8.768  0.00  0.00    +0.000 NA
BRANCH  18  21
ATOM     21  C   UNL     1      47.018   1.750   7.290  0.00  0.00    +0.000 C 
BRANCH  21  22
ATOM     22  N   UNL     1      46.972   0.343   7.671  0.00  0.00    +0.000 NA
ATOM     23  H   UNL     1      47.885   0.063   8.030  0.00  0.00    +0.000 HD
ATOM     24  H   UNL     1      46.802  -0.230   6.845  0.00  0.00    +0.000 HD
ENDBRANCH  21  22
ENDBRANCH  18  21
ENDBRANCH  14  15
ENDBRANCH   3  14
TORSDOF 5
ENDMDL
MODEL 3
REMARK VINA RESULT:    -5.815      2.489      6.160
REMARK INTER + INTRA:          -7.851
REMARK INTER:                  -7.211
REMARK INTRA:                  -0.640
REMARK UNBOUND:                -0.507
REMARK  Name = 
REMARK  8 active torsions:
REMARK  status: ('A' for Active; 'I' for Inactive)
REMARK    1  A    between atoms: C_1  and  C_2
REMARK    2  A    between atoms: C_2  and  C_3
REMARK    3  A    between atoms: C_2  and  C_4
REMARK    4  A    between atoms: C_2  and  C_5
REMARK    5  A    between atoms: N_7  and  C_8
REMARK    6  A    between atoms: C_8  and  C_9
REMARK    7  A    between atoms: C_12  and  C_13
REMARK    8  A    between atoms: C_13  and  N_14
REMARK                            x       y       z     vdW  Elec       q    Type
REMARK                         _______ _______ _______ _____ _____    ______ ____
ROOT
ATOM      1  C   UNL     1      45.446   4.226   9.393  0.00  0.00    +0.000 A 
ATOM      2  C   UNL     1      46.032   5.460   9.633  0.00  0.00    +0.000 A 
ATOM      3  N   UNL     1      45.603   5.939  10.845  0.00  0.00    +0.000 N 
ATOM      4  C   UNL     1      44.796   5.006  11.456  0.00  0.00    +0.000 A 
ATOM      5  C   UNL     1      44.166   5.029  12.713  0.00  0.00    +0.000 A 
ATOM      6  C   UNL     1      43.416   3.924  13.104  0.00  0.00    +0.000 A 
ATOM      7  C   UNL     1      43.305   2.814  12.275  0.00  0.00    +0.000 A 
ATOM      8  C   UNL     1      43.940   2.796  11.027  0.00  0.00    +0.000 A 
ATOM      9  C   UNL     1      44.696   3.911  10.588  0.00  0.00    +0.000 A 
ENDROOT
BRANCH   1  11
ATOM     10  C   UNL     1      46.766   3.999   7.270  0.00  0.00    +0.000 C 
ATOM     11  C   UNL     1      45.650   3.377   8.130  0.00  0.00    +0.000 C 
ATOM     12  C   UNL     1      44.355   3.320   7.281  0.00  0.00    +0.000 C 
ATOM     13  C   UNL     1      46.009   1.910   8.443  0.00  0.00    +0.000 C 
ENDBRANCH   1  11
BRANCH   3  14
ATOM     14  C   UNL     1      45.938   7.260  11.374  0.00  0.00    +0.000 C 
BRANCH  14  15
ATOM     15  C   UNL     1      47.227   7.217  12.155  0.00  0.00    +0.000 A 
ATOM     16  C   UNL     1      47.240   6.729  13.459  0.00  0.00    +0.000 A 
ATOM     17  C   UNL     1      48.398   6.876  14.219  0.00  0.00    +0.000 A 
ATOM     18  C   UNL     1      49.515   7.507  13.672  0.00  0.00    +0.000 A 
ATOM     19  C   UNL     1      49.437   7.887  12.338  0.00  0.00    +0.000 A 
ATOM     20  N   UNL     1      48.332   7.745  11.569  0.00  0.00    +0.000 NA
BRANCH  18  21
ATOM     21  C   UNL     1      50.735   7.790  14.500  0.00  0.00    +0.000 C 
BRANCH  21  22
ATOM     22  N   UNL     1      50.968   6.731  15.477  0.00  0.00    +0.000 NA
ATOM     23  H   UNL     1      51.934   6.781  15.800  0.00  0.00    +0.000 HD
ATOM     24  H   UNL     1      50.863   5.823  15.028  0.00  0.00    +0.000 HD
ENDBRANCH  21  22
ENDBRANCH  18  21
ENDBRANCH  14  15
ENDBRANCH   3  14
TORSDOF 5
ENDMDL
MODEL 4
REMARK VINA RESULT:    -5.769      2.007      4.094
REMARK INTER + INTRA:          -7.793
REMARK INTER:                  -7.157
REMARK INTRA:                  -0.636
REMARK UNBOUND:                -0.507
REMARK  Name = 
REMARK  8 active torsions:
REMARK  status: ('A' for Active; 'I' for Inactive)
REMARK    1  A    between atoms: C_1  and  C_2
REMARK    2  A    between atoms: C_2  and  C_3
REMARK    3  A    between atoms: C_2  and  C_4
REMARK    4  A    between atoms: C_2  and  C_5
REMARK    5  A    between atoms: N_7  and  C_8
REMARK    6  A    between atoms: C_8  and  C_9
REMARK    7  A    between atoms: C_12  and  C_13
REMARK    8  A    between atoms: C_13  and  N_14
REMARK                            x       y       z     vdW  Elec       q    Type
REMARK                         _______ _______ _______ _____ _____    ______ ____
ROOT
ATOM      1  C   UNL     1      47.507   8.367  12.749  0.00  0.00    +0.000 A 
ATOM      2  C   UNL     1      46.782   7.194  12.883  0.00  0.00    +0.000 A 
ATOM      3  N   UNL     1      45.492   7.405  12.465  0.00  0.00    +0.000 N 
ATOM      4  C   UNL     1      45.364   8.688  11.979  0.00  0.00    +0.000 A 
ATOM      5  C   UNL     1      44.256   9.339  11.408  0.00  0.00    +0.000 A 
ATOM      6  C   UNL     1      44.409  10.651  10.968  0.00  0.00    +0.000 A 
ATOM      7  C   UNL     1      45.634  11.296  11.076  0.00  0.00    +0.000 A 
ATOM      8  C   UNL     1      46.734  10.639  11.640  0.00  0.00    +0.000 A 
ATOM      9  C   UNL     1      46.611   9.311  12.117  0.00  0.00    +0.000 A 
ENDROOT
BRANCH   1  11
ATOM     10  C   UNL     1      49.830   8.710  11.861  0.00  0.00    +0.000 C 
ATOM     11  C   UNL     1      48.982   8.549  13.136  0.00  0.00    +0.000 C 
ATOM     12  C   UNL     1      49.509   7.322  13.920  0.00  0.00    +0.000 C 
ATOM     13  C   UNL     1      49.216   9.765  14.057  0.00  0.00    +0.000 C 
ENDBRANCH   1  11
BRANCH   3  14
ATOM     14  C   UNL     1      44.421   6.415  12.560  0.00  0.00    +0.000 C 
BRANCH  14  15
ATOM     15  C   UNL     1      44.694   5.237  11.660  0.00  0.00    +0.000 A 
ATOM     16  C   UNL     1      45.154   5.440  10.361  0.00  0.00    +0.000 A 
ATOM     17  C   UNL     1      45.216   4.353   9.493  0.00  0.00    +0.000 A 
ATOM     18  C   UNL     1      44.816   3.090   9.929  0.00  0.00    +0.000 A 
ATOM     19  C   UNL     1      44.449   2.968  11.264  0.00  0.00    +0.000 A 
ATOM     20  N   UNL     1      44.393   4.002  12.135  0.00  0.00    +0.000 NA
BRANCH  18  21
ATOM     21  C   UNL     1      44.755   1.923   8.986  0.00  0.00    +0.000 C 
BRANCH  21  22
ATOM     22  N   UNL     1      46.042   1.699   8.337  0.00  0.00    +0.000 NA
ATOM     23  H   UNL     1      46.761   2.229   8.830  0.00  0.00    +0.000 HD
ATOM     24  H   UNL     1      46.015   2.068   7.388  0.00  0.00    +0.000 HD
ENDBRANCH  21  22
ENDBRANCH  18  21
ENDBRANCH  14  15
ENDBRANCH   3  14
TORSDOF 5
ENDMDL
MODEL 5
REMARK VINA RESULT:    -5.696      4.143      6.872
REMARK INTER + INTRA:          -7.701
REMARK INTER:                  -7.130
REMARK INTRA:                  -0.571
REMARK UNBOUND:                -0.507
REMARK  Name = 
REMARK  8 active torsions:
REMARK  status: ('A' for Active; 'I' for Inactive)
REMARK    1  A    between atoms: C_1  and  C_2
REMARK    2  A    between atoms: C_2  and  C_3
REMARK    3  A    between atoms: C_2  and  C_4
REMARK    4  A    between atoms: C_2  and  C_5
REMARK    5  A    between atoms: N_7  and  C_8
REMARK    6  A    between atoms: C_8  and  C_9
REMARK    7  A    between atoms: C_12  and  C_13
REMARK    8  A    between atoms: C_13  and  N_14
REMARK                            x       y       z     vdW  Elec       q    Type
REMARK                         _______ _______ _______ _____ _____    ______ ____
ROOT
ATOM      1  C   UNL     1      48.556   7.218  13.472  0.00  0.00    +0.000 A 
ATOM      2  C   UNL     1      48.848   6.790  14.758  0.00  0.00    +0.000 A 
ATOM      3  N   UNL     1      47.940   5.834  15.136  0.00  0.00    +0.000 N 
ATOM      4  C   UNL     1      47.088   5.559  14.090  0.00  0.00    +0.000 A 
ATOM      5  C   UNL     1      46.036   4.632  13.990  0.00  0.00    +0.000 A 
ATOM      6  C   UNL     1      45.341   4.540  12.787  0.00  0.00    +0.000 A 
ATOM      7  C   UNL     1      45.690   5.337  11.704  0.00  0.00    +0.000 A 
ATOM      8  C   UNL     1      46.742   6.254  11.810  0.00  0.00    +0.000 A 
ATOM      9  C   UNL     1      47.459   6.389  13.024  0.00  0.00    +0.000 A 
ENDROOT
BRANCH   1  11
ATOM     10  C   UNL     1      50.375   8.940  13.628  0.00  0.00    +0.000 C 
ATOM     11  C   UNL     1      49.324   8.302  12.702  0.00  0.00    +0.000 C 
ATOM     12  C   UNL     1      48.369   9.418  12.207  0.00  0.00    +0.000 C 
ATOM     13  C   UNL     1      50.023   7.760  11.438  0.00  0.00    +0.000 C 
ENDBRANCH   1  11
BRANCH   3  14
ATOM     14  C   UNL     1      47.882   5.232  16.468  0.00  0.00    +0.000 C 
BRANCH  14  15
ATOM     15  C   UNL     1      49.020   4.265  16.672  0.00  0.00    +0.000 A 
ATOM     16  C   UNL     1      48.804   2.894  16.561  0.00  0.00    +0.000 A 
ATOM     17  C   UNL     1      49.820   2.021  16.940  0.00  0.00    +0.000 A 
ATOM     18  C   UNL     1      51.027   2.525  17.425  0.00  0.00    +0.000 A 
ATOM     19  C   UNL     1      51.182   3.906  17.424  0.00  0.00    +0.000 A 
ATOM     20  N   UNL     1      50.219   4.779  17.049  0.00  0.00    +0.000 NA
BRANCH  18  21
ATOM     21  C   UNL     1      52.096   1.613  17.955  0.00  0.00    +0.000 C 
BRANCH  21  22
ATOM     22  N   UNL     1      51.600   0.250  18.109  0.00  0.00    +0.000 NA
ATOM     23  H   UNL     1      52.199  -0.385  17.582  0.00  0.00    +0.000 HD
ATOM     24  H   UNL     1      50.671   0.176  17.696  0.00  0.00    +0.000 HD
ENDBRANCH  21  22
ENDBRANCH  18  21
ENDBRANCH  14  15
ENDBRANCH   3  14
TORSDOF 5
ENDMDL
MODEL 6
REMARK VINA RESULT:    -5.666      3.023      7.186
REMARK INTER + INTRA:          -7.663
REMARK INTER:                  -7.385
REMARK INTRA:                  -0.278
REMARK UNBOUND:                -0.507
REMARK  Name = 
REMARK  8 active torsions:
REMARK  status: ('A' for Active; 'I' for Inactive)
REMARK    1  A    between atoms: C_1  and  C_2
REMARK    2  A    between atoms: C_2  and  C_3
REMARK    3  A    between atoms: C_2  and  C_4
REMARK    4  A    between atoms: C_2  and  C_5
REMARK    5  A    between atoms: N_7  and  C_8
REMARK    6  A    between atoms: C_8  and  C_9
REMARK    7  A    between atoms: C_12  and  C_13
REMARK    8  A    between atoms: C_13  and  N_14
REMARK                            x       y       z     vdW  Elec       q    Type
REMARK                         _______ _______ _______ _____ _____    ______ ____
ROOT
ATOM      1  C   UNL     1      45.096   5.589  11.952  0.00  0.00    +0.000 A 
ATOM      2  C   UNL     1      46.237   5.190  12.631  0.00  0.00    +0.000 A 
ATOM      3  N   UNL     1      47.020   6.286  12.890  0.00  0.00    +0.000 N 
ATOM      4  C   UNL     1      46.381   7.427  12.459  0.00  0.00    +0.000 A 
ATOM      5  C   UNL     1      46.768   8.776  12.546  0.00  0.00    +0.000 A 
ATOM      6  C   UNL     1      45.907   9.750  12.046  0.00  0.00    +0.000 A 
ATOM      7  C   UNL     1      44.686   9.397  11.487  0.00  0.00    +0.000 A 
ATOM      8  C   UNL     1      44.305   8.051  11.409  0.00  0.00    +0.000 A 
ATOM      9  C   UNL     1      45.163   7.032  11.889  0.00  0.00    +0.000 A 
ENDROOT
BRANCH   1  11
ATOM     10  C   UNL     1      42.614   5.224  11.870  0.00  0.00    +0.000 C 
ATOM     11  C   UNL     1      43.983   4.653  11.457  0.00  0.00    +0.000 C 
ATOM     12  C   UNL     1      44.127   3.239  12.074  0.00  0.00    +0.000 C 
ATOM     13  C   UNL     1      44.006   4.447   9.928  0.00  0.00    +0.000 C 
ENDBRANCH   1  11
BRANCH   3  14
ATOM     14  C   UNL     1      48.346   6.226  13.502  0.00  0.00    +0.000 C 
BRANCH  14  15
ATOM     15  C   UNL     1      48.247   5.927  14.976  0.00  0.00    +0.000 A 
ATOM     16  C   UNL     1      48.695   6.857  15.911  0.00  0.00    +0.000 A 
ATOM     17  C   UNL     1      48.768   6.481  17.249  0.00  0.00    +0.000 A 
ATOM     18  C   UNL     1      48.399   5.191  17.632  0.00  0.00    +0.000 A 
ATOM     19  C   UNL     1      47.888   4.360  16.643  0.00  0.00    +0.000 A 
ATOM     20  N   UNL     1      47.791   4.701  15.337  0.00  0.00    +0.000 NA
BRANCH  18  21
ATOM     21  C   UNL     1      48.580   4.715  19.045  0.00  0.00    +0.000 C 
BRANCH  21  22
ATOM     22  N   UNL     1      48.334   3.281  19.154  0.00  0.00    +0.000 NA
ATOM     23  H   UNL     1      49.210   2.779  19.007  0.00  0.00    +0.000 HD
ATOM     24  H   UNL     1      47.706   2.984  18.409  0.00  0.00    +0.000 HD
ENDBRANCH  21  22
ENDBRANCH  18  21
ENDBRANCH  14  15
ENDBRANCH   3  14
TORSDOF 5
ENDMDL
MODEL 7
REMARK VINA RESULT:    -5.598      1.922      4.199
REMARK INTER + INTRA:          -7.577
REMARK INTER:                  -7.498
REMARK INTRA:                  -0.080
REMARK UNBOUND:                -0.507
REMARK  Name = 
REMARK  8 active torsions:
REMARK  status: ('A' for Active; 'I' for Inactive)
REMARK    1  A    between atoms: C_1  and  C_2
REMARK    2  A    between atoms: C_2  and  C_3
REMARK    3  A    between atoms: C_2  and  C_4
REMARK    4  A    between atoms: C_2  and  C_5
REMARK    5  A    between atoms: N_7  and  C_8
REMARK    6  A    between atoms: C_8  and  C_9
REMARK    7  A    between atoms: C_12  and  C_13
REMARK    8  A    between atoms: C_13  and  N_14
REMARK                            x       y       z     vdW  Elec       q    Type
REMARK                         _______ _______ _______ _____ _____    ______ ____
ROOT
ATOM      1  C   UNL     1      47.509   5.023  15.266  0.00  0.00    +0.000 A 
ATOM      2  C   UNL     1      46.358   4.651  14.589  0.00  0.00    +0.000 A 
ATOM      3  N   UNL     1      46.113   5.546  13.579  0.00  0.00    +0.000 N 
ATOM      4  C   UNL     1      47.131   6.473  13.521  0.00  0.00    +0.000 A 
ATOM      5  C   UNL     1      47.338   7.545  12.634  0.00  0.00    +0.000 A 
ATOM      6  C   UNL     1      48.482   8.322  12.785  0.00  0.00    +0.000 A 
ATOM      7  C   UNL     1      49.408   8.036  13.781  0.00  0.00    +0.000 A 
ATOM      8  C   UNL     1      49.197   6.963  14.656  0.00  0.00    +0.000 A 
ATOM      9  C   UNL     1      48.035   6.162  14.545  0.00  0.00    +0.000 A 
ENDROOT
BRANCH   1  11
ATOM     10  C   UNL     1      48.303   2.806  16.133  0.00  0.00    +0.000 C 
ATOM     11  C   UNL     1      48.102   4.293  16.480  0.00  0.00    +0.000 C 
ATOM     12  C   UNL     1      47.156   4.385  17.703  0.00  0.00    +0.000 C 
ATOM     13  C   UNL     1      49.446   4.892  16.944  0.00  0.00    +0.000 C 
ENDBRANCH   1  11
BRANCH   3  14
ATOM     14  C   UNL     1      44.928   5.522  12.724  0.00  0.00    +0.000 C 
BRANCH  14  15
ATOM     15  C   UNL     1      45.247   4.930  11.376  0.00  0.00    +0.000 A 
ATOM     16  C   UNL     1      45.734   5.739  10.353  0.00  0.00    +0.000 A 
ATOM     17  C   UNL     1      45.839   5.209   9.069  0.00  0.00    +0.000 A 
ATOM     18  C   UNL     1      45.455   3.890   8.827  0.00  0.00    +0.000 A 
ATOM     19  C   UNL     1      45.059   3.134   9.924  0.00  0.00    +0.000 A 
ATOM     20  N   UNL     1      44.960   3.617  11.184  0.00  0.00    +0.000 NA
BRANCH  18  21
ATOM     21  C   UNL     1      45.441   3.324   7.436  0.00  0.00    +0.000 C 
BRANCH  21  22
ATOM     22  N   UNL     1      46.543   3.855   6.639  0.00  0.00    +0.000 NA
ATOM     23  H   UNL     1      46.334   4.819   6.380  0.00  0.00    +0.000 HD
ATOM     24  H   UNL     1      46.615   3.334   5.767  0.00  0.00    +0.000 HD
ENDBRANCH  21  22
ENDBRANCH  18  21
ENDBRANCH  14  15
ENDBRANCH   3  14
TORSDOF 5
ENDMDL
MODEL 8
REMARK VINA RESULT:    -5.357      3.827      6.923
REMARK INTER + INTRA:          -7.273
REMARK INTER:                  -6.654
REMARK INTRA:                  -0.618
REMARK UNBOUND:                -0.507
REMARK  Name = 
REMARK  8 active torsions:
REMARK  status: ('A' for Active; 'I' for Inactive)
REMARK    1  A    between atoms: C_1  and  C_2
REMARK    2  A    between atoms: C_2  and  C_3
REMARK    3  A    between atoms: C_2  and  C_4
REMARK    4  A    between atoms: C_2  and  C_5
REMARK    5  A    between atoms: N_7  and  C_8
REMARK    6  A    between atoms: C_8  and  C_9
REMARK    7  A    between atoms: C_12  and  C_13
REMARK    8  A    between atoms: C_13  and  N_14
REMARK                            x       y       z     vdW  Elec       q    Type
REMARK                         _______ _______ _______ _____ _____    ______ ____
ROOT
ATOM      1  C   UNL     1      48.690   6.425  17.716  0.00  0.00    +0.000 A 
ATOM      2  C   UNL     1      48.842   5.925  16.432  0.00  0.00    +0.000 A 
ATOM      3  N   UNL     1      48.797   6.959  15.532  0.00  0.00    +0.000 N 
ATOM      4  C   UNL     1      48.693   8.157  16.204  0.00  0.00    +0.000 A 
ATOM      5  C   UNL     1      48.658   9.475  15.715  0.00  0.00    +0.000 A 
ATOM      6  C   UNL     1      48.574  10.522  16.629  0.00  0.00    +0.000 A 
ATOM      7  C   UNL     1      48.542  10.270  17.994  0.00  0.00    +0.000 A 
ATOM      8  C   UNL     1      48.584   8.955  18.473  0.00  0.00    +0.000 A 
ATOM      9  C   UNL     1      48.649   7.864  17.572  0.00  0.00    +0.000 A 
ENDROOT
BRANCH   1  11
ATOM     10  C   UNL     1      49.976   5.773  19.770  0.00  0.00    +0.000 C 
ATOM     11  C   UNL     1      48.657   5.583  19.000  0.00  0.00    +0.000 C 
ATOM     12  C   UNL     1      48.495   4.077  18.675  0.00  0.00    +0.000 C 
ATOM     13  C   UNL     1      47.474   5.941  19.923  0.00  0.00    +0.000 C 
ENDBRANCH   1  11
BRANCH   3  14
ATOM     14  C   UNL     1      48.823   6.791  14.080  0.00  0.00    +0.000 C 
BRANCH  14  15
ATOM     15  C   UNL     1      47.539   6.176  13.586  0.00  0.00    +0.000 A 
ATOM     16  C   UNL     1      46.494   6.989  13.153  0.00  0.00    +0.000 A 
ATOM     17  C   UNL     1      45.258   6.408  12.883  0.00  0.00    +0.000 A 
ATOM     18  C   UNL     1      45.082   5.035  13.052  0.00  0.00    +0.000 A 
ATOM     19  C   UNL     1      46.202   4.293  13.408  0.00  0.00    +0.000 A 
ATOM     20  N   UNL     1      47.419   4.826  13.663  0.00  0.00    +0.000 NA
BRANCH  18  21
ATOM     21  C   UNL     1      43.734   4.394  12.887  0.00  0.00    +0.000 C 
BRANCH  21  22
ATOM     22  N   UNL     1      42.667   5.295  13.309  0.00  0.00    +0.000 NA
ATOM     23  H   UNL     1      42.616   5.298  14.328  0.00  0.00    +0.000 HD
ATOM     24  H   UNL     1      41.770   4.941  12.979  0.00  0.00    +0.000 HD
ENDBRANCH  21  22
ENDBRANCH  18  21
ENDBRANCH  14  15
ENDBRANCH   3  14
TORSDOF 5
ENDMDL
MODEL 9
REMARK VINA RESULT:    -5.342      3.827      7.113
REMARK INTER + INTRA:          -7.254
REMARK INTER:                  -6.885
REMARK INTRA:                  -0.369
REMARK UNBOUND:                -0.507
REMARK  Name = 
REMARK  8 active torsions:
REMARK  status: ('A' for Active; 'I' for Inactive)
REMARK    1  A    between atoms: C_1  and  C_2
REMARK    2  A    between atoms: C_2  and  C_3
REMARK    3  A    between atoms: C_2  and  C_4
REMARK    4  A    between atoms: C_2  and  C_5
REMARK    5  A    between atoms: N_7  and  C_8
REMARK    6  A    between atoms: C_8  and  C_9
REMARK    7  A    between atoms: C_12  and  C_13
REMARK    8  A    between atoms: C_13  and  N_14
REMARK                            x       y       z     vdW  Elec       q    Type
REMARK                         _______ _______ _______ _____ _____    ______ ____
ROOT
ATOM      1  C   UNL     1      47.519   6.694  13.370  0.00  0.00    +0.000 A 
ATOM      2  C   UNL     1      47.835   5.822  14.399  0.00  0.00    +0.000 A 
ATOM      3  N   UNL     1      47.087   4.679  14.274  0.00  0.00    +0.000 N 
ATOM      4  C   UNL     1      46.326   4.743  13.128  0.00  0.00    +0.000 A 
ATOM      5  C   UNL     1      45.445   3.803  12.565  0.00  0.00    +0.000 A 
ATOM      6  C   UNL     1      44.814   4.117  11.364  0.00  0.00    +0.000 A 
ATOM      7  C   UNL     1      45.061   5.327  10.729  0.00  0.00    +0.000 A 
ATOM      8  C   UNL     1      45.944   6.256  11.294  0.00  0.00    +0.000 A 
ATOM      9  C   UNL     1      46.589   5.979  12.524  0.00  0.00    +0.000 A 
ENDROOT
BRANCH   1  11
ATOM     10  C   UNL     1      48.941   8.476  14.422  0.00  0.00    +0.000 C 
ATOM     11  C   UNL     1      48.121   8.094  13.175  0.00  0.00    +0.000 C 
ATOM     12  C   UNL     1      47.011   9.156  12.977  0.00  0.00    +0.000 C 
ATOM     13  C   UNL     1      49.022   8.192  11.926  0.00  0.00    +0.000 C 
ENDBRANCH   1  11
BRANCH   3  14
ATOM     14  C   UNL     1      47.086   3.583  15.242  0.00  0.00    +0.000 C 
BRANCH  14  15
ATOM     15  C   UNL     1      47.803   3.980  16.507  0.00  0.00    +0.000 A 
ATOM     16  C   UNL     1      47.133   4.694  17.497  0.00  0.00    +0.000 A 
ATOM     17  C   UNL     1      47.864   5.211  18.564  0.00  0.00    +0.000 A 
ATOM     18  C   UNL     1      49.244   5.013  18.623  0.00  0.00    +0.000 A 
ATOM     19  C   UNL     1      49.812   4.220  17.634  0.00  0.00    +0.000 A 
ATOM     20  N   UNL     1      49.127   3.692  16.594  0.00  0.00    +0.000 NA
BRANCH  18  21
ATOM     21  C   UNL     1      50.079   5.657  19.692  0.00  0.00    +0.000 C 
BRANCH  21  22
ATOM     22  N   UNL     1      50.502   4.682  20.691  0.00  0.00    +0.000 NA
ATOM     23  H   UNL     1      50.276   3.744  20.360  0.00  0.00    +0.000 HD
ATOM     24  H   UNL     1      49.970   4.818  21.549  0.00  0.00    +0.000 HD
ENDBRANCH  21  22
ENDBRANCH  18  21
ENDBRANCH  14  15
ENDBRANCH   3  14
TORSDOF 5
ENDMDL
