MODEL 1
REMARK VINA RESULT:    -7.877      0.000      0.000
REMARK INTER + INTRA:         -10.959
REMARK INTER:                 -10.180
REMARK INTRA:                  -0.779
REMARK UNBOUND:                -0.779
REMARK  Name = 
REMARK  5 active torsions:
REMARK  status: ('A' for Active; 'I' for Inactive)
REMARK    1  A    between atoms: C_2  and  C_5
REMARK    2  A    between atoms: C_7  and  N_8
REMARK    3  A    between atoms: N_8  and  C_9
REMARK    4  A    between atoms: C_9  and  C_10
REMARK    5  A    between atoms: C_14  and  C_15
REMARK                            x       y       z     vdW  Elec       q    Type
REMARK                         _______ _______ _______ _____ _____    ______ ____
ROOT
ATOM      1  C   UNL     1      44.871   6.028  11.177  0.00  0.00    +0.000 C 
ENDROOT
BRANCH   1   2
ATOM      2  C   UNL     1      46.159   6.182  11.950  0.00  0.00    +0.000 A 
ATOM      3  C   UNL     1      47.170   7.031  11.489  0.00  0.00    +0.000 A 
ATOM      4  C   UNL     1      48.319   7.226  12.252  0.00  0.00    +0.000 A 
ATOM      5  C   UNL     1      48.462   6.581  13.484  0.00  0.00    +0.000 A 
ATOM      6  C   UNL     1      47.465   5.724  13.986  0.00  0.00    +0.000 A 
ATOM      7  C   UNL     1      46.331   5.515  13.179  0.00  0.00    +0.000 A 
BRANCH   6   8
ATOM      8  C   UNL     1      47.576   5.128  15.329  0.00  0.00    +0.000 A 
ATOM      9  C   UNL     1      48.421   5.630  16.312  0.00  0.00    +0.000 A 
ATOM     10  N   UNL     1      48.535   5.145  17.566  0.00  0.00    +0.000 NA
ATOM     11  C   UNL     1      47.749   4.100  17.855  0.00  0.00    +0.000 A 
ATOM     12  N   UNL     1      46.888   3.514  17.011  0.00  0.00    +0.000 NA
ATOM     13  C   UNL     1      46.829   4.045  15.767  0.00  0.00    +0.000 A 
ENDBRANCH   6   8
ENDBRANCH   1   2
BRANCH   1  14
ATOM     14  N   UNL     1      45.137   5.768   9.765  0.00  0.00    +0.000 N 
ATOM     15  H   UNL     1      44.522   6.305   9.157  0.00  0.00    +0.000 HD
BRANCH  14  18
ATOM     16  C   UNL     1      46.062   2.694   7.865  0.00  0.00    +0.000 A 
ATOM     17  C   UNL     1      46.033   4.033   8.268  0.00  0.00    +0.000 A 
ATOM     18  C   UNL     1      45.257   4.430   9.359  0.00  0.00    +0.000 A 
ATOM     19  C   UNL     1      44.465   3.455   9.966  0.00  0.00    +0.000 A 
ATOM     20  C   UNL     1      44.539   2.145   9.518  0.00  0.00    +0.000 A 
ATOM     21  N   UNL     1      45.322   1.742   8.497  0.00  0.00    +0.000 NA
BRANCH  16  23
ATOM     22  F   UNL     1      46.518   2.836   5.497  0.00  0.00    +0.000 F 
ATOM     23  C   UNL     1      46.934   2.291   6.682  0.00  0.00    +0.000 C 
ATOM     24  F   UNL     1      46.963   0.945   6.466  0.00  0.00    +0.000 F 
ATOM     25  F   UNL     1      48.233   2.682   6.816  0.00  0.00    +0.000 F 
ENDBRANCH  16  23
ENDBRANCH  14  18
ENDBRANCH   1  14
TORSDOF 5
ENDMDL
MODEL 2
REMARK VINA RESULT:    -7.624      3.439      7.311
REMARK INTER + INTRA:         -10.632
REMARK INTER:                  -9.796
REMARK INTRA:                  -0.836
REMARK UNBOUND:                -0.779
REMARK  Name = 
REMARK  5 active torsions:
REMARK  status: ('A' for Active; 'I' for Inactive)
REMARK    1  A    between atoms: C_2  and  C_5
REMARK    2  A    between atoms: C_7  and  N_8
REMARK    3  A    between atoms: N_8  and  C_9
REMARK    4  A    between atoms: C_9  and  C_10
REMARK    5  A    between atoms: C_14  and  C_15
REMARK                            x       y       z     vdW  Elec       q    Type
REMARK                         _______ _______ _______ _____ _____    ______ ____
ROOT
ATOM      1  C   UNL     1      43.771   6.290  11.166  0.00  0.00    +0.000 C 
ENDROOT
BRANCH   1   2
ATOM      2  C   UNL     1      43.971   4.827  10.852  0.00  0.00    +0.000 A 
ATOM      3  C   UNL     1      43.252   3.846  11.542  0.00  0.00    +0.000 A 
ATOM      4  C   UNL     1      43.385   2.505  11.189  0.00  0.00    +0.000 A 
ATOM      5  C   UNL     1      44.229   2.137  10.138  0.00  0.00    +0.000 A 
ATOM      6  C   UNL     1      44.965   3.093   9.414  0.00  0.00    +0.000 A 
ATOM      7  C   UNL     1      44.841   4.437   9.816  0.00  0.00    +0.000 A 
BRANCH   6   8
ATOM      8  C   UNL     1      45.773   2.710   8.243  0.00  0.00    +0.000 A 
ATOM      9  C   UNL     1      46.051   3.584   7.198  0.00  0.00    +0.000 A 
ATOM     10  N   UNL     1      46.813   3.296   6.121  0.00  0.00    +0.000 NA
ATOM     11  C   UNL     1      47.332   2.062   6.095  0.00  0.00    +0.000 A 
ATOM     12  N   UNL     1      47.150   1.118   7.029  0.00  0.00    +0.000 NA
ATOM     13  C   UNL     1      46.371   1.470   8.078  0.00  0.00    +0.000 A 
ENDBRANCH   6   8
ENDBRANCH   1   2
BRANCH   1  14
ATOM     14  N   UNL     1      44.160   6.588  12.541  0.00  0.00    +0.000 N 
ATOM     15  H   UNL     1      43.819   7.498  12.845  0.00  0.00    +0.000 HD
BRANCH  14  18
ATOM     16  C   UNL     1      47.875   6.847  12.768  0.00  0.00    +0.000 A 
ATOM     17  C   UNL     1      46.552   7.154  12.430  0.00  0.00    +0.000 A 
ATOM     18  C   UNL     1      45.498   6.369  12.903  0.00  0.00    +0.000 A 
ATOM     19  C   UNL     1      45.831   5.238  13.649  0.00  0.00    +0.000 A 
ATOM     20  C   UNL     1      47.161   4.990  13.949  0.00  0.00    +0.000 A 
ATOM     21  N   UNL     1      48.183   5.769  13.539  0.00  0.00    +0.000 NA
BRANCH  16  23
ATOM     22  F   UNL     1      50.113   7.031  11.878  0.00  0.00    +0.000 F 
ATOM     23  C   UNL     1      49.000   7.735  12.251  0.00  0.00    +0.000 C 
ATOM     24  F   UNL     1      49.440   8.639  13.172  0.00  0.00    +0.000 F 
ATOM     25  F   UNL     1      48.650   8.458  11.149  0.00  0.00    +0.000 F 
ENDBRANCH  16  23
ENDBRANCH  14  18
ENDBRANCH   1  14
TORSDOF 5
ENDMDL
MODEL 3
REMARK VINA RESULT:    -7.548      2.594      3.787
REMARK INTER + INTRA:         -10.534
REMARK INTER:                  -9.663
REMARK INTRA:                  -0.871
REMARK UNBOUND:                -0.779
REMARK  Name = 
REMARK  5 active torsions:
REMARK  status: ('A' for Active; 'I' for Inactive)
REMARK    1  A    between atoms: C_2  and  C_5
REMARK    2  A    between atoms: C_7  and  N_8
REMARK    3  A    between atoms: N_8  and  C_9
REMARK    4  A    between atoms: C_9  and  C_10
REMARK    5  A    between atoms: C_14  and  C_15
REMARK                            x       y       z     vdW  Elec       q    Type
REMARK                         _______ _______ _______ _____ _____    ______ ____
ROOT
ATOM      1  C   UNL     1      43.875   5.334  11.312  0.00  0.00    +0.000 C 
ENDROOT
BRANCH   1   2
ATOM      2  C   UNL     1      45.135   5.546  12.116  0.00  0.00    +0.000 A 
ATOM      3  C   UNL     1      45.533   4.610  13.075  0.00  0.00    +0.000 A 
ATOM      4  C   UNL     1      46.738   4.776  13.754  0.00  0.00    +0.000 A 
ATOM      5  C   UNL     1      47.558   5.873  13.471  0.00  0.00    +0.000 A 
ATOM      6  C   UNL     1      47.196   6.833  12.509  0.00  0.00    +0.000 A 
ATOM      7  C   UNL     1      45.956   6.663  11.865  0.00  0.00    +0.000 A 
BRANCH   6   8
ATOM      8  C   UNL     1      48.110   7.930  12.143  0.00  0.00    +0.000 A 
ATOM      9  C   UNL     1      49.426   7.719  11.751  0.00  0.00    +0.000 A 
ATOM     10  N   UNL     1      50.293   8.682  11.373  0.00  0.00    +0.000 NA
ATOM     11  C   UNL     1      49.809   9.930  11.383  0.00  0.00    +0.000 A 
ATOM     12  N   UNL     1      48.565  10.283  11.737  0.00  0.00    +0.000 NA
ATOM     13  C   UNL     1      47.750   9.269  12.111  0.00  0.00    +0.000 A 
ENDBRANCH   6   8
ENDBRANCH   1   2
BRANCH   1  14
ATOM     14  N   UNL     1      44.169   5.277   9.884  0.00  0.00    +0.000 N 
ATOM     15  H   UNL     1      43.392   5.614   9.320  0.00  0.00    +0.000 HD
BRANCH  14  18
ATOM     16  C   UNL     1      46.047   2.839   7.774  0.00  0.00    +0.000 A 
ATOM     17  C   UNL     1      45.581   4.058   8.278  0.00  0.00    +0.000 A 
ATOM     18  C   UNL     1      44.722   4.089   9.379  0.00  0.00    +0.000 A 
ATOM     19  C   UNL     1      44.296   2.863   9.889  0.00  0.00    +0.000 A 
ATOM     20  C   UNL     1      44.794   1.690   9.343  0.00  0.00    +0.000 A 
ATOM     21  N   UNL     1      45.663   1.650   8.313  0.00  0.00    +0.000 NA
BRANCH  16  23
ATOM     22  F   UNL     1      46.876   1.729   5.794  0.00  0.00    +0.000 F 
ATOM     23  C   UNL     1      46.999   2.841   6.584  0.00  0.00    +0.000 C 
ATOM     24  F   UNL     1      48.313   2.880   6.944  0.00  0.00    +0.000 F 
ATOM     25  F   UNL     1      46.805   3.897   5.743  0.00  0.00    +0.000 F 
ENDBRANCH  16  23
ENDBRANCH  14  18
ENDBRANCH   1  14
TORSDOF 5
ENDMDL
MODEL 4
REMARK VINA RESULT:    -7.518      3.579      7.537
REMARK INTER + INTRA:         -10.495
REMARK INTER:                  -9.652
REMARK INTRA:                  -0.844
REMARK UNBOUND:                -0.779
REMARK  Name = 
REMARK  5 active torsions:
REMARK  status: ('A' for Active; 'I' for Inactive)
REMARK    1  A    between atoms: C_2  and  C_5
REMARK    2  A    between atoms: C_7  and  N_8
REMARK    3  A    between atoms: N_8  and  C_9
REMARK    4  A    between atoms: C_9  and  C_10
REMARK    5  A    between atoms: C_14  and  C_15
REMARK                            x       y       z     vdW  Elec       q    Type
REMARK                         _______ _______ _______ _____ _____    ______ ____
ROOT
ATOM      1  C   UNL     1      43.580   6.272  11.001  0.00  0.00    +0.000 C 
ENDROOT
BRANCH   1   2
ATOM      2  C   UNL     1      43.867   4.811  10.746  0.00  0.00    +0.000 A 
ATOM      3  C   UNL     1      43.207   3.818  11.474  0.00  0.00    +0.000 A 
ATOM      4  C   UNL     1      43.420   2.474  11.175  0.00  0.00    +0.000 A 
ATOM      5  C   UNL     1      44.288   2.115  10.139  0.00  0.00    +0.000 A 
ATOM      6  C   UNL     1      44.967   3.085   9.379  0.00  0.00    +0.000 A 
ATOM      7  C   UNL     1      44.762   4.433   9.726  0.00  0.00    +0.000 A 
BRANCH   6   8
ATOM      8  C   UNL     1      45.800   2.704   8.224  0.00  0.00    +0.000 A 
ATOM      9  C   UNL     1      46.360   1.441   8.080  0.00  0.00    +0.000 A 
ATOM     10  N   UNL     1      47.100   1.030   7.028  0.00  0.00    +0.000 NA
ATOM     11  C   UNL     1      47.283   1.938   6.061  0.00  0.00    +0.000 A 
ATOM     12  N   UNL     1      46.804   3.190   6.065  0.00  0.00    +0.000 NA
ATOM     13  C   UNL     1      46.077   3.539   7.152  0.00  0.00    +0.000 A 
ENDBRANCH   6   8
ENDBRANCH   1   2
BRANCH   1  14
ATOM     14  N   UNL     1      44.078   6.682  12.310  0.00  0.00    +0.000 N 
ATOM     15  H   UNL     1      43.873   7.660  12.507  0.00  0.00    +0.000 HD
BRANCH  14  18
ATOM     16  C   UNL     1      47.046   5.231  14.045  0.00  0.00    +0.000 A 
ATOM     17  C   UNL     1      45.711   5.489  13.712  0.00  0.00    +0.000 A 
ATOM     18  C   UNL     1      45.396   6.333  12.645  0.00  0.00    +0.000 A 
ATOM     19  C   UNL     1      46.459   6.957  11.991  0.00  0.00    +0.000 A 
ATOM     20  C   UNL     1      47.758   6.659  12.370  0.00  0.00    +0.000 A 
ATOM     21  N   UNL     1      48.075   5.808  13.366  0.00  0.00    +0.000 NA
BRANCH  16  23
ATOM     22  F   UNL     1      47.534   2.991  14.807  0.00  0.00    +0.000 F 
ATOM     23  C   UNL     1      47.355   4.289  15.203  0.00  0.00    +0.000 C 
ATOM     24  F   UNL     1      46.368   4.245  16.141  0.00  0.00    +0.000 F 
ATOM     25  F   UNL     1      48.498   4.618  15.870  0.00  0.00    +0.000 F 
ENDBRANCH  16  23
ENDBRANCH  14  18
ENDBRANCH   1  14
TORSDOF 5
ENDMDL
MODEL 5
REMARK VINA RESULT:    -7.147      1.531      2.239
REMARK INTER + INTRA:         -10.016
REMARK INTER:                  -9.483
REMARK INTRA:                  -0.533
REMARK UNBOUND:                -0.779
REMARK  Name = 
REMARK  5 active torsions:
REMARK  status: ('A' for Active; 'I' for Inactive)
REMARK    1  A    between atoms: C_2  and  C_5
REMARK    2  A    between atoms: C_7  and  N_8
REMARK    3  A    between atoms: N_8  and  C_9
REMARK    4  A    between atoms: C_9  and  C_10
REMARK    5  A    between atoms: C_14  and  C_15
REMARK                            x       y       z     vdW  Elec       q    Type
REMARK                         _______ _______ _______ _____ _____    ______ ____
ROOT
ATOM      1  C   UNL     1      44.586   5.683  11.312  0.00  0.00    +0.000 C 
ENDROOT
BRANCH   1   2
ATOM      2  C   UNL     1      45.385   6.809  11.923  0.00  0.00    +0.000 A 
ATOM      3  C   UNL     1      44.952   8.133  11.810  0.00  0.00    +0.000 A 
ATOM      4  C   UNL     1      45.654   9.154  12.445  0.00  0.00    +0.000 A 
ATOM      5  C   UNL     1      46.788   8.858  13.207  0.00  0.00    +0.000 A 
ATOM      6  C   UNL     1      47.253   7.538  13.351  0.00  0.00    +0.000 A 
ATOM      7  C   UNL     1      46.548   6.530  12.668  0.00  0.00    +0.000 A 
BRANCH   6   8
ATOM      8  C   UNL     1      48.388   7.220  14.236  0.00  0.00    +0.000 A 
ATOM      9  C   UNL     1      49.615   7.868  14.155  0.00  0.00    +0.000 A 
ATOM     10  N   UNL     1      50.673   7.640  14.962  0.00  0.00    +0.000 NA
ATOM     11  C   UNL     1      50.487   6.713  15.910  0.00  0.00    +0.000 A 
ATOM     12  N   UNL     1      49.362   6.011  16.106  0.00  0.00    +0.000 NA
ATOM     13  C   UNL     1      48.343   6.284  15.258  0.00  0.00    +0.000 A 
ENDBRANCH   6   8
ENDBRANCH   1   2
BRANCH   1  14
ATOM     14  N   UNL     1      44.882   5.543   9.890  0.00  0.00    +0.000 N 
ATOM     15  H   UNL     1      44.226   6.063   9.311  0.00  0.00    +0.000 HD
BRANCH  14  18
ATOM     16  C   UNL     1      46.099   2.696   7.808  0.00  0.00    +0.000 A 
ATOM     17  C   UNL     1      45.950   3.997   8.300  0.00  0.00    +0.000 A 
ATOM     18  C   UNL     1      45.124   4.250   9.398  0.00  0.00    +0.000 A 
ATOM     19  C   UNL     1      44.407   3.173   9.918  0.00  0.00    +0.000 A 
ATOM     20  C   UNL     1      44.600   1.908   9.385  0.00  0.00    +0.000 A 
ATOM     21  N   UNL     1      45.432   1.644   8.358  0.00  0.00    +0.000 NA
BRANCH  16  23
ATOM     22  F   UNL     1      47.194   1.122   6.338  0.00  0.00    +0.000 F 
ATOM     23  C   UNL     1      47.024   2.450   6.622  0.00  0.00    +0.000 C 
ATOM     24  F   UNL     1      48.281   2.941   6.807  0.00  0.00    +0.000 F 
ATOM     25  F   UNL     1      46.566   3.005   5.463  0.00  0.00    +0.000 F 
ENDBRANCH  16  23
ENDBRANCH  14  18
ENDBRANCH   1  14
TORSDOF 5
ENDMDL
MODEL 6
REMARK VINA RESULT:    -7.079      4.098      7.418
REMARK INTER + INTRA:          -9.927
REMARK INTER:                  -9.122
REMARK INTRA:                  -0.805
REMARK UNBOUND:                -0.779
REMARK  Name = 
REMARK  5 active torsions:
REMARK  status: ('A' for Active; 'I' for Inactive)
REMARK    1  A    between atoms: C_2  and  C_5
REMARK    2  A    between atoms: C_7  and  N_8
REMARK    3  A    between atoms: N_8  and  C_9
REMARK    4  A    between atoms: C_9  and  C_10
REMARK    5  A    between atoms: C_14  and  C_15
REMARK                            x       y       z     vdW  Elec       q    Type
REMARK                         _______ _______ _______ _____ _____    ______ ____
ROOT
ATOM      1  C   UNL     1      43.737   6.663  11.378  0.00  0.00    +0.000 C 
ENDROOT
BRANCH   1   2
ATOM      2  C   UNL     1      43.914   5.181  11.153  0.00  0.00    +0.000 A 
ATOM      3  C   UNL     1      43.223   4.253  11.938  0.00  0.00    +0.000 A 
ATOM      4  C   UNL     1      43.332   2.892  11.669  0.00  0.00    +0.000 A 
ATOM      5  C   UNL     1      44.125   2.448  10.606  0.00  0.00    +0.000 A 
ATOM      6  C   UNL     1      44.830   3.348   9.788  0.00  0.00    +0.000 A 
ATOM      7  C   UNL     1      44.733   4.716  10.105  0.00  0.00    +0.000 A 
BRANCH   6   8
ATOM      8  C   UNL     1      45.581   2.882   8.608  0.00  0.00    +0.000 A 
ATOM      9  C   UNL     1      46.000   3.735   7.593  0.00  0.00    +0.000 A 
ATOM     10  N   UNL     1      46.718   3.367   6.511  0.00  0.00    +0.000 NA
ATOM     11  C   UNL     1      47.041   2.069   6.446  0.00  0.00    +0.000 A 
ATOM     12  N   UNL     1      46.707   1.135   7.348  0.00  0.00    +0.000 NA
ATOM     13  C   UNL     1      45.981   1.570   8.405  0.00  0.00    +0.000 A 
ENDBRANCH   6   8
ENDBRANCH   1   2
BRANCH   1  14
ATOM     14  N   UNL     1      44.476   7.105  12.556  0.00  0.00    +0.000 N 
ATOM     15  H   UNL     1      43.861   7.499  13.266  0.00  0.00    +0.000 HD
BRANCH  14  18
ATOM     16  C   UNL     1      48.032   8.185  12.231  0.00  0.00    +0.000 A 
ATOM     17  C   UNL     1      46.917   7.351  12.370  0.00  0.00    +0.000 A 
ATOM     18  C   UNL     1      45.626   7.883  12.352  0.00  0.00    +0.000 A 
ATOM     19  C   UNL     1      45.510   9.271  12.270  0.00  0.00    +0.000 A 
ATOM     20  C   UNL     1      46.655  10.041  12.135  0.00  0.00    +0.000 A 
ATOM     21  N   UNL     1      47.903   9.533  12.101  0.00  0.00    +0.000 NA
BRANCH  16  23
ATOM     22  F   UNL     1      49.421   6.227  12.499  0.00  0.00    +0.000 F 
ATOM     23  C   UNL     1      49.427   7.570  12.235  0.00  0.00    +0.000 C 
ATOM     24  F   UNL     1      50.254   8.116  13.171  0.00  0.00    +0.000 F 
ATOM     25  F   UNL     1      50.071   7.694  11.040  0.00  0.00    +0.000 F 
ENDBRANCH  16  23
ENDBRANCH  14  18
ENDBRANCH   1  14
TORSDOF 5
ENDMDL
MODEL 7
REMARK VINA RESULT:    -6.879      1.882      2.970
REMARK INTER + INTRA:          -9.668
REMARK INTER:                  -9.107
REMARK INTRA:                  -0.562
REMARK UNBOUND:                -0.779
REMARK  Name = 
REMARK  5 active torsions:
REMARK  status: ('A' for Active; 'I' for Inactive)
REMARK    1  A    between atoms: C_2  and  C_5
REMARK    2  A    between atoms: C_7  and  N_8
REMARK    3  A    between atoms: N_8  and  C_9
REMARK    4  A    between atoms: C_9  and  C_10
REMARK    5  A    between atoms: C_14  and  C_15
REMARK                            x       y       z     vdW  Elec       q    Type
REMARK                         _______ _______ _______ _____ _____    ______ ____
ROOT
ATOM      1  C   UNL     1      45.634   6.291  10.452  0.00  0.00    +0.000 C 
ENDROOT
BRANCH   1   2
ATOM      2  C   UNL     1      46.214   6.050  11.825  0.00  0.00    +0.000 A 
ATOM      3  C   UNL     1      45.677   5.069  12.663  0.00  0.00    +0.000 A 
ATOM      4  C   UNL     1      46.270   4.801  13.894  0.00  0.00    +0.000 A 
ATOM      5  C   UNL     1      47.411   5.506  14.292  0.00  0.00    +0.000 A 
ATOM      6  C   UNL     1      47.986   6.496  13.475  0.00  0.00    +0.000 A 
ATOM      7  C   UNL     1      47.345   6.773  12.253  0.00  0.00    +0.000 A 
BRANCH   6   8
ATOM      8  C   UNL     1      49.245   7.163  13.854  0.00  0.00    +0.000 A 
ATOM      9  C   UNL     1      49.780   7.097  15.135  0.00  0.00    +0.000 A 
ATOM     10  N   UNL     1      50.943   7.658  15.526  0.00  0.00    +0.000 NA
ATOM     11  C   UNL     1      51.614   8.318  14.573  0.00  0.00    +0.000 A 
ATOM     12  N   UNL     1      51.221   8.464  13.299  0.00  0.00    +0.000 NA
ATOM     13  C   UNL     1      50.042   7.882  12.977  0.00  0.00    +0.000 A 
ENDBRANCH   6   8
ENDBRANCH   1   2
BRANCH   1  14
ATOM     14  N   UNL     1      44.558   5.349  10.166  0.00  0.00    +0.000 N 
ATOM     15  H   UNL     1      43.934   5.230  10.962  0.00  0.00    +0.000 HD
BRANCH  14  18
ATOM     16  C   UNL     1      46.009   2.794   7.866  0.00  0.00    +0.000 A 
ATOM     17  C   UNL     1      45.756   4.032   8.467  0.00  0.00    +0.000 A 
ATOM     18  C   UNL     1      44.902   4.126   9.568  0.00  0.00    +0.000 A 
ATOM     19  C   UNL     1      44.263   2.957   9.981  0.00  0.00    +0.000 A 
ATOM     20  C   UNL     1      44.557   1.761   9.343  0.00  0.00    +0.000 A 
ATOM     21  N   UNL     1      45.418   1.651   8.311  0.00  0.00    +0.000 NA
BRANCH  16  23
ATOM     22  F   UNL     1      48.267   2.950   7.022  0.00  0.00    +0.000 F 
ATOM     23  C   UNL     1      46.961   2.723   6.679  0.00  0.00    +0.000 C 
ATOM     24  F   UNL     1      46.682   3.638   5.708  0.00  0.00    +0.000 F 
ATOM     25  F   UNL     1      46.961   1.506   6.063  0.00  0.00    +0.000 F 
ENDBRANCH  16  23
ENDBRANCH  14  18
ENDBRANCH   1  14
TORSDOF 5
ENDMDL
MODEL 8
REMARK VINA RESULT:    -6.859      1.523      2.203
REMARK INTER + INTRA:          -9.643
REMARK INTER:                  -8.975
REMARK INTRA:                  -0.669
REMARK UNBOUND:                -0.779
REMARK  Name = 
REMARK  5 active torsions:
REMARK  status: ('A' for Active; 'I' for Inactive)
REMARK    1  A    between atoms: C_2  and  C_5
REMARK    2  A    between atoms: C_7  and  N_8
REMARK    3  A    between atoms: N_8  and  C_9
REMARK    4  A    between atoms: C_9  and  C_10
REMARK    5  A    between atoms: C_14  and  C_15
REMARK                            x       y       z     vdW  Elec       q    Type
REMARK                         _______ _______ _______ _____ _____    ______ ____
ROOT
ATOM      1  C   UNL     1      45.266   7.386  11.393  0.00  0.00    +0.000 C 
ENDROOT
BRANCH   1   2
ATOM      2  C   UNL     1      46.516   7.366  12.241  0.00  0.00    +0.000 A 
ATOM      3  C   UNL     1      47.507   8.336  12.072  0.00  0.00    +0.000 A 
ATOM      4  C   UNL     1      48.617   8.355  12.913  0.00  0.00    +0.000 A 
ATOM      5  C   UNL     1      48.738   7.409  13.936  0.00  0.00    +0.000 A 
ATOM      6  C   UNL     1      47.759   6.420  14.144  0.00  0.00    +0.000 A 
ATOM      7  C   UNL     1      46.667   6.400  13.256  0.00  0.00    +0.000 A 
BRANCH   6   8
ATOM      8  C   UNL     1      47.841   5.492  15.285  0.00  0.00    +0.000 A 
ATOM      9  C   UNL     1      47.063   4.344  15.384  0.00  0.00    +0.000 A 
ATOM     10  N   UNL     1      47.123   3.443  16.387  0.00  0.00    +0.000 NA
ATOM     11  C   UNL     1      48.021   3.706  17.346  0.00  0.00    +0.000 A 
ATOM     12  N   UNL     1      48.835   4.770  17.382  0.00  0.00    +0.000 NA
ATOM     13  C   UNL     1      48.719   5.636  16.349  0.00  0.00    +0.000 A 
ENDBRANCH   6   8
ENDBRANCH   1   2
BRANCH   1  14
ATOM     14  N   UNL     1      44.258   6.475  11.925  0.00  0.00    +0.000 N 
ATOM     15  H   UNL     1      44.242   6.477  12.943  0.00  0.00    +0.000 HD
BRANCH  14  18
ATOM     16  C   UNL     1      44.655   3.538   9.658  0.00  0.00    +0.000 A 
ATOM     17  C   UNL     1      44.801   4.829  10.178  0.00  0.00    +0.000 A 
ATOM     18  C   UNL     1      44.203   5.178  11.390  0.00  0.00    +0.000 A 
ATOM     19  C   UNL     1      43.400   4.217  12.005  0.00  0.00    +0.000 A 
ATOM     20  C   UNL     1      43.296   2.956  11.437  0.00  0.00    +0.000 A 
ATOM     21  N   UNL     1      43.910   2.594  10.293  0.00  0.00    +0.000 NA
BRANCH  16  23
ATOM     22  F   UNL     1      45.840   1.911   8.322  0.00  0.00    +0.000 F 
ATOM     23  C   UNL     1      45.337   3.184   8.342  0.00  0.00    +0.000 C 
ATOM     24  F   UNL     1      46.395   3.992   8.048  0.00  0.00    +0.000 F 
ATOM     25  F   UNL     1      44.499   3.252   7.268  0.00  0.00    +0.000 F 
ENDBRANCH  16  23
ENDBRANCH  14  18
ENDBRANCH   1  14
TORSDOF 5
ENDMDL
MODEL 9
REMARK VINA RESULT:    -6.735      4.423      7.656
REMARK INTER + INTRA:          -9.483
REMARK INTER:                  -8.694
REMARK INTRA:                  -0.789
REMARK UNBOUND:                -0.779
REMARK  Name = 
REMARK  5 active torsions:
REMARK  status: ('A' for Active; 'I' for Inactive)
REMARK    1  A    between atoms: C_2  and  C_5
REMARK    2  A    between atoms: C_7  and  N_8
REMARK    3  A    between atoms: N_8  and  C_9
REMARK    4  A    between atoms: C_9  and  C_10
REMARK    5  A    between atoms: C_14  and  C_15
REMARK                            x       y       z     vdW  Elec       q    Type
REMARK                         _______ _______ _______ _____ _____    ______ ____
ROOT
ATOM      1  C   UNL     1      48.496   7.904  14.007  0.00  0.00    +0.000 C 
ENDROOT
BRANCH   1   2
ATOM      2  C   UNL     1      47.176   7.887  13.275  0.00  0.00    +0.000 A 
ATOM      3  C   UNL     1      46.666   9.053  12.697  0.00  0.00    +0.000 A 
ATOM      4  C   UNL     1      45.488   9.008  11.956  0.00  0.00    +0.000 A 
ATOM      5  C   UNL     1      44.816   7.795  11.779  0.00  0.00    +0.000 A 
ATOM      6  C   UNL     1      45.299   6.598  12.339  0.00  0.00    +0.000 A 
ATOM      7  C   UNL     1      46.471   6.678  13.115  0.00  0.00    +0.000 A 
BRANCH   6   8
ATOM      8  C   UNL     1      44.642   5.307  12.065  0.00  0.00    +0.000 A 
ATOM      9  C   UNL     1      44.443   4.338  13.042  0.00  0.00    +0.000 A 
ATOM     10  N   UNL     1      43.819   3.156  12.854  0.00  0.00    +0.000 NA
ATOM     11  C   UNL     1      43.361   2.937  11.615  0.00  0.00    +0.000 A 
ATOM     12  N   UNL     1      43.480   3.778  10.577  0.00  0.00    +0.000 NA
ATOM     13  C   UNL     1      44.123   4.941  10.833  0.00  0.00    +0.000 A 
ENDBRANCH   6   8
ENDBRANCH   1   2
BRANCH   1  14
ATOM     14  N   UNL     1      48.305   7.685  15.437  0.00  0.00    +0.000 N 
ATOM     15  H   UNL     1      48.440   8.538  15.975  0.00  0.00    +0.000 HD
BRANCH  14  18
ATOM     16  C   UNL     1      48.933   4.377  17.045  0.00  0.00    +0.000 A 
ATOM     17  C   UNL     1      48.258   5.423  16.406  0.00  0.00    +0.000 A 
ATOM     18  C   UNL     1      48.942   6.578  16.019  0.00  0.00    +0.000 A 
ATOM     19  C   UNL     1      50.290   6.667  16.367  0.00  0.00    +0.000 A 
ATOM     20  C   UNL     1      50.899   5.596  17.001  0.00  0.00    +0.000 A 
ATOM     21  N   UNL     1      50.260   4.457  17.335  0.00  0.00    +0.000 NA
BRANCH  16  23
ATOM     22  F   UNL     1      46.812   3.237  17.237  0.00  0.00    +0.000 F 
ATOM     23  C   UNL     1      48.161   3.123  17.437  0.00  0.00    +0.000 C 
ATOM     24  F   UNL     1      48.302   2.792  18.752  0.00  0.00    +0.000 F 
ATOM     25  F   UNL     1      48.534   2.020  16.726  0.00  0.00    +0.000 F 
ENDBRANCH  16  23
ENDBRANCH  14  18
ENDBRANCH   1  14
TORSDOF 5
ENDMDL
