MODEL 1
REMARK VINA RESULT:    -7.803      0.000      0.000
REMARK INTER + INTRA:          -9.891
REMARK INTER:                  -9.400
REMARK INTRA:                  -0.492
REMARK UNBOUND:                -0.492
REMARK  Name = 
REMARK  5 active torsions:
REMARK  status: ('A' for Active; 'I' for Inactive)
REMARK    1  A    between atoms: C_1  and  C_2
REMARK    2  A    between atoms: C_9  and  C_10
REMARK    3  A    between atoms: C_10  and  O_12
REMARK    4  A    between atoms: N_14  and  C_15
REMARK    5  A    between atoms: C_15  and  C_16
REMARK                            x       y       z     vdW  Elec       q    Type
REMARK                         _______ _______ _______ _____ _____    ______ ____
ROOT
ATOM      1  C   UNL     1      46.780   0.736   7.641  0.00  0.00    +0.000 C 
ATOM      2  C   UNL     1      45.979   1.913   8.080  0.00  0.00    +0.000 C 
ATOM      3  C   UNL     1      46.368   3.288   7.660  0.00  0.00    +0.000 C 
ATOM      4  N   UNL     1      46.007   4.414   8.190  0.00  0.00    +0.000 NA
ATOM      5  C   UNL     1      45.172   4.400   9.283  0.00  0.00    +0.000 C 
ATOM      6  C   UNL     1      44.551   3.074   9.599  0.00  0.00    +0.000 C 
ATOM      7  C   UNL     1      44.932   1.850   8.916  0.00  0.00    +0.000 C 
ATOM      8  C   UNL     1      43.878   2.918  10.757  0.00  0.00    +0.000 C 
ATOM      9  C   UNL     1      44.060   3.929  11.775  0.00  0.00    +0.000 C 
ATOM     10  C   UNL     1      44.184   5.205  11.361  0.00  0.00    +0.000 C 
ATOM     11  N   UNL     1      44.988   5.487  10.213  0.00  0.00    +0.000 N 
ENDROOT
BRANCH   9  12
ATOM     12  C   UNL     1      45.116   3.679  12.842  0.00  0.00    +0.000 C 
ATOM     13  O   UNL     1      45.415   4.478  13.718  0.00  0.00    +0.000 OA
BRANCH  12  14
ATOM     14  O   UNL     1      45.815   2.530  12.686  0.00  0.00    +0.000 OA
ATOM     15  H   UNL     1      46.772   2.630  12.525  0.00  0.00    +0.000 HD
ENDBRANCH  12  14
ENDBRANCH   9  12
BRANCH  11  16
ATOM     16  C   UNL     1      46.239   6.265  10.546  0.00  0.00    +0.000 C 
BRANCH  16  17
ATOM     17  C   UNL     1      46.401   6.958  11.915  0.00  0.00    +0.000 C 
ATOM     18  C   UNL     1      45.936   8.415  12.107  0.00  0.00    +0.000 C 
ATOM     19  N   UNL     1      46.025   8.843  13.528  0.00  0.00    +0.000 NA
ATOM     20  C   UNL     1      47.399   8.569  14.028  0.00  0.00    +0.000 C 
ATOM     21  C   UNL     1      47.820   7.113  13.791  0.00  0.00    +0.000 C 
ATOM     22  O   UNL     1      47.753   6.790  12.395  0.00  0.00    +0.000 OA
ATOM     23  H   UNL     1      45.375   8.282  14.084  0.00  0.00    +0.000 HD
ENDBRANCH  16  17
ENDBRANCH  11  16
TORSDOF 4
ENDMDL
MODEL 2
REMARK VINA RESULT:    -6.036      3.354      5.678
REMARK INTER + INTRA:          -7.763
REMARK INTER:                  -7.232
REMARK INTRA:                  -0.531
REMARK UNBOUND:                -0.492
REMARK  Name = 
REMARK  5 active torsions:
REMARK  status: ('A' for Active; 'I' for Inactive)
REMARK    1  A    between atoms: C_1  and  C_2
REMARK    2  A    between atoms: C_9  and  C_10
REMARK    3  A    between atoms: C_10  and  O_12
REMARK    4  A    between atoms: N_14  and  C_15
REMARK    5  A    between atoms: C_15  and  C_16
REMARK                            x       y       z     vdW  Elec       q    Type
REMARK                         _______ _______ _______ _____ _____    ______ ____
ROOT
ATOM      1  C   UNL     1      50.416   8.325  11.226  0.00  0.00    +0.000 C 
ATOM      2  C   UNL     1      49.249   7.946  12.071  0.00  0.00    +0.000 C 
ATOM      3  C   UNL     1      49.450   7.173  13.329  0.00  0.00    +0.000 C 
ATOM      4  N   UNL     1      48.570   6.493  13.994  0.00  0.00    +0.000 NA
ATOM      5  C   UNL     1      47.279   6.432  13.524  0.00  0.00    +0.000 C 
ATOM      6  C   UNL     1      46.956   7.381  12.411  0.00  0.00    +0.000 C 
ATOM      7  C   UNL     1      47.969   8.186  11.750  0.00  0.00    +0.000 C 
ATOM      8  C   UNL     1      45.782   7.259  11.758  0.00  0.00    +0.000 C 
ATOM      9  C   UNL     1      45.039   6.033  11.945  0.00  0.00    +0.000 C 
ATOM     10  C   UNL     1      45.062   5.479  13.173  0.00  0.00    +0.000 C 
ATOM     11  N   UNL     1      46.296   5.443  13.894  0.00  0.00    +0.000 N 
ENDROOT
BRANCH   9  12
ATOM     12  C   UNL     1      45.240   4.920  10.927  0.00  0.00    +0.000 C 
ATOM     13  O   UNL     1      45.144   3.727  11.180  0.00  0.00    +0.000 OA
BRANCH  12  14
ATOM     14  O   UNL     1      45.665   5.336   9.710  0.00  0.00    +0.000 OA
ATOM     15  H   UNL     1      46.333   6.047   9.711  0.00  0.00    +0.000 HD
ENDBRANCH  12  14
ENDBRANCH   9  12
BRANCH  11  16
ATOM     16  C   UNL     1      46.833   4.043  14.076  0.00  0.00    +0.000 C 
BRANCH  16  17
ATOM     17  C   UNL     1      47.229   3.521  15.474  0.00  0.00    +0.000 C 
ATOM     18  C   UNL     1      47.157   4.453  16.699  0.00  0.00    +0.000 C 
ATOM     19  N   UNL     1      47.418   3.724  17.968  0.00  0.00    +0.000 NA
ATOM     20  C   UNL     1      48.700   2.980  17.840  0.00  0.00    +0.000 C 
ATOM     21  C   UNL     1      48.727   2.087  16.593  0.00  0.00    +0.000 C 
ATOM     22  O   UNL     1      48.515   2.868  15.408  0.00  0.00    +0.000 OA
ATOM     23  H   UNL     1      46.674   3.038  18.113  0.00  0.00    +0.000 HD
ENDBRANCH  16  17
ENDBRANCH  11  16
TORSDOF 4
ENDMDL
MODEL 3
REMARK VINA RESULT:    -5.982      3.457      5.717
REMARK INTER + INTRA:          -7.698
REMARK INTER:                  -7.140
REMARK INTRA:                  -0.557
REMARK UNBOUND:                -0.492
REMARK  Name = 
REMARK  5 active torsions:
REMARK  status: ('A' for Active; 'I' for Inactive)
REMARK    1  A    between atoms: C_1  and  C_2
REMARK    2  A    between atoms: C_9  and  C_10
REMARK    3  A    between atoms: C_10  and  O_12
REMARK    4  A    between atoms: N_14  and  C_15
REMARK    5  A    between atoms: C_15  and  C_16
REMARK                            x       y       z     vdW  Elec       q    Type
REMARK                         _______ _______ _______ _____ _____    ______ ____
ROOT
ATOM      1  C   UNL     1      42.293   5.526  11.745  0.00  0.00    +0.000 C 
ATOM      2  C   UNL     1      43.746   5.287  11.976  0.00  0.00    +0.000 C 
ATOM      3  C   UNL     1      44.193   4.289  12.986  0.00  0.00    +0.000 C 
ATOM      4  N   UNL     1      45.359   4.185  13.542  0.00  0.00    +0.000 NA
ATOM      5  C   UNL     1      46.341   5.087  13.204  0.00  0.00    +0.000 C 
ATOM      6  C   UNL     1      46.036   5.954  12.021  0.00  0.00    +0.000 C 
ATOM      7  C   UNL     1      44.733   5.973  11.380  0.00  0.00    +0.000 C 
ATOM      8  C   UNL     1      46.847   6.993  11.736  0.00  0.00    +0.000 C 
ATOM      9  C   UNL     1      47.780   7.411  12.759  0.00  0.00    +0.000 C 
ATOM     10  C   UNL     1      48.341   6.446  13.513  0.00  0.00    +0.000 C 
ATOM     11  N   UNL     1      47.528   5.365  13.975  0.00  0.00    +0.000 N 
ENDROOT
BRANCH   9  12
ATOM     12  C   UNL     1      47.355   8.540  13.686  0.00  0.00    +0.000 C 
ATOM     13  O   UNL     1      48.082   9.056  14.525  0.00  0.00    +0.000 OA
BRANCH  12  14
ATOM     14  O   UNL     1      46.044   8.871  13.611  0.00  0.00    +0.000 OA
ATOM     15  H   UNL     1      45.709   9.092  12.722  0.00  0.00    +0.000 HD
ENDBRANCH  12  14
ENDBRANCH   9  12
BRANCH  11  16
ATOM     16  C   UNL     1      47.331   5.373  15.473  0.00  0.00    +0.000 C 
BRANCH  16  17
ATOM     17  C   UNL     1      48.097   4.384  16.378  0.00  0.00    +0.000 C 
ATOM     18  C   UNL     1      49.371   4.837  17.117  0.00  0.00    +0.000 C 
ATOM     19  N   UNL     1      49.865   3.798  18.059  0.00  0.00    +0.000 NA
ATOM     20  C   UNL     1      50.006   2.511  17.326  0.00  0.00    +0.000 C 
ATOM     21  C   UNL     1      48.718   2.121  16.590  0.00  0.00    +0.000 C 
ATOM     22  O   UNL     1      48.333   3.150  15.668  0.00  0.00    +0.000 OA
ATOM     23  H   UNL     1      49.167   3.661  18.794  0.00  0.00    +0.000 HD
ENDBRANCH  16  17
ENDBRANCH  11  16
TORSDOF 4
ENDMDL
MODEL 4
REMARK VINA RESULT:    -5.899      3.358      5.235
REMARK INTER + INTRA:          -7.598
REMARK INTER:                  -6.821
REMARK INTRA:                  -0.777
REMARK UNBOUND:                -0.492
REMARK  Name = 
REMARK  5 active torsions:
REMARK  status: ('A' for Active; 'I' for Inactive)
REMARK    1  A    between atoms: C_1  and  C_2
REMARK    2  A    between atoms: C_9  and  C_10
REMARK    3  A    between atoms: C_10  and  O_12
REMARK    4  A    between atoms: N_14  and  C_15
REMARK    5  A    between atoms: C_15  and  C_16
REMARK                            x       y       z     vdW  Elec       q    Type
REMARK                         _______ _______ _______ _____ _____    ______ ____
ROOT
ATOM      1  C   UNL     1      47.214   3.703  17.396  0.00  0.00    +0.000 C 
ATOM      2  C   UNL     1      47.477   4.256  16.038  0.00  0.00    +0.000 C 
ATOM      3  C   UNL     1      48.242   5.524  15.877  0.00  0.00    +0.000 C 
ATOM      4  N   UNL     1      48.282   6.303  14.843  0.00  0.00    +0.000 NA
ATOM      5  C   UNL     1      47.539   5.976  13.732  0.00  0.00    +0.000 C 
ATOM      6  C   UNL     1      46.949   4.599  13.737  0.00  0.00    +0.000 C 
ATOM      7  C   UNL     1      47.003   3.729  14.899  0.00  0.00    +0.000 C 
ATOM      8  C   UNL     1      46.052   4.261  12.789  0.00  0.00    +0.000 C 
ATOM      9  C   UNL     1      45.464   5.331  12.014  0.00  0.00    +0.000 C 
ATOM     10  C   UNL     1      46.262   6.368  11.692  0.00  0.00    +0.000 C 
ATOM     11  N   UNL     1      47.160   6.885  12.678  0.00  0.00    +0.000 N 
ENDROOT
BRANCH   9  12
ATOM     12  C   UNL     1      44.131   5.895  12.481  0.00  0.00    +0.000 C 
ATOM     13  O   UNL     1      43.461   5.424  13.390  0.00  0.00    +0.000 OA
BRANCH  12  14
ATOM     14  O   UNL     1      43.651   6.912  11.726  0.00  0.00    +0.000 OA
ATOM     15  H   UNL     1      43.243   7.652  12.214  0.00  0.00    +0.000 HD
ENDBRANCH  12  14
ENDBRANCH   9  12
BRANCH  11  16
ATOM     16  C   UNL     1      46.798   8.279  13.133  0.00  0.00    +0.000 C 
BRANCH  16  17
ATOM     17  C   UNL     1      46.154   9.288  12.159  0.00  0.00    +0.000 C 
ATOM     18  C   UNL     1      46.862  10.620  11.840  0.00  0.00    +0.000 C 
ATOM     19  N   UNL     1      46.167  11.374  10.763  0.00  0.00    +0.000 NA
ATOM     20  C   UNL     1      44.731  11.516  11.125  0.00  0.00    +0.000 C 
ATOM     21  C   UNL     1      44.082  10.166  11.455  0.00  0.00    +0.000 C 
ATOM     22  O   UNL     1      44.778   9.522  12.532  0.00  0.00    +0.000 OA
ATOM     23  H   UNL     1      46.217  10.834   9.897  0.00  0.00    +0.000 HD
ENDBRANCH  16  17
ENDBRANCH  11  16
TORSDOF 4
ENDMDL
MODEL 5
REMARK VINA RESULT:    -5.660      2.987      6.499
REMARK INTER + INTRA:          -7.310
REMARK INTER:                  -6.514
REMARK INTRA:                  -0.796
REMARK UNBOUND:                -0.492
REMARK  Name = 
REMARK  5 active torsions:
REMARK  status: ('A' for Active; 'I' for Inactive)
REMARK    1  A    between atoms: C_1  and  C_2
REMARK    2  A    between atoms: C_9  and  C_10
REMARK    3  A    between atoms: C_10  and  O_12
REMARK    4  A    between atoms: N_14  and  C_15
REMARK    5  A    between atoms: C_15  and  C_16
REMARK                            x       y       z     vdW  Elec       q    Type
REMARK                         _______ _______ _______ _____ _____    ______ ____
ROOT
ATOM      1  C   UNL     1      50.341  10.749  10.250  0.00  0.00    +0.000 C 
ATOM      2  C   UNL     1      49.496  10.017  11.236  0.00  0.00    +0.000 C 
ATOM      3  C   UNL     1      49.724   8.568  11.493  0.00  0.00    +0.000 C 
ATOM      4  N   UNL     1      48.912   7.720  12.042  0.00  0.00    +0.000 NA
ATOM      5  C   UNL     1      47.670   8.151  12.447  0.00  0.00    +0.000 C 
ATOM      6  C   UNL     1      47.474   9.636  12.444  0.00  0.00    +0.000 C 
ATOM      7  C   UNL     1      48.455  10.553  11.890  0.00  0.00    +0.000 C 
ATOM      8  C   UNL     1      46.239  10.141  12.636  0.00  0.00    +0.000 C 
ATOM      9  C   UNL     1      45.121   9.231  12.515  0.00  0.00    +0.000 C 
ATOM     10  C   UNL     1      45.296   7.976  12.972  0.00  0.00    +0.000 C 
ATOM     11  N   UNL     1      46.530   7.305  12.704  0.00  0.00    +0.000 N 
ENDROOT
BRANCH   9  12
ATOM     12  C   UNL     1      44.420   9.144  11.167  0.00  0.00    +0.000 C 
ATOM     13  O   UNL     1      44.470  10.010  10.306  0.00  0.00    +0.000 OA
BRANCH  12  14
ATOM     14  O   UNL     1      43.610   8.068  11.020  0.00  0.00    +0.000 OA
ATOM     15  H   UNL     1      43.236   7.933  10.129  0.00  0.00    +0.000 HD
ENDBRANCH  12  14
ENDBRANCH   9  12
BRANCH  11  16
ATOM     16  C   UNL     1      46.374   6.135  11.762  0.00  0.00    +0.000 C 
BRANCH  16  17
ATOM     17  C   UNL     1      45.268   5.082  11.982  0.00  0.00    +0.000 C 
ATOM     18  C   UNL     1      45.639   3.607  12.232  0.00  0.00    +0.000 C 
ATOM     19  N   UNL     1      44.450   2.787  12.582  0.00  0.00    +0.000 NA
ATOM     20  C   UNL     1      43.404   2.987  11.542  0.00  0.00    +0.000 C 
ATOM     21  C   UNL     1      43.090   4.472  11.318  0.00  0.00    +0.000 C 
ATOM     22  O   UNL     1      44.275   5.186  10.938  0.00  0.00    +0.000 OA
ATOM     23  H   UNL     1      44.070   3.119  13.471  0.00  0.00    +0.000 HD
ENDBRANCH  16  17
ENDBRANCH  11  16
TORSDOF 4
ENDMDL
MODEL 6
REMARK VINA RESULT:    -5.573      4.855      7.572
REMARK INTER + INTRA:          -7.205
REMARK INTER:                  -6.486
REMARK INTRA:                  -0.719
REMARK UNBOUND:                -0.492
REMARK  Name = 
REMARK  5 active torsions:
REMARK  status: ('A' for Active; 'I' for Inactive)
REMARK    1  A    between atoms: C_1  and  C_2
REMARK    2  A    between atoms: C_9  and  C_10
REMARK    3  A    between atoms: C_10  and  O_12
REMARK    4  A    between atoms: N_14  and  C_15
REMARK    5  A    between atoms: C_15  and  C_16
REMARK                            x       y       z     vdW  Elec       q    Type
REMARK                         _______ _______ _______ _____ _____    ______ ____
ROOT
ATOM      1  C   UNL     1      53.081   2.326  17.662  0.00  0.00    +0.000 C 
ATOM      2  C   UNL     1      51.616   2.581  17.746  0.00  0.00    +0.000 C 
ATOM      3  C   UNL     1      50.658   1.723  16.995  0.00  0.00    +0.000 C 
ATOM      4  N   UNL     1      49.425   1.983  16.691  0.00  0.00    +0.000 NA
ATOM      5  C   UNL     1      48.884   3.189  17.071  0.00  0.00    +0.000 C 
ATOM      6  C   UNL     1      49.709   3.986  18.035  0.00  0.00    +0.000 C 
ATOM      7  C   UNL     1      51.060   3.606  18.409  0.00  0.00    +0.000 C 
ATOM      8  C   UNL     1      49.357   5.258  18.312  0.00  0.00    +0.000 C 
ATOM      9  C   UNL     1      48.400   5.892  17.431  0.00  0.00    +0.000 C 
ATOM     10  C   UNL     1      47.405   5.123  16.947  0.00  0.00    +0.000 C 
ATOM     11  N   UNL     1      47.706   3.797  16.504  0.00  0.00    +0.000 N 
ENDROOT
BRANCH   9  12
ATOM     12  C   UNL     1      48.940   6.734  16.285  0.00  0.00    +0.000 C 
ATOM     13  O   UNL     1      49.965   6.483  15.667  0.00  0.00    +0.000 OA
BRANCH  12  14
ATOM     14  O   UNL     1      48.261   7.884  16.060  0.00  0.00    +0.000 OA
ATOM     15  H   UNL     1      47.701   7.902  15.261  0.00  0.00    +0.000 HD
ENDBRANCH  12  14
ENDBRANCH   9  12
BRANCH  11  16
ATOM     16  C   UNL     1      47.550   3.624  15.012  0.00  0.00    +0.000 C 
BRANCH  16  17
ATOM     17  C   UNL     1      46.900   4.727  14.149  0.00  0.00    +0.000 C 
ATOM     18  C   UNL     1      45.603   4.439  13.369  0.00  0.00    +0.000 C 
ATOM     19  N   UNL     1      45.050   5.666  12.738  0.00  0.00    +0.000 NA
ATOM     20  C   UNL     1      46.119   6.314  11.930  0.00  0.00    +0.000 C 
ATOM     21  C   UNL     1      47.394   6.556  12.747  0.00  0.00    +0.000 C 
ATOM     22  O   UNL     1      47.891   5.322  13.284  0.00  0.00    +0.000 OA
ATOM     23  H   UNL     1      44.777   6.321  13.473  0.00  0.00    +0.000 HD
ENDBRANCH  16  17
ENDBRANCH  11  16
TORSDOF 4
ENDMDL
MODEL 7
REMARK VINA RESULT:    -5.568      3.078      6.690
REMARK INTER + INTRA:          -7.199
REMARK INTER:                  -6.799
REMARK INTRA:                  -0.401
REMARK UNBOUND:                -0.492
REMARK  Name = 
REMARK  5 active torsions:
REMARK  status: ('A' for Active; 'I' for Inactive)
REMARK    1  A    between atoms: C_1  and  C_2
REMARK    2  A    between atoms: C_9  and  C_10
REMARK    3  A    between atoms: C_10  and  O_12
REMARK    4  A    between atoms: N_14  and  C_15
REMARK    5  A    between atoms: C_15  and  C_16
REMARK                            x       y       z     vdW  Elec       q    Type
REMARK                         _______ _______ _______ _____ _____    ______ ____
ROOT
ATOM      1  C   UNL     1      50.132   2.627  17.500  0.00  0.00    +0.000 C 
ATOM      2  C   UNL     1      49.138   3.622  17.009  0.00  0.00    +0.000 C 
ATOM      3  C   UNL     1      47.912   3.172  16.294  0.00  0.00    +0.000 C 
ATOM      4  N   UNL     1      47.131   3.872  15.533  0.00  0.00    +0.000 NA
ATOM      5  C   UNL     1      47.428   5.198  15.313  0.00  0.00    +0.000 C 
ATOM      6  C   UNL     1      48.496   5.771  16.192  0.00  0.00    +0.000 C 
ATOM      7  C   UNL     1      49.290   4.953  17.093  0.00  0.00    +0.000 C 
ATOM      8  C   UNL     1      48.988   6.996  15.922  0.00  0.00    +0.000 C 
ATOM      9  C   UNL     1      48.696   7.561  14.623  0.00  0.00    +0.000 C 
ATOM     10  C   UNL     1      47.477   7.314  14.104  0.00  0.00    +0.000 C 
ATOM     11  N   UNL     1      46.923   6.001  14.227  0.00  0.00    +0.000 N 
ENDROOT
BRANCH   9  12
ATOM     12  C   UNL     1      49.722   7.364  13.517  0.00  0.00    +0.000 C 
ATOM     13  O   UNL     1      49.449   7.038  12.371  0.00  0.00    +0.000 OA
BRANCH  12  14
ATOM     14  O   UNL     1      51.012   7.457  13.920  0.00  0.00    +0.000 OA
ATOM     15  H   UNL     1      51.166   7.395  14.882  0.00  0.00    +0.000 HD
ENDBRANCH  12  14
ENDBRANCH   9  12
BRANCH  11  16
ATOM     16  C   UNL     1      46.802   5.286  12.902  0.00  0.00    +0.000 C 
BRANCH  16  17
ATOM     17  C   UNL     1      45.423   5.056  12.249  0.00  0.00    +0.000 C 
ATOM     18  C   UNL     1      45.139   5.585  10.830  0.00  0.00    +0.000 C 
ATOM     19  N   UNL     1      43.822   5.122  10.318  0.00  0.00    +0.000 NA
ATOM     20  C   UNL     1      42.772   5.458  11.318  0.00  0.00    +0.000 C 
ATOM     21  C   UNL     1      43.116   4.928  12.716  0.00  0.00    +0.000 C 
ATOM     22  O   UNL     1      44.375   5.455  13.159  0.00  0.00    +0.000 OA
ATOM     23  H   UNL     1      43.844   4.105  10.221  0.00  0.00    +0.000 HD
ENDBRANCH  16  17
ENDBRANCH  11  16
TORSDOF 4
ENDMDL
MODEL 8
REMARK VINA RESULT:    -5.485      3.178      4.996
REMARK INTER + INTRA:          -7.099
REMARK INTER:                  -6.482
REMARK INTRA:                  -0.616
REMARK UNBOUND:                -0.492
REMARK  Name = 
REMARK  5 active torsions:
REMARK  status: ('A' for Active; 'I' for Inactive)
REMARK    1  A    between atoms: C_1  and  C_2
REMARK    2  A    between atoms: C_9  and  C_10
REMARK    3  A    between atoms: C_10  and  O_12
REMARK    4  A    between atoms: N_14  and  C_15
REMARK    5  A    between atoms: C_15  and  C_16
REMARK                            x       y       z     vdW  Elec       q    Type
REMARK                         _______ _______ _______ _____ _____    ______ ____
ROOT
ATOM      1  C   UNL     1      47.226   3.979  17.318  0.00  0.00    +0.000 C 
ATOM      2  C   UNL     1      47.406   4.367  15.891  0.00  0.00    +0.000 C 
ATOM      3  C   UNL     1      48.194   5.579  15.534  0.00  0.00    +0.000 C 
ATOM      4  N   UNL     1      48.182   6.235  14.417  0.00  0.00    +0.000 NA
ATOM      5  C   UNL     1      47.351   5.815  13.404  0.00  0.00    +0.000 C 
ATOM      6  C   UNL     1      46.723   4.470  13.607  0.00  0.00    +0.000 C 
ATOM      7  C   UNL     1      46.835   3.735  14.854  0.00  0.00    +0.000 C 
ATOM      8  C   UNL     1      45.749   4.062  12.769  0.00  0.00    +0.000 C 
ATOM      9  C   UNL     1      45.138   5.061  11.919  0.00  0.00    +0.000 C 
ATOM     10  C   UNL     1      45.941   6.025  11.426  0.00  0.00    +0.000 C 
ATOM     11  N   UNL     1      46.924   6.614  12.282  0.00  0.00    +0.000 N 
ENDROOT
BRANCH   9  12
ATOM     12  C   UNL     1      43.860   5.724  12.409  0.00  0.00    +0.000 C 
ATOM     13  O   UNL     1      43.184   5.315  13.343  0.00  0.00    +0.000 OA
BRANCH  12  14
ATOM     14  O   UNL     1      43.432   6.760  11.648  0.00  0.00    +0.000 OA
ATOM     15  H   UNL     1      42.475   6.786  11.459  0.00  0.00    +0.000 HD
ENDBRANCH  12  14
ENDBRANCH   9  12
BRANCH  11  16
ATOM     16  C   UNL     1      46.638   8.063  12.599  0.00  0.00    +0.000 C 
BRANCH  16  17
ATOM     17  C   UNL     1      47.729   9.142  12.428  0.00  0.00    +0.000 C 
ATOM     18  C   UNL     1      48.994   8.841  11.600  0.00  0.00    +0.000 C 
ATOM     19  N   UNL     1      49.839  10.051  11.418  0.00  0.00    +0.000 NA
ATOM     20  C   UNL     1      50.108  10.654  12.751  0.00  0.00    +0.000 C 
ATOM     21  C   UNL     1      48.818  10.910  13.541  0.00  0.00    +0.000 C 
ATOM     22  O   UNL     1      48.083   9.691  13.715  0.00  0.00    +0.000 OA
ATOM     23  H   UNL     1      49.318  10.737  10.867  0.00  0.00    +0.000 HD
ENDBRANCH  16  17
ENDBRANCH  11  16
TORSDOF 4
ENDMDL
MODEL 9
REMARK VINA RESULT:    -5.197      6.253      8.401
REMARK INTER + INTRA:          -6.752
REMARK INTER:                  -6.025
REMARK INTRA:                  -0.728
REMARK UNBOUND:                -0.492
REMARK  Name = 
REMARK  5 active torsions:
REMARK  status: ('A' for Active; 'I' for Inactive)
REMARK    1  A    between atoms: C_1  and  C_2
REMARK    2  A    between atoms: C_9  and  C_10
REMARK    3  A    between atoms: C_10  and  O_12
REMARK    4  A    between atoms: N_14  and  C_15
REMARK    5  A    between atoms: C_15  and  C_16
REMARK                            x       y       z     vdW  Elec       q    Type
REMARK                         _______ _______ _______ _____ _____    ______ ____
ROOT
ATOM      1  C   UNL     1      47.566   6.028  12.722  0.00  0.00    +0.000 C 
ATOM      2  C   UNL     1      47.662   5.880  14.201  0.00  0.00    +0.000 C 
ATOM      3  C   UNL     1      48.454   6.853  15.005  0.00  0.00    +0.000 C 
ATOM      4  N   UNL     1      48.909   6.706  16.209  0.00  0.00    +0.000 NA
ATOM      5  C   UNL     1      48.674   5.523  16.872  0.00  0.00    +0.000 C 
ATOM      6  C   UNL     1      47.682   4.609  16.221  0.00  0.00    +0.000 C 
ATOM      7  C   UNL     1      47.135   4.863  14.899  0.00  0.00    +0.000 C 
ATOM      8  C   UNL     1      47.532   3.354  16.689  0.00  0.00    +0.000 C 
ATOM      9  C   UNL     1      48.554   2.848  17.580  0.00  0.00    +0.000 C 
ATOM     10  C   UNL     1      49.092   3.718  18.457  0.00  0.00    +0.000 C 
ATOM     11  N   UNL     1      49.408   5.041  18.016  0.00  0.00    +0.000 N 
ENDROOT
BRANCH   9  12
ATOM     12  C   UNL     1      49.688   2.038  16.971  0.00  0.00    +0.000 C 
ATOM     13  O   UNL     1      49.713   1.648  15.811  0.00  0.00    +0.000 OA
BRANCH  12  14
ATOM     14  O   UNL     1      50.645   1.655  17.850  0.00  0.00    +0.000 OA
ATOM     15  H   UNL     1      51.042   0.777  17.694  0.00  0.00    +0.000 HD
ENDBRANCH  12  14
ENDBRANCH   9  12
BRANCH  11  16
ATOM     16  C   UNL     1      50.893   5.314  17.987  0.00  0.00    +0.000 C 
BRANCH  16  17
ATOM     17  C   UNL     1      51.851   4.591  18.957  0.00  0.00    +0.000 C 
ATOM     18  C   UNL     1      52.547   5.374  20.088  0.00  0.00    +0.000 C 
ATOM     19  N   UNL     1      53.294   4.475  21.007  0.00  0.00    +0.000 NA
ATOM     20  C   UNL     1      54.208   3.618  20.205  0.00  0.00    +0.000 C 
ATOM     21  C   UNL     1      53.469   2.882  19.080  0.00  0.00    +0.000 C 
ATOM     22  O   UNL     1      52.814   3.816  18.211  0.00  0.00    +0.000 OA
ATOM     23  H   UNL     1      52.628   3.861  21.481  0.00  0.00    +0.000 HD
ENDBRANCH  16  17
ENDBRANCH  11  16
TORSDOF 4
ENDMDL
