MODEL 1
REMARK VINA RESULT:    -9.249      0.000      0.000
REMARK INTER + INTRA:         -13.053
REMARK INTER:                 -11.952
REMARK INTRA:                  -1.101
REMARK UNBOUND:                -1.101
REMARK  Name = 
REMARK  5 active torsions:
REMARK  status: ('A' for Active; 'I' for Inactive)
REMARK    1  A    between atoms: C_2  and  C_4
REMARK    2  A    between atoms: C_7  and  N_8
REMARK    3  A    between atoms: N_8  and  C_9
REMARK    4  A    between atoms: C_9  and  C_10
REMARK    5  A    between atoms: C_14  and  C_15
REMARK                            x       y       z     vdW  Elec       q    Type
REMARK                         _______ _______ _______ _____ _____    ______ ____
ROOT
ATOM      1  C   UNL     1      43.910   4.969  11.451  0.00  0.00    +0.000 C 
ATOM      2  C   UNL     1      43.130   4.050  12.384  0.00  0.00    +0.000 C 
ATOM      3  C   UNL     1      42.723   5.477  12.264  0.00  0.00    +0.000 C 
ENDROOT
BRANCH   1   4
ATOM      4  C   UNL     1      45.253   5.549  11.896  0.00  0.00    +0.000 A 
ATOM      5  C   UNL     1      45.808   6.669  11.257  0.00  0.00    +0.000 A 
ATOM      6  C   UNL     1      46.942   7.303  11.762  0.00  0.00    +0.000 A 
ATOM      7  C   UNL     1      47.545   6.825  12.927  0.00  0.00    +0.000 A 
ATOM      8  C   UNL     1      47.046   5.693  13.589  0.00  0.00    +0.000 A 
ATOM      9  C   UNL     1      45.927   5.052  13.026  0.00  0.00    +0.000 A 
BRANCH   8  10
ATOM     10  C   UNL     1      47.586   5.245  14.886  0.00  0.00    +0.000 A 
ATOM     11  C   UNL     1      47.202   4.023  15.454  0.00  0.00    +0.000 A 
ATOM     12  C   UNL     1      47.791   3.569  16.633  0.00  0.00    +0.000 A 
ATOM     13  C   UNL     1      48.763   4.355  17.224  0.00  0.00    +0.000 A 
ATOM     14  N   UNL     1      49.166   5.542  16.729  0.00  0.00    +0.000 NA
ATOM     15  C   UNL     1      48.567   5.957  15.583  0.00  0.00    +0.000 A 
ENDBRANCH   8  10
ENDBRANCH   1   4
BRANCH   1  16
ATOM     16  N   UNL     1      43.784   4.775   9.997  0.00  0.00    +0.000 N 
ATOM     17  H   UNL     1      42.885   4.958   9.563  0.00  0.00    +0.000 HD
BRANCH  16  21
ATOM     18  C   UNL     1      46.370   2.240   7.792  0.00  0.00    +0.000 A 
ATOM     19  C   UNL     1      45.482   1.694   8.715  0.00  0.00    +0.000 A 
ATOM     20  C   UNL     1      44.637   2.528   9.448  0.00  0.00    +0.000 A 
ATOM     21  C   UNL     1      44.619   3.915   9.254  0.00  0.00    +0.000 A 
ATOM     22  C   UNL     1      45.552   4.457   8.360  0.00  0.00    +0.000 A 
ATOM     23  C   UNL     1      46.426   3.628   7.638  0.00  0.00    +0.000 A 
BRANCH  18  25
ATOM     24  N   UNL     1      48.395   1.987   6.467  0.00  0.00    +0.000 N 
ATOM     25  C   UNL     1      47.291   1.380   7.013  0.00  0.00    +0.000 C 
ATOM     26  O   UNL     1      47.095   0.181   6.877  0.00  0.00    +0.000 OA
ATOM     27  H   UNL     1      49.052   1.383   5.992  0.00  0.00    +0.000 HD
ATOM     28  H   UNL     1      48.715   2.898   6.751  0.00  0.00    +0.000 HD
ENDBRANCH  18  25
ENDBRANCH  16  21
ENDBRANCH   1  16
TORSDOF 5
ENDMDL
MODEL 2
REMARK VINA RESULT:    -8.675      1.310      1.975
REMARK INTER + INTRA:         -12.312
REMARK INTER:                 -11.351
REMARK INTRA:                  -0.961
REMARK UNBOUND:                -1.101
REMARK  Name = 
REMARK  5 active torsions:
REMARK  status: ('A' for Active; 'I' for Inactive)
REMARK    1  A    between atoms: C_2  and  C_4
REMARK    2  A    between atoms: C_7  and  N_8
REMARK    3  A    between atoms: N_8  and  C_9
REMARK    4  A    between atoms: C_9  and  C_10
REMARK    5  A    between atoms: C_14  and  C_15
REMARK                            x       y       z     vdW  Elec       q    Type
REMARK                         _______ _______ _______ _____ _____    ______ ____
ROOT
ATOM      1  C   UNL     1      44.117   5.050  11.602  0.00  0.00    +0.000 C 
ATOM      2  C   UNL     1      44.177   3.915  12.617  0.00  0.00    +0.000 C 
ATOM      3  C   UNL     1      43.050   4.886  12.680  0.00  0.00    +0.000 C 
ENDROOT
BRANCH   1   4
ATOM      4  C   UNL     1      44.994   6.290  11.788  0.00  0.00    +0.000 A 
ATOM      5  C   UNL     1      44.539   7.564  11.413  0.00  0.00    +0.000 A 
ATOM      6  C   UNL     1      45.260   8.713  11.734  0.00  0.00    +0.000 A 
ATOM      7  C   UNL     1      46.457   8.608  12.442  0.00  0.00    +0.000 A 
ATOM      8  C   UNL     1      46.970   7.356  12.817  0.00  0.00    +0.000 A 
ATOM      9  C   UNL     1      46.239   6.216  12.438  0.00  0.00    +0.000 A 
BRANCH   8  10
ATOM     10  C   UNL     1      48.164   7.225  13.674  0.00  0.00    +0.000 A 
ATOM     11  C   UNL     1      49.282   8.051  13.497  0.00  0.00    +0.000 A 
ATOM     12  C   UNL     1      50.365   7.980  14.372  0.00  0.00    +0.000 A 
ATOM     13  C   UNL     1      50.303   7.077  15.417  0.00  0.00    +0.000 A 
ATOM     14  N   UNL     1      49.259   6.252  15.631  0.00  0.00    +0.000 NA
ATOM     15  C   UNL     1      48.225   6.343  14.756  0.00  0.00    +0.000 A 
ENDBRANCH   8  10
ENDBRANCH   1   4
BRANCH   1  16
ATOM     16  N   UNL     1      43.809   4.730  10.199  0.00  0.00    +0.000 N 
ATOM     17  H   UNL     1      42.836   4.724   9.909  0.00  0.00    +0.000 HD
BRANCH  16  21
ATOM     18  C   UNL     1      46.450   2.505   7.739  0.00  0.00    +0.000 A 
ATOM     19  C   UNL     1      45.593   1.844   8.615  0.00  0.00    +0.000 A 
ATOM     20  C   UNL     1      44.730   2.576   9.432  0.00  0.00    +0.000 A 
ATOM     21  C   UNL     1      44.662   3.974   9.369  0.00  0.00    +0.000 A 
ATOM     22  C   UNL     1      45.565   4.629   8.522  0.00  0.00    +0.000 A 
ATOM     23  C   UNL     1      46.458   3.903   7.716  0.00  0.00    +0.000 A 
BRANCH  18  25
ATOM     24  N   UNL     1      48.470   2.446   6.383  0.00  0.00    +0.000 N 
ATOM     25  C   UNL     1      47.389   1.755   6.874  0.00  0.00    +0.000 C 
ATOM     26  O   UNL     1      47.229   0.570   6.621  0.00  0.00    +0.000 OA
ATOM     27  H   UNL     1      49.141   1.912   5.847  0.00  0.00    +0.000 HD
ATOM     28  H   UNL     1      48.765   3.334   6.754  0.00  0.00    +0.000 HD
ENDBRANCH  18  25
ENDBRANCH  16  21
ENDBRANCH   1  16
TORSDOF 5
ENDMDL
MODEL 3
REMARK VINA RESULT:    -8.131      2.050      3.264
REMARK INTER + INTRA:         -11.609
REMARK INTER:                 -11.094
REMARK INTRA:                  -0.515
REMARK UNBOUND:                -1.101
REMARK  Name = 
REMARK  5 active torsions:
REMARK  status: ('A' for Active; 'I' for Inactive)
REMARK    1  A    between atoms: C_2  and  C_4
REMARK    2  A    between atoms: C_7  and  N_8
REMARK    3  A    between atoms: N_8  and  C_9
REMARK    4  A    between atoms: C_9  and  C_10
REMARK    5  A    between atoms: C_14  and  C_15
REMARK                            x       y       z     vdW  Elec       q    Type
REMARK                         _______ _______ _______ _____ _____    ______ ____
ROOT
ATOM      1  C   UNL     1      43.649   4.903  11.483  0.00  0.00    +0.000 C 
ATOM      2  C   UNL     1      42.359   5.484  12.052  0.00  0.00    +0.000 C 
ATOM      3  C   UNL     1      43.078   6.225  10.980  0.00  0.00    +0.000 C 
ENDROOT
BRANCH   1   4
ATOM      4  C   UNL     1      44.961   5.053  12.254  0.00  0.00    +0.000 A 
ATOM      5  C   UNL     1      45.481   3.995  13.016  0.00  0.00    +0.000 A 
ATOM      6  C   UNL     1      46.754   4.066  13.581  0.00  0.00    +0.000 A 
ATOM      7  C   UNL     1      47.536   5.206  13.390  0.00  0.00    +0.000 A 
ATOM      8  C   UNL     1      47.053   6.302  12.659  0.00  0.00    +0.000 A 
ATOM      9  C   UNL     1      45.748   6.213  12.142  0.00  0.00    +0.000 A 
BRANCH   8  10
ATOM     10  C   UNL     1      47.905   7.463  12.337  0.00  0.00    +0.000 A 
ATOM     11  C   UNL     1      49.268   7.311  12.053  0.00  0.00    +0.000 A 
ATOM     12  C   UNL     1      50.040   8.403  11.659  0.00  0.00    +0.000 A 
ATOM     13  C   UNL     1      49.423   9.636  11.554  0.00  0.00    +0.000 A 
ATOM     14  N   UNL     1      48.119   9.844  11.824  0.00  0.00    +0.000 NA
ATOM     15  C   UNL     1      47.399   8.760  12.211  0.00  0.00    +0.000 A 
ENDBRANCH   8  10
ENDBRANCH   1   4
BRANCH   1  16
ATOM     16  N   UNL     1      43.572   3.695  10.646  0.00  0.00    +0.000 N 
ATOM     17  H   UNL     1      43.079   2.886  11.011  0.00  0.00    +0.000 HD
BRANCH  16  21
ATOM     18  C   UNL     1      46.439   2.841   7.642  0.00  0.00    +0.000 A 
ATOM     19  C   UNL     1      45.880   1.804   8.384  0.00  0.00    +0.000 A 
ATOM     20  C   UNL     1      44.942   2.085   9.379  0.00  0.00    +0.000 A 
ATOM     21  C   UNL     1      44.505   3.391   9.633  0.00  0.00    +0.000 A 
ATOM     22  C   UNL     1      45.113   4.430   8.916  0.00  0.00    +0.000 A 
ATOM     23  C   UNL     1      46.077   4.160   7.931  0.00  0.00    +0.000 A 
BRANCH  18  25
ATOM     24  N   UNL     1      47.242   3.160   5.367  0.00  0.00    +0.000 N 
ATOM     25  C   UNL     1      47.449   2.574   6.592  0.00  0.00    +0.000 C 
ATOM     26  O   UNL     1      48.435   1.884   6.804  0.00  0.00    +0.000 OA
ATOM     27  H   UNL     1      47.967   3.026   4.675  0.00  0.00    +0.000 HD
ATOM     28  H   UNL     1      46.590   3.913   5.225  0.00  0.00    +0.000 HD
ENDBRANCH  18  25
ENDBRANCH  16  21
ENDBRANCH   1  16
TORSDOF 5
ENDMDL
MODEL 4
REMARK VINA RESULT:    -6.979      2.981      7.447
REMARK INTER + INTRA:         -10.120
REMARK INTER:                  -9.842
REMARK INTRA:                  -0.278
REMARK UNBOUND:                -1.101
REMARK  Name = 
REMARK  5 active torsions:
REMARK  status: ('A' for Active; 'I' for Inactive)
REMARK    1  A    between atoms: C_2  and  C_4
REMARK    2  A    between atoms: C_7  and  N_8
REMARK    3  A    between atoms: N_8  and  C_9
REMARK    4  A    between atoms: C_9  and  C_10
REMARK    5  A    between atoms: C_14  and  C_15
REMARK                            x       y       z     vdW  Elec       q    Type
REMARK                         _______ _______ _______ _____ _____    ______ ____
ROOT
ATOM      1  C   UNL     1      46.314   7.377  12.275  0.00  0.00    +0.000 C 
ATOM      2  C   UNL     1      46.288   8.819  11.780  0.00  0.00    +0.000 C 
ATOM      3  C   UNL     1      45.603   8.478  13.057  0.00  0.00    +0.000 C 
ENDROOT
BRANCH   1   4
ATOM      4  C   UNL     1      45.365   6.343  11.667  0.00  0.00    +0.000 A 
ATOM      5  C   UNL     1      43.976   6.437  11.850  0.00  0.00    +0.000 A 
ATOM      6  C   UNL     1      43.098   5.601  11.163  0.00  0.00    +0.000 A 
ATOM      7  C   UNL     1      43.596   4.650  10.271  0.00  0.00    +0.000 A 
ATOM      8  C   UNL     1      44.977   4.498  10.072  0.00  0.00    +0.000 A 
ATOM      9  C   UNL     1      45.835   5.328  10.816  0.00  0.00    +0.000 A 
BRANCH   8  10
ATOM     10  C   UNL     1      45.523   3.590   9.046  0.00  0.00    +0.000 A 
ATOM     11  C   UNL     1      46.214   4.082   7.930  0.00  0.00    +0.000 A 
ATOM     12  C   UNL     1      46.805   3.210   7.018  0.00  0.00    +0.000 A 
ATOM     13  C   UNL     1      46.693   1.850   7.245  0.00  0.00    +0.000 A 
ATOM     14  N   UNL     1      46.034   1.321   8.294  0.00  0.00    +0.000 NA
ATOM     15  C   UNL     1      45.465   2.198   9.159  0.00  0.00    +0.000 A 
ENDBRANCH   8  10
ENDBRANCH   1   4
BRANCH   1  16
ATOM     16  N   UNL     1      47.584   6.820  12.766  0.00  0.00    +0.000 N 
ATOM     17  H   UNL     1      48.321   6.633  12.093  0.00  0.00    +0.000 HD
BRANCH  16  21
ATOM     18  C   UNL     1      47.899   4.683  16.414  0.00  0.00    +0.000 A 
ATOM     19  C   UNL     1      47.096   4.193  15.388  0.00  0.00    +0.000 A 
ATOM     20  C   UNL     1      46.984   4.900  14.190  0.00  0.00    +0.000 A 
ATOM     21  C   UNL     1      47.698   6.083  13.963  0.00  0.00    +0.000 A 
ATOM     22  C   UNL     1      48.462   6.593  15.021  0.00  0.00    +0.000 A 
ATOM     23  C   UNL     1      48.559   5.903  16.240  0.00  0.00    +0.000 A 
BRANCH  18  25
ATOM     24  N   UNL     1      47.177   2.899  17.903  0.00  0.00    +0.000 N 
ATOM     25  C   UNL     1      48.022   3.963  17.703  0.00  0.00    +0.000 C 
ATOM     26  O   UNL     1      48.850   4.280  18.544  0.00  0.00    +0.000 OA
ATOM     27  H   UNL     1      47.310   2.373  18.756  0.00  0.00    +0.000 HD
ATOM     28  H   UNL     1      46.661   2.463  17.157  0.00  0.00    +0.000 HD
ENDBRANCH  18  25
ENDBRANCH  16  21
ENDBRANCH   1  16
TORSDOF 5
ENDMDL
MODEL 5
REMARK VINA RESULT:    -6.666      2.900      7.574
REMARK INTER + INTRA:          -9.716
REMARK INTER:                  -9.368
REMARK INTRA:                  -0.348
REMARK UNBOUND:                -1.101
REMARK  Name = 
REMARK  5 active torsions:
REMARK  status: ('A' for Active; 'I' for Inactive)
REMARK    1  A    between atoms: C_2  and  C_4
REMARK    2  A    between atoms: C_7  and  N_8
REMARK    3  A    between atoms: N_8  and  C_9
REMARK    4  A    between atoms: C_9  and  C_10
REMARK    5  A    between atoms: C_14  and  C_15
REMARK                            x       y       z     vdW  Elec       q    Type
REMARK                         _______ _______ _______ _____ _____    ______ ____
ROOT
ATOM      1  C   UNL     1      48.702   7.870  12.676  0.00  0.00    +0.000 C 
ATOM      2  C   UNL     1      49.789   7.335  11.750  0.00  0.00    +0.000 C 
ATOM      3  C   UNL     1      49.458   8.786  11.718  0.00  0.00    +0.000 C 
ENDROOT
BRANCH   1   4
ATOM      4  C   UNL     1      47.229   7.682  12.314  0.00  0.00    +0.000 A 
ATOM      5  C   UNL     1      46.299   8.718  12.491  0.00  0.00    +0.000 A 
ATOM      6  C   UNL     1      44.996   8.613  12.008  0.00  0.00    +0.000 A 
ATOM      7  C   UNL     1      44.596   7.461  11.331  0.00  0.00    +0.000 A 
ATOM      8  C   UNL     1      45.478   6.384  11.150  0.00  0.00    +0.000 A 
ATOM      9  C   UNL     1      46.772   6.507  11.689  0.00  0.00    +0.000 A 
BRANCH   8  10
ATOM     10  C   UNL     1      45.121   5.211  10.331  0.00  0.00    +0.000 A 
ATOM     11  C   UNL     1      45.721   4.980   9.085  0.00  0.00    +0.000 A 
ATOM     12  C   UNL     1      45.443   3.820   8.365  0.00  0.00    +0.000 A 
ATOM     13  C   UNL     1      44.565   2.904   8.914  0.00  0.00    +0.000 A 
ATOM     14  N   UNL     1      43.953   3.076  10.102  0.00  0.00    +0.000 NA
ATOM     15  C   UNL     1      44.240   4.220  10.773  0.00  0.00    +0.000 A 
ENDBRANCH   8  10
ENDBRANCH   1   4
BRANCH   1  16
ATOM     16  N   UNL     1      48.969   7.927  14.122  0.00  0.00    +0.000 N 
ATOM     17  H   UNL     1      49.735   8.510  14.448  0.00  0.00    +0.000 HD
BRANCH  16  21
ATOM     18  C   UNL     1      47.891   4.794  16.766  0.00  0.00    +0.000 A 
ATOM     19  C   UNL     1      48.696   5.837  17.216  0.00  0.00    +0.000 A 
ATOM     20  C   UNL     1      49.059   6.865  16.344  0.00  0.00    +0.000 A 
ATOM     21  C   UNL     1      48.599   6.907  15.022  0.00  0.00    +0.000 A 
ATOM     22  C   UNL     1      47.832   5.826  14.567  0.00  0.00    +0.000 A 
ATOM     23  C   UNL     1      47.484   4.774  15.429  0.00  0.00    +0.000 A 
BRANCH  18  25
ATOM     24  N   UNL     1      48.185   3.578  18.853  0.00  0.00    +0.000 N 
ATOM     25  C   UNL     1      47.505   3.682  17.665  0.00  0.00    +0.000 C 
ATOM     26  O   UNL     1      46.608   2.902  17.379  0.00  0.00    +0.000 OA
ATOM     27  H   UNL     1      47.873   2.857  19.490  0.00  0.00    +0.000 HD
ATOM     28  H   UNL     1      48.748   4.324  19.228  0.00  0.00    +0.000 HD
ENDBRANCH  18  25
ENDBRANCH  16  21
ENDBRANCH   1  16
TORSDOF 5
ENDMDL
MODEL 6
REMARK VINA RESULT:    -6.619      2.772      4.561
REMARK INTER + INTRA:          -9.655
REMARK INTER:                  -8.952
REMARK INTRA:                  -0.704
REMARK UNBOUND:                -1.101
REMARK  Name = 
REMARK  5 active torsions:
REMARK  status: ('A' for Active; 'I' for Inactive)
REMARK    1  A    between atoms: C_2  and  C_4
REMARK    2  A    between atoms: C_7  and  N_8
REMARK    3  A    between atoms: N_8  and  C_9
REMARK    4  A    between atoms: C_9  and  C_10
REMARK    5  A    between atoms: C_14  and  C_15
REMARK                            x       y       z     vdW  Elec       q    Type
REMARK                         _______ _______ _______ _____ _____    ______ ____
ROOT
ATOM      1  C   UNL     1      47.858   8.122  12.621  0.00  0.00    +0.000 C 
ATOM      2  C   UNL     1      48.546   9.132  11.709  0.00  0.00    +0.000 C 
ATOM      3  C   UNL     1      48.810   7.680  11.513  0.00  0.00    +0.000 C 
ENDROOT
BRANCH   1   4
ATOM      4  C   UNL     1      48.396   7.872  14.030  0.00  0.00    +0.000 A 
ATOM      5  C   UNL     1      48.857   8.931  14.829  0.00  0.00    +0.000 A 
ATOM      6  C   UNL     1      49.188   8.735  16.169  0.00  0.00    +0.000 A 
ATOM      7  C   UNL     1      49.061   7.468  16.739  0.00  0.00    +0.000 A 
ATOM      8  C   UNL     1      48.630   6.371  15.978  0.00  0.00    +0.000 A 
ATOM      9  C   UNL     1      48.347   6.596  14.618  0.00  0.00    +0.000 A 
BRANCH   8  10
ATOM     10  C   UNL     1      48.367   5.053  16.586  0.00  0.00    +0.000 A 
ATOM     11  C   UNL     1      49.311   4.430  17.414  0.00  0.00    +0.000 A 
ATOM     12  C   UNL     1      49.012   3.230  18.056  0.00  0.00    +0.000 A 
ATOM     13  C   UNL     1      47.762   2.674  17.856  0.00  0.00    +0.000 A 
ATOM     14  N   UNL     1      46.819   3.223  17.064  0.00  0.00    +0.000 NA
ATOM     15  C   UNL     1      47.146   4.388  16.449  0.00  0.00    +0.000 A 
ENDBRANCH   8  10
ENDBRANCH   1   4
BRANCH   1  16
ATOM     16  N   UNL     1      46.408   7.914  12.479  0.00  0.00    +0.000 N 
ATOM     17  H   UNL     1      45.781   8.523  12.995  0.00  0.00    +0.000 HD
BRANCH  16  21
ATOM     18  C   UNL     1      44.595   4.240  11.387  0.00  0.00    +0.000 A 
ATOM     19  C   UNL     1      45.160   5.054  10.409  0.00  0.00    +0.000 A 
ATOM     20  C   UNL     1      45.749   6.268  10.766  0.00  0.00    +0.000 A 
ATOM     21  C   UNL     1      45.833   6.683  12.102  0.00  0.00    +0.000 A 
ATOM     22  C   UNL     1      45.215   5.880  13.069  0.00  0.00    +0.000 A 
ATOM     23  C   UNL     1      44.596   4.670  12.717  0.00  0.00    +0.000 A 
BRANCH  18  25
ATOM     24  N   UNL     1      44.545   2.209  10.048  0.00  0.00    +0.000 N 
ATOM     25  C   UNL     1      43.948   2.955  11.034  0.00  0.00    +0.000 C 
ATOM     26  O   UNL     1      42.942   2.560  11.606  0.00  0.00    +0.000 OA
ATOM     27  H   UNL     1      44.135   1.304   9.858  0.00  0.00    +0.000 HD
ATOM     28  H   UNL     1      45.485   2.375   9.730  0.00  0.00    +0.000 HD
ENDBRANCH  18  25
ENDBRANCH  16  21
ENDBRANCH   1  16
TORSDOF 5
ENDMDL
MODEL 7
REMARK VINA RESULT:    -6.381      3.330      7.409
REMARK INTER + INTRA:          -9.347
REMARK INTER:                  -8.391
REMARK INTRA:                  -0.956
REMARK UNBOUND:                -1.101
REMARK  Name = 
REMARK  5 active torsions:
REMARK  status: ('A' for Active; 'I' for Inactive)
REMARK    1  A    between atoms: C_2  and  C_4
REMARK    2  A    between atoms: C_7  and  N_8
REMARK    3  A    between atoms: N_8  and  C_9
REMARK    4  A    between atoms: C_9  and  C_10
REMARK    5  A    between atoms: C_14  and  C_15
REMARK                            x       y       z     vdW  Elec       q    Type
REMARK                         _______ _______ _______ _____ _____    ______ ____
ROOT
ATOM      1  C   UNL     1      44.602   6.261  11.818  0.00  0.00    +0.000 C 
ATOM      2  C   UNL     1      44.643   7.385  10.789  0.00  0.00    +0.000 C 
ATOM      3  C   UNL     1      43.365   7.093  11.493  0.00  0.00    +0.000 C 
ENDROOT
BRANCH   1   4
ATOM      4  C   UNL     1      44.504   4.806  11.358  0.00  0.00    +0.000 A 
ATOM      5  C   UNL     1      43.575   3.924  11.933  0.00  0.00    +0.000 A 
ATOM      6  C   UNL     1      43.363   2.651  11.406  0.00  0.00    +0.000 A 
ATOM      7  C   UNL     1      44.080   2.235  10.284  0.00  0.00    +0.000 A 
ATOM      8  C   UNL     1      45.039   3.068   9.687  0.00  0.00    +0.000 A 
ATOM      9  C   UNL     1      45.259   4.328  10.273  0.00  0.00    +0.000 A 
BRANCH   8  10
ATOM     10  C   UNL     1      45.718   2.702   8.430  0.00  0.00    +0.000 A 
ATOM     11  C   UNL     1      45.947   3.648   7.422  0.00  0.00    +0.000 A 
ATOM     12  C   UNL     1      46.671   3.312   6.280  0.00  0.00    +0.000 A 
ATOM     13  C   UNL     1      47.159   2.022   6.171  0.00  0.00    +0.000 A 
ATOM     14  N   UNL     1      46.962   1.069   7.103  0.00  0.00    +0.000 NA
ATOM     15  C   UNL     1      46.247   1.429   8.199  0.00  0.00    +0.000 A 
ENDBRANCH   8  10
ENDBRANCH   1   4
BRANCH   1  16
ATOM     16  N   UNL     1      45.306   6.447  13.097  0.00  0.00    +0.000 N 
ATOM     17  H   UNL     1      44.752   6.516  13.946  0.00  0.00    +0.000 HD
BRANCH  16  21
ATOM     18  C   UNL     1      49.188   8.135  13.317  0.00  0.00    +0.000 A 
ATOM     19  C   UNL     1      48.079   8.891  13.687  0.00  0.00    +0.000 A 
ATOM     20  C   UNL     1      46.800   8.340  13.607  0.00  0.00    +0.000 A 
ATOM     21  C   UNL     1      46.592   7.015  13.201  0.00  0.00    +0.000 A 
ATOM     22  C   UNL     1      47.710   6.282  12.783  0.00  0.00    +0.000 A 
ATOM     23  C   UNL     1      48.999   6.837  12.834  0.00  0.00    +0.000 A 
BRANCH  18  25
ATOM     24  N   UNL     1      50.801   9.815  12.611  0.00  0.00    +0.000 N 
ATOM     25  C   UNL     1      50.556   8.701  13.375  0.00  0.00    +0.000 C 
ATOM     26  O   UNL     1      51.425   8.217  14.085  0.00  0.00    +0.000 OA
ATOM     27  H   UNL     1      51.717  10.234  12.706  0.00  0.00    +0.000 HD
ATOM     28  H   UNL     1      50.067  10.377  12.212  0.00  0.00    +0.000 HD
ENDBRANCH  18  25
ENDBRANCH  16  21
ENDBRANCH   1  16
TORSDOF 5
ENDMDL
