MODEL 1
REMARK VINA RESULT:    -7.834      0.000      0.000
REMARK INTER + INTRA:         -10.629
REMARK INTER:                 -10.124
REMARK INTRA:                  -0.505
REMARK UNBOUND:                -0.505
REMARK  Name = 
REMARK  5 active torsions:
REMARK  status: ('A' for Active; 'I' for Inactive)
REMARK    1  A    between atoms: C_2  and  C_3
REMARK    2  A    between atoms: C_6  and  C_7
REMARK    3  A    between atoms: C_7  and  N_8
REMARK    4  A    between atoms: N_8  and  C_9
REMARK    5  A    between atoms: C_12  and  C_13
REMARK                            x       y       z     vdW  Elec       q    Type
REMARK                         _______ _______ _______ _____ _____    ______ ____
ROOT
ATOM      1  N   UNL     1      43.749   3.627  10.618  0.00  0.00    +0.000 N 
ATOM      2  H   UNL     1      42.825   3.263  10.403  0.00  0.00    +0.000 HD
ENDROOT
BRANCH   1   3
ATOM      3  C   UNL     1      44.683   3.387   9.589  0.00  0.00    +0.000 A 
ATOM      4  C   UNL     1      45.274   4.409   8.844  0.00  0.00    +0.000 A 
ATOM      5  C   UNL     1      46.195   4.107   7.841  0.00  0.00    +0.000 A 
ATOM      6  C   UNL     1      46.516   2.778   7.613  0.00  0.00    +0.000 A 
ATOM      7  N   UNL     1      46.011   1.745   8.342  0.00  0.00    +0.000 NA
ATOM      8  C   UNL     1      45.128   2.087   9.314  0.00  0.00    +0.000 A 
BRANCH   6   9
ATOM      9  C   UNL     1      47.447   2.430   6.493  0.00  0.00    +0.000 C 
ATOM     10  N   UNL     1      47.346   3.200   5.368  0.00  0.00    +0.000 N 
ATOM     11  O   UNL     1      48.265   1.522   6.574  0.00  0.00    +0.000 OA
ATOM     12  H   UNL     1      46.686   3.968   5.334  0.00  0.00    +0.000 HD
ATOM     13  H   UNL     1      47.981   3.033   4.599  0.00  0.00    +0.000 HD
ENDBRANCH   6   9
ENDBRANCH   1   3
BRANCH   1  14
ATOM     14  C   UNL     1      43.771   4.884  11.415  0.00  0.00    +0.000 C 
ATOM     15  C   UNL     1      43.227   6.176  10.823  0.00  0.00    +0.000 C 
ATOM     16  C   UNL     1      42.411   5.437  11.832  0.00  0.00    +0.000 C 
BRANCH  14  20
ATOM     17  C   UNL     1      46.916   5.085  14.303  0.00  0.00    +0.000 A 
ATOM     18  C   UNL     1      46.819   6.105  13.378  0.00  0.00    +0.000 A 
ATOM     19  C   UNL     1      45.793   6.046  12.439  0.00  0.00    +0.000 A 
ATOM     20  C   UNL     1      44.899   4.977  12.447  0.00  0.00    +0.000 A 
ATOM     21  N   UNL     1      45.037   4.007  13.387  0.00  0.00    +0.000 NA
ATOM     22  N   UNL     1      46.049   4.055  14.320  0.00  0.00    +0.000 NA
BRANCH  17  24
ATOM     23  N   UNL     1      48.775   4.998  16.110  0.00  0.00    +0.000 NA
ATOM     24  C   UNL     1      47.954   5.055  15.285  0.00  0.00    +0.000 C 
ENDBRANCH  17  24
ENDBRANCH  14  20
ENDBRANCH   1  14
TORSDOF 5
ENDMDL
MODEL 2
REMARK VINA RESULT:    -7.666      1.506      1.697
REMARK INTER + INTRA:         -10.412
REMARK INTER:                 -10.336
REMARK INTRA:                  -0.076
REMARK UNBOUND:                -0.505
REMARK  Name = 
REMARK  5 active torsions:
REMARK  status: ('A' for Active; 'I' for Inactive)
REMARK    1  A    between atoms: C_2  and  C_3
REMARK    2  A    between atoms: C_6  and  C_7
REMARK    3  A    between atoms: C_7  and  N_8
REMARK    4  A    between atoms: N_8  and  C_9
REMARK    5  A    between atoms: C_12  and  C_13
REMARK                            x       y       z     vdW  Elec       q    Type
REMARK                         _______ _______ _______ _____ _____    ______ ____
ROOT
ATOM      1  N   UNL     1      43.778   4.722   9.994  0.00  0.00    +0.000 N 
ATOM      2  H   UNL     1      43.442   5.545   9.502  0.00  0.00    +0.000 HD
ENDROOT
BRANCH   1   3
ATOM      3  C   UNL     1      44.684   3.960   9.228  0.00  0.00    +0.000 A 
ATOM      4  C   UNL     1      45.628   4.532   8.374  0.00  0.00    +0.000 A 
ATOM      5  C   UNL     1      46.500   3.724   7.645  0.00  0.00    +0.000 A 
ATOM      6  C   UNL     1      46.415   2.349   7.800  0.00  0.00    +0.000 A 
ATOM      7  N   UNL     1      45.551   1.738   8.655  0.00  0.00    +0.000 NA
ATOM      8  C   UNL     1      44.729   2.565   9.352  0.00  0.00    +0.000 A 
BRANCH   6   9
ATOM      9  C   UNL     1      47.294   1.463   6.971  0.00  0.00    +0.000 C 
ATOM     10  N   UNL     1      48.380   2.062   6.397  0.00  0.00    +0.000 N 
ATOM     11  O   UNL     1      47.070   0.267   6.822  0.00  0.00    +0.000 OA
ATOM     12  H   UNL     1      48.564   3.045   6.560  0.00  0.00    +0.000 HD
ATOM     13  H   UNL     1      49.027   1.498   5.862  0.00  0.00    +0.000 HD
ENDBRANCH   6   9
ENDBRANCH   1   3
BRANCH   1  14
ATOM     14  C   UNL     1      43.939   4.879  11.466  0.00  0.00    +0.000 C 
ATOM     15  C   UNL     1      42.718   5.080  12.352  0.00  0.00    +0.000 C 
ATOM     16  C   UNL     1      43.389   3.746  12.326  0.00  0.00    +0.000 C 
BRANCH  14  20
ATOM     17  C   UNL     1      47.667   6.557  12.717  0.00  0.00    +0.000 A 
ATOM     18  C   UNL     1      46.880   7.295  11.855  0.00  0.00    +0.000 A 
ATOM     19  C   UNL     1      45.663   6.754  11.450  0.00  0.00    +0.000 A 
ATOM     20  C   UNL     1      45.267   5.500  11.909  0.00  0.00    +0.000 A 
ATOM     21  N   UNL     1      46.077   4.823  12.764  0.00  0.00    +0.000 NA
ATOM     22  N   UNL     1      47.284   5.348  13.171  0.00  0.00    +0.000 NA
BRANCH  17  24
ATOM     23  N   UNL     1      49.960   7.451  13.534  0.00  0.00    +0.000 NA
ATOM     24  C   UNL     1      48.941   7.026  13.162  0.00  0.00    +0.000 C 
ENDBRANCH  17  24
ENDBRANCH  14  20
ENDBRANCH   1  14
TORSDOF 5
ENDMDL
MODEL 3
REMARK VINA RESULT:    -6.906      3.231      6.998
REMARK INTER + INTRA:          -9.430
REMARK INTER:                  -9.075
REMARK INTRA:                  -0.355
REMARK UNBOUND:                -0.505
REMARK  Name = 
REMARK  5 active torsions:
REMARK  status: ('A' for Active; 'I' for Inactive)
REMARK    1  A    between atoms: C_2  and  C_3
REMARK    2  A    between atoms: C_6  and  C_7
REMARK    3  A    between atoms: C_7  and  N_8
REMARK    4  A    between atoms: N_8  and  C_9
REMARK    5  A    between atoms: C_12  and  C_13
REMARK                            x       y       z     vdW  Elec       q    Type
REMARK                         _______ _______ _______ _____ _____    ______ ____
ROOT
ATOM      1  N   UNL     1      44.702   6.433  10.756  0.00  0.00    +0.000 N 
ATOM      2  H   UNL     1      43.895   7.030  10.597  0.00  0.00    +0.000 HD
ENDROOT
BRANCH   1   3
ATOM      3  C   UNL     1      45.623   6.992  11.666  0.00  0.00    +0.000 A 
ATOM      4  C   UNL     1      46.931   6.525  11.808  0.00  0.00    +0.000 A 
ATOM      5  C   UNL     1      47.796   7.123  12.724  0.00  0.00    +0.000 A 
ATOM      6  C   UNL     1      47.331   8.192  13.474  0.00  0.00    +0.000 A 
ATOM      7  N   UNL     1      46.085   8.722  13.342  0.00  0.00    +0.000 NA
ATOM      8  C   UNL     1      45.282   8.115  12.431  0.00  0.00    +0.000 A 
BRANCH   6   9
ATOM      9  C   UNL     1      48.223   8.800  14.514  0.00  0.00    +0.000 C 
ATOM     10  N   UNL     1      47.632   9.104  15.708  0.00  0.00    +0.000 N 
ATOM     11  O   UNL     1      49.416   9.002  14.322  0.00  0.00    +0.000 OA
ATOM     12  H   UNL     1      46.652   8.897  15.858  0.00  0.00    +0.000 HD
ATOM     13  H   UNL     1      48.200   9.477  16.457  0.00  0.00    +0.000 HD
ENDBRANCH   6   9
ENDBRANCH   1   3
BRANCH   1  14
ATOM     14  C   UNL     1      44.431   4.969  10.718  0.00  0.00    +0.000 C 
ATOM     15  C   UNL     1      44.084   4.221  11.996  0.00  0.00    +0.000 C 
ATOM     16  C   UNL     1      42.998   4.544  11.023  0.00  0.00    +0.000 C 
BRANCH  14  20
ATOM     17  C   UNL     1      46.483   2.888   7.598  0.00  0.00    +0.000 A 
ATOM     18  C   UNL     1      45.808   2.140   8.541  0.00  0.00    +0.000 A 
ATOM     19  C   UNL     1      45.135   2.814   9.556  0.00  0.00    +0.000 A 
ATOM     20  C   UNL     1      45.154   4.207   9.603  0.00  0.00    +0.000 A 
ATOM     21  N   UNL     1      45.826   4.891   8.641  0.00  0.00    +0.000 NA
ATOM     22  N   UNL     1      46.496   4.234   7.634  0.00  0.00    +0.000 NA
BRANCH  17  24
ATOM     23  N   UNL     1      47.800   1.806   5.643  0.00  0.00    +0.000 NA
ATOM     24  C   UNL     1      47.220   2.276   6.538  0.00  0.00    +0.000 C 
ENDBRANCH  17  24
ENDBRANCH  14  20
ENDBRANCH   1  14
TORSDOF 5
ENDMDL
MODEL 4
REMARK VINA RESULT:    -5.869      3.025      4.959
REMARK INTER + INTRA:          -8.090
REMARK INTER:                  -7.791
REMARK INTRA:                  -0.299
REMARK UNBOUND:                -0.505
REMARK  Name = 
REMARK  5 active torsions:
REMARK  status: ('A' for Active; 'I' for Inactive)
REMARK    1  A    between atoms: C_2  and  C_3
REMARK    2  A    between atoms: C_6  and  C_7
REMARK    3  A    between atoms: C_7  and  N_8
REMARK    4  A    between atoms: N_8  and  C_9
REMARK    5  A    between atoms: C_12  and  C_13
REMARK                            x       y       z     vdW  Elec       q    Type
REMARK                         _______ _______ _______ _____ _____    ______ ____
ROOT
ATOM      1  N   UNL     1      46.369   7.427  13.222  0.00  0.00    +0.000 N 
ATOM      2  H   UNL     1      45.878   8.288  13.001  0.00  0.00    +0.000 HD
ENDROOT
BRANCH   1   3
ATOM      3  C   UNL     1      45.775   6.293  12.631  0.00  0.00    +0.000 A 
ATOM      4  C   UNL     1      45.490   6.206  11.267  0.00  0.00    +0.000 A 
ATOM      5  C   UNL     1      44.905   5.055  10.743  0.00  0.00    +0.000 A 
ATOM      6  C   UNL     1      44.628   4.001  11.600  0.00  0.00    +0.000 A 
ATOM      7  N   UNL     1      44.930   4.009  12.927  0.00  0.00    +0.000 NA
ATOM      8  C   UNL     1      45.509   5.146  13.392  0.00  0.00    +0.000 A 
BRANCH   6   9
ATOM      9  C   UNL     1      43.933   2.786  11.067  0.00  0.00    +0.000 C 
ATOM     10  N   UNL     1      44.479   2.225   9.947  0.00  0.00    +0.000 N 
ATOM     11  O   UNL     1      42.942   2.305  11.604  0.00  0.00    +0.000 OA
ATOM     12  H   UNL     1      45.319   2.618   9.538  0.00  0.00    +0.000 HD
ATOM     13  H   UNL     1      44.072   1.378   9.572  0.00  0.00    +0.000 HD
ENDBRANCH   6   9
ENDBRANCH   1   3
BRANCH   1  14
ATOM     14  C   UNL     1      47.847   7.552  13.361  0.00  0.00    +0.000 C 
ATOM     15  C   UNL     1      48.748   7.365  12.151  0.00  0.00    +0.000 C 
ATOM     16  C   UNL     1      48.488   8.745  12.659  0.00  0.00    +0.000 C 
BRANCH  14  20
ATOM     17  C   UNL     1      49.410   6.480  17.193  0.00  0.00    +0.000 A 
ATOM     18  C   UNL     1      49.158   7.815  16.946  0.00  0.00    +0.000 A 
ATOM     19  C   UNL     1      48.644   8.167  15.701  0.00  0.00    +0.000 A 
ATOM     20  C   UNL     1      48.400   7.186  14.742  0.00  0.00    +0.000 A 
ATOM     21  N   UNL     1      48.657   5.888  15.045  0.00  0.00    +0.000 NA
ATOM     22  N   UNL     1      49.166   5.528  16.273  0.00  0.00    +0.000 NA
BRANCH  17  24
ATOM     23  N   UNL     1      50.391   5.629  19.438  0.00  0.00    +0.000 NA
ATOM     24  C   UNL     1      49.961   6.035  18.434  0.00  0.00    +0.000 C 
ENDBRANCH  17  24
ENDBRANCH  14  20
ENDBRANCH   1  14
TORSDOF 5
ENDMDL
MODEL 5
REMARK VINA RESULT:    -5.806      3.634      6.866
REMARK INTER + INTRA:          -8.009
REMARK INTER:                  -8.257
REMARK INTRA:                   0.248
REMARK UNBOUND:                -0.505
REMARK  Name = 
REMARK  5 active torsions:
REMARK  status: ('A' for Active; 'I' for Inactive)
REMARK    1  A    between atoms: C_2  and  C_3
REMARK    2  A    between atoms: C_6  and  C_7
REMARK    3  A    between atoms: C_7  and  N_8
REMARK    4  A    between atoms: N_8  and  C_9
REMARK    5  A    between atoms: C_12  and  C_13
REMARK                            x       y       z     vdW  Elec       q    Type
REMARK                         _______ _______ _______ _____ _____    ______ ____
ROOT
ATOM      1  N   UNL     1      43.469   5.325  11.427  0.00  0.00    +0.000 N 
ATOM      2  H   UNL     1      42.561   5.260  11.879  0.00  0.00    +0.000 HD
ENDROOT
BRANCH   1   3
ATOM      3  C   UNL     1      44.096   6.570  11.639  0.00  0.00    +0.000 A 
ATOM      4  C   UNL     1      45.251   6.718  12.409  0.00  0.00    +0.000 A 
ATOM      5  C   UNL     1      45.827   7.977  12.578  0.00  0.00    +0.000 A 
ATOM      6  C   UNL     1      45.236   9.066  11.956  0.00  0.00    +0.000 A 
ATOM      7  N   UNL     1      44.142   8.973  11.152  0.00  0.00    +0.000 NA
ATOM      8  C   UNL     1      43.622   7.727  11.007  0.00  0.00    +0.000 A 
BRANCH   6   9
ATOM      9  C   UNL     1      45.799  10.435  12.185  0.00  0.00    +0.000 C 
ATOM     10  N   UNL     1      47.091  10.487  12.628  0.00  0.00    +0.000 N 
ATOM     11  O   UNL     1      45.154  11.456  11.977  0.00  0.00    +0.000 OA
ATOM     12  H   UNL     1      47.618   9.631  12.762  0.00  0.00    +0.000 HD
ATOM     13  H   UNL     1      47.531  11.388  12.759  0.00  0.00    +0.000 HD
ENDBRANCH   6   9
ENDBRANCH   1   3
BRANCH   1  14
ATOM     14  C   UNL     1      44.247   4.056  11.371  0.00  0.00    +0.000 C 
ATOM     15  C   UNL     1      44.926   3.519  12.622  0.00  0.00    +0.000 C 
ATOM     16  C   UNL     1      43.664   2.878  12.145  0.00  0.00    +0.000 C 
BRANCH  14  20
ATOM     17  C   UNL     1      46.036   3.237   7.576  0.00  0.00    +0.000 A 
ATOM     18  C   UNL     1      45.610   2.167   8.336  0.00  0.00    +0.000 A 
ATOM     19  C   UNL     1      45.023   2.430   9.571  0.00  0.00    +0.000 A 
ATOM     20  C   UNL     1      44.878   3.744  10.011  0.00  0.00    +0.000 A 
ATOM     21  N   UNL     1      45.307   4.758   9.216  0.00  0.00    +0.000 NA
ATOM     22  N   UNL     1      45.890   4.509   7.993  0.00  0.00    +0.000 NA
BRANCH  17  24
ATOM     23  N   UNL     1      47.151   2.885   5.261  0.00  0.00    +0.000 NA
ATOM     24  C   UNL     1      46.672   3.055   6.309  0.00  0.00    +0.000 C 
ENDBRANCH  17  24
ENDBRANCH  14  20
ENDBRANCH   1  14
TORSDOF 5
ENDMDL
MODEL 6
REMARK VINA RESULT:    -5.029      4.384      6.239
REMARK INTER + INTRA:          -7.004
REMARK INTER:                  -7.044
REMARK INTRA:                   0.041
REMARK UNBOUND:                -0.505
REMARK  Name = 
REMARK  5 active torsions:
REMARK  status: ('A' for Active; 'I' for Inactive)
REMARK    1  A    between atoms: C_2  and  C_3
REMARK    2  A    between atoms: C_6  and  C_7
REMARK    3  A    between atoms: C_7  and  N_8
REMARK    4  A    between atoms: N_8  and  C_9
REMARK    5  A    between atoms: C_12  and  C_13
REMARK                            x       y       z     vdW  Elec       q    Type
REMARK                         _______ _______ _______ _____ _____    ______ ____
ROOT
ATOM      1  N   UNL     1      48.516   6.985  12.851  0.00  0.00    +0.000 N 
ATOM      2  H   UNL     1      49.134   6.238  12.545  0.00  0.00    +0.000 HD
ENDROOT
BRANCH   1   3
ATOM      3  C   UNL     1      47.152   6.642  12.749  0.00  0.00    +0.000 A 
ATOM      4  C   UNL     1      46.254   7.331  11.933  0.00  0.00    +0.000 A 
ATOM      5  C   UNL     1      44.917   6.940  11.872  0.00  0.00    +0.000 A 
ATOM      6  C   UNL     1      44.509   5.850  12.625  0.00  0.00    +0.000 A 
ATOM      7  N   UNL     1      45.351   5.110  13.397  0.00  0.00    +0.000 NA
ATOM      8  C   UNL     1      46.645   5.520  13.418  0.00  0.00    +0.000 A 
BRANCH   6   9
ATOM      9  C   UNL     1      43.062   5.462  12.628  0.00  0.00    +0.000 C 
ATOM     10  N   UNL     1      42.264   6.113  11.731  0.00  0.00    +0.000 N 
ATOM     11  O   UNL     1      42.613   4.601  13.376  0.00  0.00    +0.000 OA
ATOM     12  H   UNL     1      42.662   6.797  11.098  0.00  0.00    +0.000 HD
ATOM     13  H   UNL     1      41.288   5.857  11.664  0.00  0.00    +0.000 HD
ENDBRANCH   6   9
ENDBRANCH   1   3
BRANCH   1  14
ATOM     14  C   UNL     1      49.031   7.820  13.972  0.00  0.00    +0.000 C 
ATOM     15  C   UNL     1      49.417   9.271  13.731  0.00  0.00    +0.000 C 
ATOM     16  C   UNL     1      48.130   8.965  14.424  0.00  0.00    +0.000 C 
BRANCH  14  20
ATOM     17  C   UNL     1      51.045   5.613  17.030  0.00  0.00    +0.000 A 
ATOM     18  C   UNL     1      51.720   6.661  16.435  0.00  0.00    +0.000 A 
ATOM     19  C   UNL     1      51.065   7.384  15.442  0.00  0.00    +0.000 A 
ATOM     20  C   UNL     1      49.766   7.045  15.071  0.00  0.00    +0.000 A 
ATOM     21  N   UNL     1      49.148   6.012  15.698  0.00  0.00    +0.000 NA
ATOM     22  N   UNL     1      49.786   5.288  16.681  0.00  0.00    +0.000 NA
BRANCH  17  24
ATOM     23  N   UNL     1      52.143   4.180  18.892  0.00  0.00    +0.000 NA
ATOM     24  C   UNL     1      51.652   4.803  18.039  0.00  0.00    +0.000 C 
ENDBRANCH  17  24
ENDBRANCH  14  20
ENDBRANCH   1  14
TORSDOF 5
ENDMDL
