MODEL 1
REMARK VINA RESULT:    -8.663      0.000      0.000
REMARK INTER + INTRA:         -11.849
REMARK INTER:                 -11.196
REMARK INTRA:                  -0.653
REMARK UNBOUND:                -0.653
REMARK  Name = 
REMARK  5 active torsions:
REMARK  status: ('A' for Active; 'I' for Inactive)
REMARK    1  A    between atoms: C_2  and  C_4
REMARK    2  A    between atoms: C_7  and  C_8
REMARK    3  A    between atoms: C_8  and  O_9
REMARK    4  A    between atoms: O_9  and  C_10
REMARK    5  A    between atoms: C_15  and  C_16
REMARK                            x       y       z     vdW  Elec       q    Type
REMARK                         _______ _______ _______ _____ _____    ______ ____
ROOT
ATOM      1  O   UNL     1      43.824   4.389  11.428  0.00  0.00    +0.000 OA
ENDROOT
BRANCH   1   2
ATOM      2  C   UNL     1      44.981   4.650  12.105  0.00  0.00    +0.000 A 
ATOM      3  C   UNL     1      45.625   3.796  12.990  0.00  0.00    +0.000 A 
ATOM      4  C   UNL     1      46.796   4.222  13.602  0.00  0.00    +0.000 A 
ATOM      5  F   UNL     1      47.425   3.400  14.453  0.00  0.00    +0.000 F 
ATOM      6  C   UNL     1      47.334   5.484  13.355  0.00  0.00    +0.000 A 
ATOM      7  C   UNL     1      46.708   6.368  12.462  0.00  0.00    +0.000 A 
ATOM      8  C   UNL     1      45.526   5.916  11.846  0.00  0.00    +0.000 A 
BRANCH   7   9
ATOM      9  C   UNL     1      47.263   7.713  12.174  0.00  0.00    +0.000 A 
ATOM     10  C   UNL     1      46.473   8.868  12.255  0.00  0.00    +0.000 A 
ATOM     11  C   UNL     1      47.039  10.106  11.982  0.00  0.00    +0.000 A 
ATOM     12  N   UNL     1      48.331  10.284  11.644  0.00  0.00    +0.000 NA
ATOM     13  C   UNL     1      49.087   9.171  11.569  0.00  0.00    +0.000 A 
ATOM     14  C   UNL     1      48.607   7.892  11.814  0.00  0.00    +0.000 A 
ENDBRANCH   7   9
ENDBRANCH   1   2
BRANCH   1  15
ATOM     15  C   UNL     1      43.749   4.790  10.059  0.00  0.00    +0.000 C 
BRANCH  15  19
ATOM     16  C   UNL     1      46.445   2.481   7.674  0.00  0.00    +0.000 A 
ATOM     17  C   UNL     1      45.618   1.818   8.579  0.00  0.00    +0.000 A 
ATOM     18  C   UNL     1      44.728   2.558   9.357  0.00  0.00    +0.000 A 
ATOM     19  C   UNL     1      44.696   3.948   9.227  0.00  0.00    +0.000 A 
ATOM     20  N   UNL     1      45.482   4.605   8.336  0.00  0.00    +0.000 NA
ATOM     21  C   UNL     1      46.344   3.862   7.594  0.00  0.00    +0.000 A 
BRANCH  16  23
ATOM     22  N   UNL     1      48.521   2.508   6.407  0.00  0.00    +0.000 N 
ATOM     23  C   UNL     1      47.437   1.788   6.827  0.00  0.00    +0.000 C 
ATOM     24  O   UNL     1      47.311   0.607   6.533  0.00  0.00    +0.000 OA
ATOM     25  H   UNL     1      49.235   1.991   5.908  0.00  0.00    +0.000 HD
ATOM     26  H   UNL     1      48.785   3.393   6.814  0.00  0.00    +0.000 HD
ENDBRANCH  16  23
ENDBRANCH  15  19
ENDBRANCH   1  15
TORSDOF 5
ENDMDL
MODEL 2
REMARK VINA RESULT:    -8.374      2.602      3.828
REMARK INTER + INTRA:         -11.475
REMARK INTER:                 -10.947
REMARK INTRA:                  -0.528
REMARK UNBOUND:                -0.653
REMARK  Name = 
REMARK  5 active torsions:
REMARK  status: ('A' for Active; 'I' for Inactive)
REMARK    1  A    between atoms: C_2  and  C_4
REMARK    2  A    between atoms: C_7  and  C_8
REMARK    3  A    between atoms: C_8  and  O_9
REMARK    4  A    between atoms: O_9  and  C_10
REMARK    5  A    between atoms: C_15  and  C_16
REMARK                            x       y       z     vdW  Elec       q    Type
REMARK                         _______ _______ _______ _____ _____    ______ ____
ROOT
ATOM      1  O   UNL     1      44.289   4.562  11.699  0.00  0.00    +0.000 OA
ENDROOT
BRANCH   1   2
ATOM      2  C   UNL     1      45.420   5.189  12.137  0.00  0.00    +0.000 A 
ATOM      3  C   UNL     1      46.088   6.223  11.494  0.00  0.00    +0.000 A 
ATOM      4  C   UNL     1      47.235   6.746  12.075  0.00  0.00    +0.000 A 
ATOM      5  F   UNL     1      47.879   7.748  11.462  0.00  0.00    +0.000 F 
ATOM      6  C   UNL     1      47.734   6.254  13.281  0.00  0.00    +0.000 A 
ATOM      7  C   UNL     1      47.080   5.213  13.956  0.00  0.00    +0.000 A 
ATOM      8  C   UNL     1      45.915   4.700  13.355  0.00  0.00    +0.000 A 
BRANCH   7   9
ATOM      9  C   UNL     1      47.583   4.675  15.243  0.00  0.00    +0.000 A 
ATOM     10  C   UNL     1      47.641   3.298  15.495  0.00  0.00    +0.000 A 
ATOM     11  C   UNL     1      48.126   2.843  16.713  0.00  0.00    +0.000 A 
ATOM     12  N   UNL     1      48.568   3.652  17.696  0.00  0.00    +0.000 NA
ATOM     13  C   UNL     1      48.513   4.976  17.449  0.00  0.00    +0.000 A 
ATOM     14  C   UNL     1      48.034   5.522  16.267  0.00  0.00    +0.000 A 
ENDBRANCH   7   9
ENDBRANCH   1   2
BRANCH   1  15
ATOM     15  C   UNL     1      43.901   4.761  10.338  0.00  0.00    +0.000 C 
BRANCH  15  19
ATOM     16  C   UNL     1      46.393   2.459   7.735  0.00  0.00    +0.000 A 
ATOM     17  C   UNL     1      45.629   1.792   8.691  0.00  0.00    +0.000 A 
ATOM     18  C   UNL     1      44.805   2.530   9.541  0.00  0.00    +0.000 A 
ATOM     19  C   UNL     1      44.776   3.921   9.430  0.00  0.00    +0.000 A 
ATOM     20  N   UNL     1      45.501   4.583   8.490  0.00  0.00    +0.000 NA
ATOM     21  C   UNL     1      46.300   3.842   7.678  0.00  0.00    +0.000 A 
BRANCH  16  23
ATOM     22  N   UNL     1      48.411   2.460   6.378  0.00  0.00    +0.000 N 
ATOM     23  C   UNL     1      47.314   1.769   6.809  0.00  0.00    +0.000 C 
ATOM     24  O   UNL     1      47.120   0.612   6.461  0.00  0.00    +0.000 OA
ATOM     25  H   UNL     1      49.078   1.939   5.821  0.00  0.00    +0.000 HD
ATOM     26  H   UNL     1      48.734   3.310   6.817  0.00  0.00    +0.000 HD
ENDBRANCH  16  23
ENDBRANCH  15  19
ENDBRANCH   1  15
TORSDOF 5
ENDMDL
MODEL 3
REMARK VINA RESULT:    -7.970      1.748      2.286
REMARK INTER + INTRA:         -10.954
REMARK INTER:                 -10.210
REMARK INTRA:                  -0.743
REMARK UNBOUND:                -0.653
REMARK  Name = 
REMARK  5 active torsions:
REMARK  status: ('A' for Active; 'I' for Inactive)
REMARK    1  A    between atoms: C_2  and  C_4
REMARK    2  A    between atoms: C_7  and  C_8
REMARK    3  A    between atoms: C_8  and  O_9
REMARK    4  A    between atoms: O_9  and  C_10
REMARK    5  A    between atoms: C_15  and  C_16
REMARK                            x       y       z     vdW  Elec       q    Type
REMARK                         _______ _______ _______ _____ _____    ______ ____
ROOT
ATOM      1  O   UNL     1      44.584   4.050  11.793  0.00  0.00    +0.000 OA
ENDROOT
BRANCH   1   2
ATOM      2  C   UNL     1      45.343   5.082  12.264  0.00  0.00    +0.000 A 
ATOM      3  C   UNL     1      46.437   4.977  13.113  0.00  0.00    +0.000 A 
ATOM      4  C   UNL     1      47.098   6.134  13.504  0.00  0.00    +0.000 A 
ATOM      5  F   UNL     1      48.158   6.038  14.318  0.00  0.00    +0.000 F 
ATOM      6  C   UNL     1      46.687   7.394  13.070  0.00  0.00    +0.000 A 
ATOM      7  C   UNL     1      45.588   7.532  12.209  0.00  0.00    +0.000 A 
ATOM      8  C   UNL     1      44.935   6.348  11.818  0.00  0.00    +0.000 A 
BRANCH   7   9
ATOM      9  C   UNL     1      45.134   8.859  11.726  0.00  0.00    +0.000 A 
ATOM     10  C   UNL     1      43.983   9.002  10.938  0.00  0.00    +0.000 A 
ATOM     11  C   UNL     1      43.594  10.265  10.515  0.00  0.00    +0.000 A 
ATOM     12  N   UNL     1      44.256  11.398  10.823  0.00  0.00    +0.000 NA
ATOM     13  C   UNL     1      45.361  11.256  11.582  0.00  0.00    +0.000 A 
ATOM     14  C   UNL     1      45.831  10.034  12.042  0.00  0.00    +0.000 A 
ENDBRANCH   7   9
ENDBRANCH   1   2
BRANCH   1  15
ATOM     15  C   UNL     1      43.975   4.203  10.509  0.00  0.00    +0.000 C 
BRANCH  15  19
ATOM     16  C   UNL     1      46.631   2.724   7.502  0.00  0.00    +0.000 A 
ATOM     17  C   UNL     1      46.414   4.098   7.585  0.00  0.00    +0.000 A 
ATOM     18  C   UNL     1      45.557   4.595   8.566  0.00  0.00    +0.000 A 
ATOM     19  C   UNL     1      44.919   3.706   9.434  0.00  0.00    +0.000 A 
ATOM     20  N   UNL     1      45.136   2.366   9.376  0.00  0.00    +0.000 NA
ATOM     21  C   UNL     1      45.971   1.907   8.408  0.00  0.00    +0.000 A 
BRANCH  16  23
ATOM     22  N   UNL     1      47.818   2.849   5.383  0.00  0.00    +0.000 N 
ATOM     23  C   UNL     1      47.499   2.101   6.482  0.00  0.00    +0.000 C 
ATOM     24  O   UNL     1      47.941   0.969   6.625  0.00  0.00    +0.000 OA
ATOM     25  H   UNL     1      48.489   2.441   4.743  0.00  0.00    +0.000 HD
ATOM     26  H   UNL     1      47.679   3.848   5.338  0.00  0.00    +0.000 HD
ENDBRANCH  16  23
ENDBRANCH  15  19
ENDBRANCH   1  15
TORSDOF 5
ENDMDL
MODEL 4
REMARK VINA RESULT:    -7.806      2.269      2.917
REMARK INTER + INTRA:         -10.741
REMARK INTER:                 -10.094
REMARK INTRA:                  -0.647
REMARK UNBOUND:                -0.653
REMARK  Name = 
REMARK  5 active torsions:
REMARK  status: ('A' for Active; 'I' for Inactive)
REMARK    1  A    between atoms: C_2  and  C_4
REMARK    2  A    between atoms: C_7  and  C_8
REMARK    3  A    between atoms: C_8  and  O_9
REMARK    4  A    between atoms: O_9  and  C_10
REMARK    5  A    between atoms: C_15  and  C_16
REMARK                            x       y       z     vdW  Elec       q    Type
REMARK                         _______ _______ _______ _____ _____    ______ ____
ROOT
ATOM      1  O   UNL     1      44.532   4.117  11.761  0.00  0.00    +0.000 OA
ENDROOT
BRANCH   1   2
ATOM      2  C   UNL     1      44.905   5.421  11.912  0.00  0.00    +0.000 A 
ATOM      3  C   UNL     1      44.211   6.533  11.453  0.00  0.00    +0.000 A 
ATOM      4  C   UNL     1      44.737   7.797  11.686  0.00  0.00    +0.000 A 
ATOM      5  F   UNL     1      44.068   8.873  11.252  0.00  0.00    +0.000 F 
ATOM      6  C   UNL     1      45.944   7.974  12.361  0.00  0.00    +0.000 A 
ATOM      7  C   UNL     1      46.667   6.870  12.839  0.00  0.00    +0.000 A 
ATOM      8  C   UNL     1      46.115   5.598  12.600  0.00  0.00    +0.000 A 
BRANCH   7   9
ATOM      9  C   UNL     1      47.950   7.030  13.566  0.00  0.00    +0.000 A 
ATOM     10  C   UNL     1      48.142   6.495  14.848  0.00  0.00    +0.000 A 
ATOM     11  C   UNL     1      49.363   6.665  15.486  0.00  0.00    +0.000 A 
ATOM     12  N   UNL     1      50.410   7.317  14.943  0.00  0.00    +0.000 NA
ATOM     13  C   UNL     1      50.222   7.827  13.711  0.00  0.00    +0.000 A 
ATOM     14  C   UNL     1      49.035   7.717  13.001  0.00  0.00    +0.000 A 
ENDBRANCH   7   9
ENDBRANCH   1   2
BRANCH   1  15
ATOM     15  C   UNL     1      43.817   3.761  10.576  0.00  0.00    +0.000 C 
BRANCH  15  19
ATOM     16  C   UNL     1      46.581   2.665   7.503  0.00  0.00    +0.000 A 
ATOM     17  C   UNL     1      46.214   4.004   7.624  0.00  0.00    +0.000 A 
ATOM     18  C   UNL     1      45.320   4.377   8.628  0.00  0.00    +0.000 A 
ATOM     19  C   UNL     1      44.796   3.400   9.477  0.00  0.00    +0.000 A 
ATOM     20  N   UNL     1      45.160   2.095   9.381  0.00  0.00    +0.000 NA
ATOM     21  C   UNL     1      46.028   1.757   8.393  0.00  0.00    +0.000 A 
BRANCH  16  23
ATOM     22  N   UNL     1      47.780   3.009   5.415  0.00  0.00    +0.000 N 
ATOM     23  C   UNL     1      47.499   2.170   6.457  0.00  0.00    +0.000 C 
ATOM     24  O   UNL     1      48.013   1.062   6.532  0.00  0.00    +0.000 OA
ATOM     25  H   UNL     1      48.484   2.688   4.759  0.00  0.00    +0.000 HD
ATOM     26  H   UNL     1      47.577   3.997   5.433  0.00  0.00    +0.000 HD
ENDBRANCH  16  23
ENDBRANCH  15  19
ENDBRANCH   1  15
TORSDOF 5
ENDMDL
MODEL 5
REMARK VINA RESULT:    -7.740      4.346      7.980
REMARK INTER + INTRA:         -10.655
REMARK INTER:                 -10.180
REMARK INTRA:                  -0.476
REMARK UNBOUND:                -0.653
REMARK  Name = 
REMARK  5 active torsions:
REMARK  status: ('A' for Active; 'I' for Inactive)
REMARK    1  A    between atoms: C_2  and  C_4
REMARK    2  A    between atoms: C_7  and  C_8
REMARK    3  A    between atoms: C_8  and  O_9
REMARK    4  A    between atoms: O_9  and  C_10
REMARK    5  A    between atoms: C_15  and  C_16
REMARK                            x       y       z     vdW  Elec       q    Type
REMARK                         _______ _______ _______ _____ _____    ______ ____
ROOT
ATOM      1  O   UNL     1      45.529   4.326  14.176  0.00  0.00    +0.000 OA
ENDROOT
BRANCH   1   2
ATOM      2  C   UNL     1      44.775   4.521  13.055  0.00  0.00    +0.000 A 
ATOM      3  C   UNL     1      43.547   5.167  12.992  0.00  0.00    +0.000 A 
ATOM      4  C   UNL     1      42.906   5.274  11.765  0.00  0.00    +0.000 A 
ATOM      5  F   UNL     1      41.724   5.901  11.699  0.00  0.00    +0.000 F 
ATOM      6  C   UNL     1      43.461   4.746  10.601  0.00  0.00    +0.000 A 
ATOM      7  C   UNL     1      44.702   4.091  10.631  0.00  0.00    +0.000 A 
ATOM      8  C   UNL     1      45.340   3.998  11.882  0.00  0.00    +0.000 A 
BRANCH   7   9
ATOM      9  C   UNL     1      45.320   3.526   9.407  0.00  0.00    +0.000 A 
ATOM     10  C   UNL     1      45.826   4.348   8.390  0.00  0.00    +0.000 A 
ATOM     11  C   UNL     1      46.401   3.772   7.266  0.00  0.00    +0.000 A 
ATOM     12  N   UNL     1      46.520   2.443   7.079  0.00  0.00    +0.000 NA
ATOM     13  C   UNL     1      46.034   1.657   8.059  0.00  0.00    +0.000 A 
ATOM     14  C   UNL     1      45.433   2.141   9.213  0.00  0.00    +0.000 A 
ENDBRANCH   7   9
ENDBRANCH   1   2
BRANCH   1  15
ATOM     15  C   UNL     1      46.872   4.814  14.169  0.00  0.00    +0.000 C 
BRANCH  15  19
ATOM     16  C   UNL     1      48.649   4.404  18.037  0.00  0.00    +0.000 A 
ATOM     17  C   UNL     1      47.668   3.492  17.652  0.00  0.00    +0.000 A 
ATOM     18  C   UNL     1      47.086   3.608  16.390  0.00  0.00    +0.000 A 
ATOM     19  C   UNL     1      47.484   4.647  15.545  0.00  0.00    +0.000 A 
ATOM     20  N   UNL     1      48.452   5.531  15.900  0.00  0.00    +0.000 NA
ATOM     21  C   UNL     1      48.999   5.399  17.137  0.00  0.00    +0.000 A 
BRANCH  16  23
ATOM     22  N   UNL     1      48.569   3.920  20.419  0.00  0.00    +0.000 N 
ATOM     23  C   UNL     1      49.303   4.378  19.361  0.00  0.00    +0.000 C 
ATOM     24  O   UNL     1      50.467   4.726  19.504  0.00  0.00    +0.000 OA
ATOM     25  H   UNL     1      49.063   3.821  21.298  0.00  0.00    +0.000 HD
ATOM     26  H   UNL     1      47.706   3.408  20.310  0.00  0.00    +0.000 HD
ENDBRANCH  16  23
ENDBRANCH  15  19
ENDBRANCH   1  15
TORSDOF 5
ENDMDL
MODEL 6
REMARK VINA RESULT:    -7.023      3.159      7.344
REMARK INTER + INTRA:          -9.730
REMARK INTER:                  -9.139
REMARK INTRA:                  -0.591
REMARK UNBOUND:                -0.653
REMARK  Name = 
REMARK  5 active torsions:
REMARK  status: ('A' for Active; 'I' for Inactive)
REMARK    1  A    between atoms: C_2  and  C_4
REMARK    2  A    between atoms: C_7  and  C_8
REMARK    3  A    between atoms: C_8  and  O_9
REMARK    4  A    between atoms: O_9  and  C_10
REMARK    5  A    between atoms: C_15  and  C_16
REMARK                            x       y       z     vdW  Elec       q    Type
REMARK                         _______ _______ _______ _____ _____    ______ ____
ROOT
ATOM      1  O   UNL     1      45.542   4.171  14.105  0.00  0.00    +0.000 OA
ENDROOT
BRANCH   1   2
ATOM      2  C   UNL     1      44.766   4.352  12.997  0.00  0.00    +0.000 A 
ATOM      3  C   UNL     1      43.520   4.963  12.957  0.00  0.00    +0.000 A 
ATOM      4  C   UNL     1      42.858   5.061  11.740  0.00  0.00    +0.000 A 
ATOM      5  F   UNL     1      41.658   5.655  11.694  0.00  0.00    +0.000 F 
ATOM      6  C   UNL     1      43.410   4.555  10.564  0.00  0.00    +0.000 A 
ATOM      7  C   UNL     1      44.670   3.936  10.571  0.00  0.00    +0.000 A 
ATOM      8  C   UNL     1      45.329   3.853  11.812  0.00  0.00    +0.000 A 
BRANCH   7   9
ATOM      9  C   UNL     1      45.285   3.397   9.335  0.00  0.00    +0.000 A 
ATOM     10  C   UNL     1      45.475   2.021   9.145  0.00  0.00    +0.000 A 
ATOM     11  C   UNL     1      46.050   1.564   7.967  0.00  0.00    +0.000 A 
ATOM     12  N   UNL     1      46.440   2.368   6.960  0.00  0.00    +0.000 NA
ATOM     13  C   UNL     1      46.254   3.690   7.145  0.00  0.00    +0.000 A 
ATOM     14  C   UNL     1      45.698   4.239   8.291  0.00  0.00    +0.000 A 
ENDBRANCH   7   9
ENDBRANCH   1   2
BRANCH   1  15
ATOM     15  C   UNL     1      46.959   4.119  13.926  0.00  0.00    +0.000 C 
BRANCH  15  19
ATOM     16  C   UNL     1      48.668   7.962  14.696  0.00  0.00    +0.000 A 
ATOM     17  C   UNL     1      47.953   7.774  13.515  0.00  0.00    +0.000 A 
ATOM     18  C   UNL     1      47.382   6.528  13.255  0.00  0.00    +0.000 A 
ATOM     19  C   UNL     1      47.555   5.490  14.173  0.00  0.00    +0.000 A 
ATOM     20  N   UNL     1      48.234   5.666  15.336  0.00  0.00    +0.000 NA
ATOM     21  C   UNL     1      48.784   6.887  15.564  0.00  0.00    +0.000 A 
BRANCH  16  23
ATOM     22  N   UNL     1      48.532  10.329  15.242  0.00  0.00    +0.000 N 
ATOM     23  C   UNL     1      49.329   9.236  15.047  0.00  0.00    +0.000 C 
ATOM     24  O   UNL     1      50.543   9.307  15.188  0.00  0.00    +0.000 OA
ATOM     25  H   UNL     1      48.994  11.167  15.574  0.00  0.00    +0.000 HD
ATOM     26  H   UNL     1      47.533  10.265  15.372  0.00  0.00    +0.000 HD
ENDBRANCH  16  23
ENDBRANCH  15  19
ENDBRANCH   1  15
TORSDOF 5
ENDMDL
MODEL 7
REMARK VINA RESULT:    -6.925      5.168      7.792
REMARK INTER + INTRA:          -9.603
REMARK INTER:                  -8.944
REMARK INTRA:                  -0.659
REMARK UNBOUND:                -0.653
REMARK  Name = 
REMARK  5 active torsions:
REMARK  status: ('A' for Active; 'I' for Inactive)
REMARK    1  A    between atoms: C_2  and  C_4
REMARK    2  A    between atoms: C_7  and  C_8
REMARK    3  A    between atoms: C_8  and  O_9
REMARK    4  A    between atoms: O_9  and  C_10
REMARK    5  A    between atoms: C_15  and  C_16
REMARK                            x       y       z     vdW  Elec       q    Type
REMARK                         _______ _______ _______ _____ _____    ______ ____
ROOT
ATOM      1  O   UNL     1      48.499   6.310  15.578  0.00  0.00    +0.000 OA
ENDROOT
BRANCH   1   2
ATOM      2  C   UNL     1      48.187   6.511  14.264  0.00  0.00    +0.000 A 
ATOM      3  C   UNL     1      48.861   7.339  13.376  0.00  0.00    +0.000 A 
ATOM      4  C   UNL     1      48.406   7.434  12.068  0.00  0.00    +0.000 A 
ATOM      5  F   UNL     1      49.056   8.227  11.206  0.00  0.00    +0.000 F 
ATOM      6  C   UNL     1      47.288   6.726  11.629  0.00  0.00    +0.000 A 
ATOM      7  C   UNL     1      46.588   5.878  12.501  0.00  0.00    +0.000 A 
ATOM      8  C   UNL     1      47.068   5.789  13.821  0.00  0.00    +0.000 A 
BRANCH   7   9
ATOM      9  C   UNL     1      45.401   5.107  12.059  0.00  0.00    +0.000 A 
ATOM     10  C   UNL     1      44.764   5.370  10.838  0.00  0.00    +0.000 A 
ATOM     11  C   UNL     1      43.660   4.616  10.465  0.00  0.00    +0.000 A 
ATOM     12  N   UNL     1      43.145   3.617  11.208  0.00  0.00    +0.000 NA
ATOM     13  C   UNL     1      43.761   3.367  12.380  0.00  0.00    +0.000 A 
ATOM     14  C   UNL     1      44.863   4.073  12.841  0.00  0.00    +0.000 A 
ENDBRANCH   7   9
ENDBRANCH   1   2
BRANCH   1  15
ATOM     15  C   UNL     1      47.874   5.215  16.251  0.00  0.00    +0.000 C 
BRANCH  15  19
ATOM     16  C   UNL     1      50.885   2.402  17.396  0.00  0.00    +0.000 A 
ATOM     17  C   UNL     1      49.666   1.920  16.922  0.00  0.00    +0.000 A 
ATOM     18  C   UNL     1      48.678   2.827  16.536  0.00  0.00    +0.000 A 
ATOM     19  C   UNL     1      48.923   4.196  16.651  0.00  0.00    +0.000 A 
ATOM     20  N   UNL     1      50.113   4.679  17.094  0.00  0.00    +0.000 NA
ATOM     21  C   UNL     1      51.056   3.776  17.468  0.00  0.00    +0.000 A 
BRANCH  16  23
ATOM     22  N   UNL     1      51.672   0.218  18.123  0.00  0.00    +0.000 N 
ATOM     23  C   UNL     1      51.980   1.522  17.852  0.00  0.00    +0.000 C 
ATOM     24  O   UNL     1      53.128   1.934  17.956  0.00  0.00    +0.000 OA
ATOM     25  H   UNL     1      52.452  -0.390  18.343  0.00  0.00    +0.000 HD
ATOM     26  H   UNL     1      50.810  -0.217  17.827  0.00  0.00    +0.000 HD
ENDBRANCH  16  23
ENDBRANCH  15  19
ENDBRANCH   1  15
TORSDOF 5
ENDMDL
MODEL 8
REMARK VINA RESULT:    -6.837      5.105      6.808
REMARK INTER + INTRA:          -9.489
REMARK INTER:                  -9.031
REMARK INTRA:                  -0.458
REMARK UNBOUND:                -0.653
REMARK  Name = 
REMARK  5 active torsions:
REMARK  status: ('A' for Active; 'I' for Inactive)
REMARK    1  A    between atoms: C_2  and  C_4
REMARK    2  A    between atoms: C_7  and  C_8
REMARK    3  A    between atoms: C_8  and  O_9
REMARK    4  A    between atoms: O_9  and  C_10
REMARK    5  A    between atoms: C_15  and  C_16
REMARK                            x       y       z     vdW  Elec       q    Type
REMARK                         _______ _______ _______ _____ _____    ______ ____
ROOT
ATOM      1  O   UNL     1      46.925   4.002  15.450  0.00  0.00    +0.000 OA
ENDROOT
BRANCH   1   2
ATOM      2  C   UNL     1      47.614   4.134  16.622  0.00  0.00    +0.000 A 
ATOM      3  C   UNL     1      47.190   4.823  17.750  0.00  0.00    +0.000 A 
ATOM      4  C   UNL     1      48.021   4.865  18.863  0.00  0.00    +0.000 A 
ATOM      5  F   UNL     1      47.615   5.523  19.957  0.00  0.00    +0.000 F 
ATOM      6  C   UNL     1      49.266   4.240  18.870  0.00  0.00    +0.000 A 
ATOM      7  C   UNL     1      49.720   3.533  17.746  0.00  0.00    +0.000 A 
ATOM      8  C   UNL     1      48.863   3.495  16.630  0.00  0.00    +0.000 A 
BRANCH   7   9
ATOM      9  C   UNL     1      51.038   2.851  17.728  0.00  0.00    +0.000 A 
ATOM     10  C   UNL     1      52.220   3.525  18.065  0.00  0.00    +0.000 A 
ATOM     11  C   UNL     1      53.429   2.842  18.040  0.00  0.00    +0.000 A 
ATOM     12  N   UNL     1      53.550   1.540  17.715  0.00  0.00    +0.000 NA
ATOM     13  C   UNL     1      52.411   0.897  17.394  0.00  0.00    +0.000 A 
ATOM     14  C   UNL     1      51.160   1.498  17.381  0.00  0.00    +0.000 A 
ENDBRANCH   7   9
ENDBRANCH   1   2
BRANCH   1  15
ATOM     15  C   UNL     1      46.857   5.139  14.586  0.00  0.00    +0.000 C 
BRANCH  15  19
ATOM     16  C   UNL     1      44.998   3.958  10.921  0.00  0.00    +0.000 A 
ATOM     17  C   UNL     1      45.472   5.263  11.040  0.00  0.00    +0.000 A 
ATOM     18  C   UNL     1      46.088   5.659  12.226  0.00  0.00    +0.000 A 
ATOM     19  C   UNL     1      46.201   4.748  13.278  0.00  0.00    +0.000 A 
ATOM     20  N   UNL     1      45.761   3.467  13.168  0.00  0.00    +0.000 NA
ATOM     21  C   UNL     1      45.160   3.107  12.005  0.00  0.00    +0.000 A 
BRANCH  16  23
ATOM     22  N   UNL     1      44.055   4.347   8.713  0.00  0.00    +0.000 N 
ATOM     23  C   UNL     1      44.309   3.453   9.716  0.00  0.00    +0.000 C 
ATOM     24  O   UNL     1      44.002   2.274   9.603  0.00  0.00    +0.000 OA
ATOM     25  H   UNL     1      43.668   3.963   7.859  0.00  0.00    +0.000 HD
ATOM     26  H   UNL     1      44.495   5.254   8.660  0.00  0.00    +0.000 HD
ENDBRANCH  16  23
ENDBRANCH  15  19
ENDBRANCH   1  15
TORSDOF 5
ENDMDL
MODEL 9
REMARK VINA RESULT:    -6.530      4.908      8.464
REMARK INTER + INTRA:          -9.092
REMARK INTER:                  -8.470
REMARK INTRA:                  -0.622
REMARK UNBOUND:                -0.653
REMARK  Name = 
REMARK  5 active torsions:
REMARK  status: ('A' for Active; 'I' for Inactive)
REMARK    1  A    between atoms: C_2  and  C_4
REMARK    2  A    between atoms: C_7  and  C_8
REMARK    3  A    between atoms: C_8  and  O_9
REMARK    4  A    between atoms: O_9  and  C_10
REMARK    5  A    between atoms: C_15  and  C_16
REMARK                            x       y       z     vdW  Elec       q    Type
REMARK                         _______ _______ _______ _____ _____    ______ ____
ROOT
ATOM      1  O   UNL     1      49.049   6.598  14.011  0.00  0.00    +0.000 OA
ENDROOT
BRANCH   1   2
ATOM      2  C   UNL     1      47.838   6.967  13.500  0.00  0.00    +0.000 A 
ATOM      3  C   UNL     1      47.330   8.258  13.443  0.00  0.00    +0.000 A 
ATOM      4  C   UNL     1      46.071   8.461  12.893  0.00  0.00    +0.000 A 
ATOM      5  F   UNL     1      45.578   9.705  12.830  0.00  0.00    +0.000 F 
ATOM      6  C   UNL     1      45.306   7.402  12.406  0.00  0.00    +0.000 A 
ATOM      7  C   UNL     1      45.794   6.087  12.447  0.00  0.00    +0.000 A 
ATOM      8  C   UNL     1      47.075   5.902  13.000  0.00  0.00    +0.000 A 
BRANCH   7   9
ATOM      9  C   UNL     1      45.006   4.943  11.929  0.00  0.00    +0.000 A 
ATOM     10  C   UNL     1      44.339   4.058  12.788  0.00  0.00    +0.000 A 
ATOM     11  C   UNL     1      43.608   3.005  12.255  0.00  0.00    +0.000 A 
ATOM     12  N   UNL     1      43.481   2.770  10.934  0.00  0.00    +0.000 NA
ATOM     13  C   UNL     1      44.122   3.624  10.112  0.00  0.00    +0.000 A 
ATOM     14  C   UNL     1      44.884   4.697  10.553  0.00  0.00    +0.000 A 
ENDBRANCH   7   9
ENDBRANCH   1   2
BRANCH   1  15
ATOM     15  C   UNL     1      49.566   7.351  15.110  0.00  0.00    +0.000 C 
BRANCH  15  19
ATOM     16  C   UNL     1      48.889   5.153  18.715  0.00  0.00    +0.000 A 
ATOM     17  C   UNL     1      49.092   6.529  18.800  0.00  0.00    +0.000 A 
ATOM     18  C   UNL     1      49.306   7.260  17.631  0.00  0.00    +0.000 A 
ATOM     19  C   UNL     1      49.330   6.597  16.403  0.00  0.00    +0.000 A 
ATOM     20  N   UNL     1      49.114   5.259  16.304  0.00  0.00    +0.000 NA
ATOM     21  C   UNL     1      48.914   4.569  17.457  0.00  0.00    +0.000 A 
BRANCH  16  23
ATOM     22  N   UNL     1      48.318   2.993  19.675  0.00  0.00    +0.000 N 
ATOM     23  C   UNL     1      48.681   4.292  19.897  0.00  0.00    +0.000 C 
ATOM     24  O   UNL     1      48.854   4.714  21.032  0.00  0.00    +0.000 OA
ATOM     25  H   UNL     1      48.273   2.395  20.492  0.00  0.00    +0.000 HD
ATOM     26  H   UNL     1      48.398   2.545  18.773  0.00  0.00    +0.000 HD
ENDBRANCH  16  23
ENDBRANCH  15  19
ENDBRANCH   1  15
TORSDOF 5
ENDMDL
