MODEL 1
REMARK VINA RESULT:    -7.915      0.000      0.000
REMARK INTER + INTRA:         -14.368
REMARK INTER:                 -12.311
REMARK INTRA:                  -2.058
REMARK UNBOUND:                -2.058
REMARK  Name = 
REMARK  12 active torsions:
REMARK  status: ('A' for Active; 'I' for Inactive)
REMARK    1  A    between atoms: C_1  and  C_2
REMARK    2  A    between atoms: C_2  and  C_3
REMARK    3  A    between atoms: C_3  and  N_4
REMARK    4  A    between atoms: C_3  and  C_18
REMARK    5  A    between atoms: C_5  and  C_7
REMARK    6  A    between atoms: N_13  and  C_14
REMARK    7  A    between atoms: C_21  and  C_22
REMARK    8  A    between atoms: C_22  and  N_23
REMARK    9  A    between atoms: N_23  and  CA_24
REMARK   10  A    between atoms: CA_24  and  C_25
REMARK   11  A    between atoms: CA_24  and  C_27
REMARK   12  A    between atoms: C_25  and  O_26
REMARK                            x       y       z     vdW  Elec       q    Type
REMARK                         _______ _______ _______ _____ _____    ______ ____
ROOT
ATOM      1  C   UNL     1      47.661   7.771  12.897  0.00  0.00    +0.000 A 
ATOM      2  C   UNL     1      47.602   6.429  12.501  0.00  0.00    +0.000 A 
ATOM      3  C   UNL     1      46.376   5.843  12.159  0.00  0.00    +0.000 A 
ATOM      4  C   UNL     1      45.188   6.589  12.199  0.00  0.00    +0.000 A 
ATOM      5  C   UNL     1      45.253   7.941  12.548  0.00  0.00    +0.000 A 
ATOM      6  C   UNL     1      46.473   8.526  12.875  0.00  0.00    +0.000 A 
ENDROOT
BRANCH   1   7
ATOM      7  C   UNL     1      48.964   8.382  13.410  0.00  0.00    +0.000 C 
BRANCH   7   8
ATOM      8  N   UNL     1      49.260   7.832  14.716  0.00  0.00    +0.000 N 
ATOM      9  C   UNL     1      48.797   8.339  15.903  0.00  0.00    +0.000 C 
ATOM     10  O   UNL     1      47.986   9.256  15.965  0.00  0.00    +0.000 OA
ATOM     11  H   UNL     1      50.038   7.190  14.742  0.00  0.00    +0.000 HD
BRANCH   9  12
ATOM     12  C   UNL     1      49.291   7.657  17.108  0.00  0.00    +0.000 A 
ATOM     13  C   UNL     1      50.000   8.357  18.074  0.00  0.00    +0.000 A 
ATOM     14  S   UNL     1      50.361   7.424  19.459  0.00  0.00    +0.000 S 
ATOM     15  C   UNL     1      49.626   6.041  18.789  0.00  0.00    +0.000 A 
ATOM     16  N   UNL     1      49.549   4.876  19.484  0.00  0.00    +0.000 NA
ATOM     17  C   UNL     1      48.973   3.908  18.847  0.00  0.00    +0.000 A 
ATOM     18  N   UNL     1      48.489   3.976  17.558  0.00  0.00    +0.000 N 
ATOM     19  C   UNL     1      47.881   2.824  16.926  0.00  0.00    +0.000 C 
ATOM     20  C   UNL     1      48.576   5.143  16.812  0.00  0.00    +0.000 A 
ATOM     21  O   UNL     1      48.180   5.218  15.651  0.00  0.00    +0.000 OA
ATOM     22  C   UNL     1      49.150   6.276  17.515  0.00  0.00    +0.000 A 
ENDBRANCH   9  12
ENDBRANCH   7   8
BRANCH   7  24
ATOM     23  C   UNL     1      50.307   9.166  11.340  0.00  0.00    +0.000 C 
ATOM     24  C   UNL     1      50.074   8.084  12.377  0.00  0.00    +0.000 C 
ENDBRANCH   7  24
ENDBRANCH   1   7
BRANCH   4  25
ATOM     25  C   UNL     1      43.851   5.971  11.846  0.00  0.00    +0.000 C 
BRANCH  25  26
ATOM     26  N   UNL     1      43.814   5.527  10.455  0.00  0.00    +0.000 NA
ATOM     27  H   UNL     1      44.709   5.799  10.036  0.00  0.00    +0.000 HD
BRANCH  26  28
ATOM     28  CA  UNL     1      43.745   4.045  10.303  0.00  0.00    +0.000 C 
BRANCH  28  29
ATOM     29  C   UNL     1      44.750   3.474   9.295  0.00  0.00    +0.000 A 
ATOM     30  C   UNL     1      45.481   4.280   8.420  0.00  0.00    +0.000 A 
ATOM     31  C   UNL     1      46.384   3.692   7.539  0.00  0.00    +0.000 A 
ATOM     32  C   UNL     1      46.555   2.316   7.548  0.00  0.00    +0.000 A 
ATOM     33  C   UNL     1      45.800   1.580   8.442  0.00  0.00    +0.000 A 
ATOM     34  N   UNL     1      44.908   2.119   9.307  0.00  0.00    +0.000 NA
ENDBRANCH  28  29
BRANCH  28  35
ATOM     35  C   UNL     1      43.627   3.299  11.658  0.00  0.00    +0.000 C 
BRANCH  35  36
ATOM     36  O   UNL     1      42.912   2.065  11.593  0.00  0.00    +0.000 OA
ATOM     37  H   UNL     1      43.372   1.442  12.184  0.00  0.00    +0.000 HD
ENDBRANCH  35  36
ENDBRANCH  28  35
ENDBRANCH  26  28
ENDBRANCH  25  26
ENDBRANCH   4  25
TORSDOF 10
ENDMDL
MODEL 2
REMARK VINA RESULT:    -7.143      2.347      2.911
REMARK INTER + INTRA:         -13.167
REMARK INTER:                 -11.312
REMARK INTRA:                  -1.855
REMARK UNBOUND:                -2.058
REMARK  Name = 
REMARK  12 active torsions:
REMARK  status: ('A' for Active; 'I' for Inactive)
REMARK    1  A    between atoms: C_1  and  C_2
REMARK    2  A    between atoms: C_2  and  C_3
REMARK    3  A    between atoms: C_3  and  N_4
REMARK    4  A    between atoms: C_3  and  C_18
REMARK    5  A    between atoms: C_5  and  C_7
REMARK    6  A    between atoms: N_13  and  C_14
REMARK    7  A    between atoms: C_21  and  C_22
REMARK    8  A    between atoms: C_22  and  N_23
REMARK    9  A    between atoms: N_23  and  CA_24
REMARK   10  A    between atoms: CA_24  and  C_25
REMARK   11  A    between atoms: CA_24  and  C_27
REMARK   12  A    between atoms: C_25  and  O_26
REMARK                            x       y       z     vdW  Elec       q    Type
REMARK                         _______ _______ _______ _____ _____    ______ ____
ROOT
ATOM      1  C   UNL     1      47.638   7.367  12.974  0.00  0.00    +0.000 A 
ATOM      2  C   UNL     1      46.569   8.246  12.763  0.00  0.00    +0.000 A 
ATOM      3  C   UNL     1      45.300   7.755  12.431  0.00  0.00    +0.000 A 
ATOM      4  C   UNL     1      45.073   6.375  12.311  0.00  0.00    +0.000 A 
ATOM      5  C   UNL     1      46.128   5.495  12.568  0.00  0.00    +0.000 A 
ATOM      6  C   UNL     1      47.386   5.983  12.911  0.00  0.00    +0.000 A 
ENDROOT
BRANCH   1   7
ATOM      7  C   UNL     1      49.056   7.892  13.194  0.00  0.00    +0.000 C 
BRANCH   7   8
ATOM      8  N   UNL     1      49.689   7.113  14.238  0.00  0.00    +0.000 N 
ATOM      9  C   UNL     1      49.539   7.336  15.583  0.00  0.00    +0.000 C 
ATOM     10  O   UNL     1      48.754   8.160  16.038  0.00  0.00    +0.000 OA
ATOM     11  H   UNL     1      50.460   6.539  13.933  0.00  0.00    +0.000 HD
BRANCH   9  12
ATOM     12  C   UNL     1      50.340   6.464  16.454  0.00  0.00    +0.000 A 
ATOM     13  C   UNL     1      49.725   5.643  17.388  0.00  0.00    +0.000 A 
ATOM     14  S   UNL     1      50.812   4.606  18.200  0.00  0.00    +0.000 S 
ATOM     15  C   UNL     1      52.147   5.258  17.365  0.00  0.00    +0.000 A 
ATOM     16  N   UNL     1      53.403   4.781  17.562  0.00  0.00    +0.000 NA
ATOM     17  C   UNL     1      54.319   5.378  16.868  0.00  0.00    +0.000 A 
ATOM     18  N   UNL     1      54.109   6.437  16.011  0.00  0.00    +0.000 N 
ATOM     19  C   UNL     1      55.208   7.052  15.297  0.00  0.00    +0.000 C 
ATOM     20  C   UNL     1      52.841   6.965  15.809  0.00  0.00    +0.000 A 
ATOM     21  O   UNL     1      52.634   7.928  15.074  0.00  0.00    +0.000 OA
ATOM     22  C   UNL     1      51.773   6.277  16.513  0.00  0.00    +0.000 A 
ENDBRANCH   9  12
ENDBRANCH   7   8
BRANCH   7  24
ATOM     23  C   UNL     1      50.993   8.753  11.708  0.00  0.00    +0.000 C 
ATOM     24  C   UNL     1      49.814   7.808  11.851  0.00  0.00    +0.000 C 
ENDBRANCH   7  24
ENDBRANCH   1   7
BRANCH   4  25
ATOM     25  C   UNL     1      43.712   5.823  11.940  0.00  0.00    +0.000 C 
BRANCH  25  26
ATOM     26  N   UNL     1      43.653   5.444  10.530  0.00  0.00    +0.000 NA
ATOM     27  H   UNL     1      44.528   5.763  10.103  0.00  0.00    +0.000 HD
BRANCH  26  28
ATOM     28  CA  UNL     1      43.622   3.969  10.309  0.00  0.00    +0.000 C 
BRANCH  28  29
ATOM     29  C   UNL     1      44.679   3.465   9.318  0.00  0.00    +0.000 A 
ATOM     30  C   UNL     1      45.426   4.325   8.511  0.00  0.00    +0.000 A 
ATOM     31  C   UNL     1      46.376   3.796   7.641  0.00  0.00    +0.000 A 
ATOM     32  C   UNL     1      46.577   2.425   7.596  0.00  0.00    +0.000 A 
ATOM     33  C   UNL     1      45.803   1.634   8.424  0.00  0.00    +0.000 A 
ATOM     34  N   UNL     1      44.866   2.115   9.276  0.00  0.00    +0.000 NA
ENDBRANCH  28  29
BRANCH  28  35
ATOM     35  C   UNL     1      43.467   3.160  11.624  0.00  0.00    +0.000 C 
BRANCH  35  36
ATOM     36  O   UNL     1      44.656   2.497  12.053  0.00  0.00    +0.000 OA
ATOM     37  H   UNL     1      45.389   3.123  11.924  0.00  0.00    +0.000 HD
ENDBRANCH  35  36
ENDBRANCH  28  35
ENDBRANCH  26  28
ENDBRANCH  25  26
ENDBRANCH   4  25
TORSDOF 10
ENDMDL
MODEL 3
REMARK VINA RESULT:    -6.890      1.703      2.486
REMARK INTER + INTRA:         -12.773
REMARK INTER:                 -11.783
REMARK INTRA:                  -0.990
REMARK UNBOUND:                -2.058
REMARK  Name = 
REMARK  12 active torsions:
REMARK  status: ('A' for Active; 'I' for Inactive)
REMARK    1  A    between atoms: C_1  and  C_2
REMARK    2  A    between atoms: C_2  and  C_3
REMARK    3  A    between atoms: C_3  and  N_4
REMARK    4  A    between atoms: C_3  and  C_18
REMARK    5  A    between atoms: C_5  and  C_7
REMARK    6  A    between atoms: N_13  and  C_14
REMARK    7  A    between atoms: C_21  and  C_22
REMARK    8  A    between atoms: C_22  and  N_23
REMARK    9  A    between atoms: N_23  and  CA_24
REMARK   10  A    between atoms: CA_24  and  C_25
REMARK   11  A    between atoms: CA_24  and  C_27
REMARK   12  A    between atoms: C_25  and  O_26
REMARK                            x       y       z     vdW  Elec       q    Type
REMARK                         _______ _______ _______ _____ _____    ______ ____
ROOT
ATOM      1  C   UNL     1      47.304   7.253  13.018  0.00  0.00    +0.000 A 
ATOM      2  C   UNL     1      46.435   8.049  12.262  0.00  0.00    +0.000 A 
ATOM      3  C   UNL     1      45.271   7.500  11.707  0.00  0.00    +0.000 A 
ATOM      4  C   UNL     1      44.950   6.149  11.904  0.00  0.00    +0.000 A 
ATOM      5  C   UNL     1      45.792   5.366  12.699  0.00  0.00    +0.000 A 
ATOM      6  C   UNL     1      46.942   5.914  13.261  0.00  0.00    +0.000 A 
ENDROOT
BRANCH   1   7
ATOM      7  C   UNL     1      48.644   7.799  13.507  0.00  0.00    +0.000 C 
BRANCH   7   8
ATOM      8  N   UNL     1      48.890   7.312  14.849  0.00  0.00    +0.000 N 
ATOM      9  C   UNL     1      50.089   7.401  15.508  0.00  0.00    +0.000 C 
ATOM     10  O   UNL     1      51.053   8.010  15.058  0.00  0.00    +0.000 OA
ATOM     11  H   UNL     1      48.197   6.668  15.202  0.00  0.00    +0.000 HD
BRANCH   9  12
ATOM     12  C   UNL     1      50.120   6.770  16.835  0.00  0.00    +0.000 A 
ATOM     13  C   UNL     1      50.906   5.650  17.065  0.00  0.00    +0.000 A 
ATOM     14  S   UNL     1      50.917   5.154  18.700  0.00  0.00    +0.000 S 
ATOM     15  C   UNL     1      49.831   6.389  19.142  0.00  0.00    +0.000 A 
ATOM     16  N   UNL     1      49.444   6.560  20.433  0.00  0.00    +0.000 NA
ATOM     17  C   UNL     1      48.609   7.531  20.620  0.00  0.00    +0.000 A 
ATOM     18  N   UNL     1      48.089   8.339  19.631  0.00  0.00    +0.000 N 
ATOM     19  C   UNL     1      47.140   9.386  19.943  0.00  0.00    +0.000 C 
ATOM     20  C   UNL     1      48.444   8.173  18.299  0.00  0.00    +0.000 A 
ATOM     21  O   UNL     1      47.971   8.861  17.398  0.00  0.00    +0.000 OA
ATOM     22  C   UNL     1      49.436   7.141  18.055  0.00  0.00    +0.000 A 
ENDBRANCH   9  12
ENDBRANCH   7   8
BRANCH   7  24
ATOM     23  C   UNL     1      50.174   8.413  11.510  0.00  0.00    +0.000 C 
ATOM     24  C   UNL     1      49.737   7.357  12.509  0.00  0.00    +0.000 C 
ENDBRANCH   7  24
ENDBRANCH   1   7
BRANCH   4  25
ATOM     25  C   UNL     1      43.704   5.533  11.302  0.00  0.00    +0.000 C 
BRANCH  25  26
ATOM     26  N   UNL     1      43.935   5.087   9.929  0.00  0.00    +0.000 NA
ATOM     27  H   UNL     1      44.841   5.471   9.644  0.00  0.00    +0.000 HD
BRANCH  26  28
ATOM     28  CA  UNL     1      44.076   3.608   9.798  0.00  0.00    +0.000 C 
BRANCH  28  29
ATOM     29  C   UNL     1      45.171   3.171   8.817  0.00  0.00    +0.000 A 
ATOM     30  C   UNL     1      45.621   1.853   8.728  0.00  0.00    +0.000 A 
ATOM     31  C   UNL     1      46.612   1.527   7.805  0.00  0.00    +0.000 A 
ATOM     32  C   UNL     1      47.132   2.514   6.980  0.00  0.00    +0.000 A 
ATOM     33  C   UNL     1      46.638   3.797   7.122  0.00  0.00    +0.000 A 
ATOM     34  N   UNL     1      45.680   4.149   8.012  0.00  0.00    +0.000 NA
ENDBRANCH  28  29
BRANCH  28  35
ATOM     35  C   UNL     1      44.036   2.869  11.161  0.00  0.00    +0.000 C 
BRANCH  35  36
ATOM     36  O   UNL     1      42.746   2.383  11.533  0.00  0.00    +0.000 OA
ATOM     37  H   UNL     1      42.887   1.701  12.212  0.00  0.00    +0.000 HD
ENDBRANCH  35  36
ENDBRANCH  28  35
ENDBRANCH  26  28
ENDBRANCH  25  26
ENDBRANCH   4  25
TORSDOF 10
ENDMDL
MODEL 4
REMARK VINA RESULT:    -6.588      3.501      5.807
REMARK INTER + INTRA:         -12.305
REMARK INTER:                 -10.567
REMARK INTRA:                  -1.737
REMARK UNBOUND:                -2.058
REMARK  Name = 
REMARK  12 active torsions:
REMARK  status: ('A' for Active; 'I' for Inactive)
REMARK    1  A    between atoms: C_1  and  C_2
REMARK    2  A    between atoms: C_2  and  C_3
REMARK    3  A    between atoms: C_3  and  N_4
REMARK    4  A    between atoms: C_3  and  C_18
REMARK    5  A    between atoms: C_5  and  C_7
REMARK    6  A    between atoms: N_13  and  C_14
REMARK    7  A    between atoms: C_21  and  C_22
REMARK    8  A    between atoms: C_22  and  N_23
REMARK    9  A    between atoms: N_23  and  CA_24
REMARK   10  A    between atoms: CA_24  and  C_25
REMARK   11  A    between atoms: CA_24  and  C_27
REMARK   12  A    between atoms: C_25  and  O_26
REMARK                            x       y       z     vdW  Elec       q    Type
REMARK                         _______ _______ _______ _____ _____    ______ ____
ROOT
ATOM      1  C   UNL     1      48.227   4.440  17.054  0.00  0.00    +0.000 A 
ATOM      2  C   UNL     1      48.862   5.658  16.782  0.00  0.00    +0.000 A 
ATOM      3  C   UNL     1      48.637   6.320  15.568  0.00  0.00    +0.000 A 
ATOM      4  C   UNL     1      47.769   5.782  14.606  0.00  0.00    +0.000 A 
ATOM      5  C   UNL     1      47.099   4.590  14.897  0.00  0.00    +0.000 A 
ATOM      6  C   UNL     1      47.312   3.939  16.109  0.00  0.00    +0.000 A 
ENDROOT
BRANCH   1   7
ATOM      7  C   UNL     1      48.572   3.637  18.308  0.00  0.00    +0.000 C 
BRANCH   7   8
ATOM      8  N   UNL     1      49.971   3.268  18.260  0.00  0.00    +0.000 N 
ATOM      9  C   UNL     1      50.511   2.348  17.399  0.00  0.00    +0.000 C 
ATOM     10  O   UNL     1      49.867   1.821  16.498  0.00  0.00    +0.000 OA
ATOM     11  H   UNL     1      50.511   3.539  19.069  0.00  0.00    +0.000 HD
BRANCH   9  12
ATOM     12  C   UNL     1      51.945   2.082  17.587  0.00  0.00    +0.000 A 
ATOM     13  C   UNL     1      52.416   0.780  17.668  0.00  0.00    +0.000 A 
ATOM     14  S   UNL     1      54.120   0.679  17.741  0.00  0.00    +0.000 S 
ATOM     15  C   UNL     1      54.278   2.376  17.718  0.00  0.00    +0.000 A 
ATOM     16  N   UNL     1      55.500   2.970  17.719  0.00  0.00    +0.000 NA
ATOM     17  C   UNL     1      55.467   4.264  17.710  0.00  0.00    +0.000 A 
ATOM     18  N   UNL     1      54.324   5.035  17.732  0.00  0.00    +0.000 N 
ATOM     19  C   UNL     1      54.397   6.481  17.744  0.00  0.00    +0.000 C 
ATOM     20  C   UNL     1      53.062   4.458  17.759  0.00  0.00    +0.000 A 
ATOM     21  O   UNL     1      52.031   5.124  17.810  0.00  0.00    +0.000 OA
ATOM     22  C   UNL     1      53.052   3.007  17.696  0.00  0.00    +0.000 A 
ENDBRANCH   9  12
ENDBRANCH   7   8
BRANCH   7  24
ATOM     23  C   UNL     1      49.392   4.807  20.467  0.00  0.00    +0.000 C 
ATOM     24  C   UNL     1      48.229   4.501  19.541  0.00  0.00    +0.000 C 
ENDBRANCH   7  24
ENDBRANCH   1   7
BRANCH   4  25
ATOM     25  C   UNL     1      47.523   6.474  13.282  0.00  0.00    +0.000 C 
BRANCH  25  26
ATOM     26  N   UNL     1      46.186   7.062  13.223  0.00  0.00    +0.000 NA
ATOM     27  H   UNL     1      46.309   8.078  13.280  0.00  0.00    +0.000 HD
BRANCH  26  28
ATOM     28  CA  UNL     1      45.485   6.823  11.928  0.00  0.00    +0.000 C 
BRANCH  28  29
ATOM     29  C   UNL     1      44.763   5.473  11.850  0.00  0.00    +0.000 A 
ATOM     30  C   UNL     1      44.161   4.875  12.959  0.00  0.00    +0.000 A 
ATOM     31  C   UNL     1      43.513   3.651  12.810  0.00  0.00    +0.000 A 
ATOM     32  C   UNL     1      43.463   3.048  11.563  0.00  0.00    +0.000 A 
ATOM     33  C   UNL     1      44.079   3.698  10.509  0.00  0.00    +0.000 A 
ATOM     34  N   UNL     1      44.723   4.884  10.620  0.00  0.00    +0.000 NA
ENDBRANCH  28  29
BRANCH  28  35
ATOM     35  C   UNL     1      44.694   8.060  11.427  0.00  0.00    +0.000 C 
BRANCH  35  36
ATOM     36  O   UNL     1      43.343   7.786  11.054  0.00  0.00    +0.000 OA
ATOM     37  H   UNL     1      43.122   8.398  10.331  0.00  0.00    +0.000 HD
ENDBRANCH  35  36
ENDBRANCH  28  35
ENDBRANCH  26  28
ENDBRANCH  25  26
ENDBRANCH   4  25
TORSDOF 10
ENDMDL
MODEL 5
REMARK VINA RESULT:    -6.050      1.699      2.120
REMARK INTER + INTRA:         -11.468
REMARK INTER:                  -9.658
REMARK INTRA:                  -1.810
REMARK UNBOUND:                -2.058
REMARK  Name = 
REMARK  12 active torsions:
REMARK  status: ('A' for Active; 'I' for Inactive)
REMARK    1  A    between atoms: C_1  and  C_2
REMARK    2  A    between atoms: C_2  and  C_3
REMARK    3  A    between atoms: C_3  and  N_4
REMARK    4  A    between atoms: C_3  and  C_18
REMARK    5  A    between atoms: C_5  and  C_7
REMARK    6  A    between atoms: N_13  and  C_14
REMARK    7  A    between atoms: C_21  and  C_22
REMARK    8  A    between atoms: C_22  and  N_23
REMARK    9  A    between atoms: N_23  and  CA_24
REMARK   10  A    between atoms: CA_24  and  C_25
REMARK   11  A    between atoms: CA_24  and  C_27
REMARK   12  A    between atoms: C_25  and  O_26
REMARK                            x       y       z     vdW  Elec       q    Type
REMARK                         _______ _______ _______ _____ _____    ______ ____
ROOT
ATOM      1  C   UNL     1      47.764   8.021  13.359  0.00  0.00    +0.000 A 
ATOM      2  C   UNL     1      48.211   6.748  13.734  0.00  0.00    +0.000 A 
ATOM      3  C   UNL     1      47.339   5.652  13.702  0.00  0.00    +0.000 A 
ATOM      4  C   UNL     1      46.007   5.805  13.286  0.00  0.00    +0.000 A 
ATOM      5  C   UNL     1      45.575   7.066  12.865  0.00  0.00    +0.000 A 
ATOM      6  C   UNL     1      46.445   8.153  12.886  0.00  0.00    +0.000 A 
ENDROOT
BRANCH   1   7
ATOM      7  C   UNL     1      48.659   9.247  13.526  0.00  0.00    +0.000 C 
BRANCH   7   8
ATOM      8  N   UNL     1      49.506   9.058  14.686  0.00  0.00    +0.000 N 
ATOM      9  C   UNL     1      49.675   9.976  15.690  0.00  0.00    +0.000 C 
ATOM     10  O   UNL     1      49.031  11.016  15.759  0.00  0.00    +0.000 OA
ATOM     11  H   UNL     1      50.176   8.307  14.606  0.00  0.00    +0.000 HD
BRANCH   9  12
ATOM     12  C   UNL     1      50.643   9.593  16.729  0.00  0.00    +0.000 A 
ATOM     13  C   UNL     1      51.822  10.306  16.892  0.00  0.00    +0.000 A 
ATOM     14  S   UNL     1      52.742   9.796  18.238  0.00  0.00    +0.000 S 
ATOM     15  C   UNL     1      51.619   8.572  18.615  0.00  0.00    +0.000 A 
ATOM     16  N   UNL     1      51.784   7.772  19.700  0.00  0.00    +0.000 NA
ATOM     17  C   UNL     1      50.858   6.881  19.857  0.00  0.00    +0.000 A 
ATOM     18  N   UNL     1      49.788   6.684  19.011  0.00  0.00    +0.000 N 
ATOM     19  C   UNL     1      48.817   5.640  19.264  0.00  0.00    +0.000 C 
ATOM     20  C   UNL     1      49.605   7.467  17.879  0.00  0.00    +0.000 A 
ATOM     21  O   UNL     1      48.676   7.290  17.095  0.00  0.00    +0.000 OA
ATOM     22  C   UNL     1      50.581   8.528  17.706  0.00  0.00    +0.000 A 
ENDBRANCH   9  12
ENDBRANCH   7   8
BRANCH   7  24
ATOM     23  C   UNL     1      48.857  10.364  11.199  0.00  0.00    +0.000 C 
ATOM     24  C   UNL     1      49.472   9.432  12.225  0.00  0.00    +0.000 C 
ENDBRANCH   7  24
ENDBRANCH   1   7
BRANCH   4  25
ATOM     25  C   UNL     1      45.044   4.636  13.256  0.00  0.00    +0.000 C 
BRANCH  25  26
ATOM     26  N   UNL     1      45.371   3.698  12.184  0.00  0.00    +0.000 NA
ATOM     27  H   UNL     1      45.213   2.757  12.559  0.00  0.00    +0.000 HD
BRANCH  26  28
ATOM     28  CA  UNL     1      44.470   3.806  11.001  0.00  0.00    +0.000 C 
BRANCH  28  29
ATOM     29  C   UNL     1      45.143   3.449   9.670  0.00  0.00    +0.000 A 
ATOM     30  C   UNL     1      45.564   4.415   8.755  0.00  0.00    +0.000 A 
ATOM     31  C   UNL     1      46.178   4.017   7.570  0.00  0.00    +0.000 A 
ATOM     32  C   UNL     1      46.374   2.667   7.319  0.00  0.00    +0.000 A 
ATOM     33  C   UNL     1      45.934   1.766   8.270  0.00  0.00    +0.000 A 
ATOM     34  N   UNL     1      45.328   2.118   9.429  0.00  0.00    +0.000 NA
ENDBRANCH  28  29
BRANCH  28  35
ATOM     35  C   UNL     1      43.064   3.197  11.249  0.00  0.00    +0.000 C 
BRANCH  35  36
ATOM     36  O   UNL     1      43.073   1.811  11.590  0.00  0.00    +0.000 OA
ATOM     37  H   UNL     1      42.173   1.476  11.430  0.00  0.00    +0.000 HD
ENDBRANCH  35  36
ENDBRANCH  28  35
ENDBRANCH  26  28
ENDBRANCH  25  26
ENDBRANCH   4  25
TORSDOF 10
ENDMDL
MODEL 6
REMARK VINA RESULT:    -6.021      3.498      7.655
REMARK INTER + INTRA:         -11.423
REMARK INTER:                  -9.156
REMARK INTRA:                  -2.267
REMARK UNBOUND:                -2.058
REMARK  Name = 
REMARK  12 active torsions:
REMARK  status: ('A' for Active; 'I' for Inactive)
REMARK    1  A    between atoms: C_1  and  C_2
REMARK    2  A    between atoms: C_2  and  C_3
REMARK    3  A    between atoms: C_3  and  N_4
REMARK    4  A    between atoms: C_3  and  C_18
REMARK    5  A    between atoms: C_5  and  C_7
REMARK    6  A    between atoms: N_13  and  C_14
REMARK    7  A    between atoms: C_21  and  C_22
REMARK    8  A    between atoms: C_22  and  N_23
REMARK    9  A    between atoms: N_23  and  CA_24
REMARK   10  A    between atoms: CA_24  and  C_25
REMARK   11  A    between atoms: CA_24  and  C_27
REMARK   12  A    between atoms: C_25  and  O_26
REMARK                            x       y       z     vdW  Elec       q    Type
REMARK                         _______ _______ _______ _____ _____    ______ ____
ROOT
ATOM      1  C   UNL     1      51.549   7.972  15.006  0.00  0.00    +0.000 A 
ATOM      2  C   UNL     1      50.634   7.429  15.916  0.00  0.00    +0.000 A 
ATOM      3  C   UNL     1      51.042   6.455  16.837  0.00  0.00    +0.000 A 
ATOM      4  C   UNL     1      52.372   6.011  16.872  0.00  0.00    +0.000 A 
ATOM      5  C   UNL     1      53.297   6.588  15.996  0.00  0.00    +0.000 A 
ATOM      6  C   UNL     1      52.894   7.565  15.089  0.00  0.00    +0.000 A 
ENDROOT
BRANCH   1   7
ATOM      7  C   UNL     1      51.090   8.926  13.905  0.00  0.00    +0.000 C 
BRANCH   7   8
ATOM      8  N   UNL     1      49.682   8.703  13.646  0.00  0.00    +0.000 N 
ATOM      9  C   UNL     1      49.066   8.903  12.438  0.00  0.00    +0.000 C 
ATOM     10  O   UNL     1      49.680   9.189  11.416  0.00  0.00    +0.000 OA
ATOM     11  H   UNL     1      49.105   8.627  14.470  0.00  0.00    +0.000 HD
BRANCH   9  12
ATOM     12  C   UNL     1      47.613   8.682  12.434  0.00  0.00    +0.000 A 
ATOM     13  C   UNL     1      46.742   9.721  12.142  0.00  0.00    +0.000 A 
ATOM     14  S   UNL     1      45.108   9.231  12.047  0.00  0.00    +0.000 S 
ATOM     15  C   UNL     1      45.508   7.623  12.445  0.00  0.00    +0.000 A 
ATOM     16  N   UNL     1      44.559   6.653  12.498  0.00  0.00    +0.000 NA
ATOM     17  C   UNL     1      45.007   5.481  12.822  0.00  0.00    +0.000 A 
ATOM     18  N   UNL     1      46.316   5.184  13.133  0.00  0.00    +0.000 N 
ATOM     19  C   UNL     1      46.710   3.842  13.507  0.00  0.00    +0.000 C 
ATOM     20  C   UNL     1      47.304   6.159  13.115  0.00  0.00    +0.000 A 
ATOM     21  O   UNL     1      48.472   5.924  13.418  0.00  0.00    +0.000 OA
ATOM     22  C   UNL     1      46.859   7.473  12.685  0.00  0.00    +0.000 A 
ENDBRANCH   9  12
ENDBRANCH   7   8
BRANCH   7  24
ATOM     23  C   UNL     1      52.571  11.038  13.696  0.00  0.00    +0.000 C 
ATOM     24  C   UNL     1      51.385  10.371  14.365  0.00  0.00    +0.000 C 
ENDBRANCH   7  24
ENDBRANCH   1   7
BRANCH   4  25
ATOM     25  C   UNL     1      52.831   4.950  17.850  0.00  0.00    +0.000 C 
BRANCH  25  26
ATOM     26  N   UNL     1      52.849   3.624  17.235  0.00  0.00    +0.000 NA
ATOM     27  H   UNL     1      53.806   3.269  17.332  0.00  0.00    +0.000 HD
BRANCH  26  28
ATOM     28  CA  UNL     1      51.989   2.628  17.936  0.00  0.00    +0.000 C 
BRANCH  28  29
ATOM     29  C   UNL     1      50.491   2.782  17.642  0.00  0.00    +0.000 A 
ATOM     30  C   UNL     1      49.662   3.631  18.378  0.00  0.00    +0.000 A 
ATOM     31  C   UNL     1      48.313   3.727  18.046  0.00  0.00    +0.000 A 
ATOM     32  C   UNL     1      47.813   2.989  16.984  0.00  0.00    +0.000 A 
ATOM     33  C   UNL     1      48.692   2.171  16.299  0.00  0.00    +0.000 A 
ATOM     34  N   UNL     1      50.007   2.048  16.599  0.00  0.00    +0.000 NA
ENDBRANCH  28  29
BRANCH  28  35
ATOM     35  C   UNL     1      52.558   1.186  17.883  0.00  0.00    +0.000 C 
BRANCH  35  36
ATOM     36  O   UNL     1      51.600   0.162  18.147  0.00  0.00    +0.000 OA
ATOM     37  H   UNL     1      51.985  -0.673  17.827  0.00  0.00    +0.000 HD
ENDBRANCH  35  36
ENDBRANCH  28  35
ENDBRANCH  26  28
ENDBRANCH  25  26
ENDBRANCH   4  25
TORSDOF 10
ENDMDL
MODEL 7
REMARK VINA RESULT:    -6.018      3.139      8.662
REMARK INTER + INTRA:         -11.418
REMARK INTER:                 -10.970
REMARK INTRA:                  -0.448
REMARK UNBOUND:                -2.058
REMARK  Name = 
REMARK  12 active torsions:
REMARK  status: ('A' for Active; 'I' for Inactive)
REMARK    1  A    between atoms: C_1  and  C_2
REMARK    2  A    between atoms: C_2  and  C_3
REMARK    3  A    between atoms: C_3  and  N_4
REMARK    4  A    between atoms: C_3  and  C_18
REMARK    5  A    between atoms: C_5  and  C_7
REMARK    6  A    between atoms: N_13  and  C_14
REMARK    7  A    between atoms: C_21  and  C_22
REMARK    8  A    between atoms: C_22  and  N_23
REMARK    9  A    between atoms: N_23  and  CA_24
REMARK   10  A    between atoms: CA_24  and  C_25
REMARK   11  A    between atoms: CA_24  and  C_27
REMARK   12  A    between atoms: C_25  and  O_26
REMARK                            x       y       z     vdW  Elec       q    Type
REMARK                         _______ _______ _______ _____ _____    ______ ____
ROOT
ATOM      1  C   UNL     1      47.637   7.841  13.619  0.00  0.00    +0.000 A 
ATOM      2  C   UNL     1      47.951   8.946  14.420  0.00  0.00    +0.000 A 
ATOM      3  C   UNL     1      48.615   8.772  15.641  0.00  0.00    +0.000 A 
ATOM      4  C   UNL     1      48.986   7.492  16.081  0.00  0.00    +0.000 A 
ATOM      5  C   UNL     1      48.716   6.393  15.259  0.00  0.00    +0.000 A 
ATOM      6  C   UNL     1      48.067   6.568  14.040  0.00  0.00    +0.000 A 
ENDROOT
BRANCH   1   7
ATOM      7  C   UNL     1      46.788   8.000  12.359  0.00  0.00    +0.000 C 
BRANCH   7   8
ATOM      8  N   UNL     1      46.216   6.716  12.011  0.00  0.00    +0.000 N 
ATOM      9  C   UNL     1      44.926   6.521  11.591  0.00  0.00    +0.000 C 
ATOM     10  O   UNL     1      44.154   7.444  11.359  0.00  0.00    +0.000 OA
ATOM     11  H   UNL     1      46.740   5.915  12.332  0.00  0.00    +0.000 HD
BRANCH   9  12
ATOM     12  C   UNL     1      44.547   5.118  11.367  0.00  0.00    +0.000 A 
ATOM     13  C   UNL     1      43.813   4.425  12.318  0.00  0.00    +0.000 A 
ATOM     14  S   UNL     1      43.353   2.860  11.811  0.00  0.00    +0.000 S 
ATOM     15  C   UNL     1      44.165   3.040  10.325  0.00  0.00    +0.000 A 
ATOM     16  N   UNL     1      44.137   2.061   9.383  0.00  0.00    +0.000 NA
ATOM     17  C   UNL     1      44.806   2.332   8.308  0.00  0.00    +0.000 A 
ATOM     18  N   UNL     1      45.535   3.481   8.088  0.00  0.00    +0.000 N 
ATOM     19  C   UNL     1      46.270   3.677   6.856  0.00  0.00    +0.000 C 
ATOM     20  C   UNL     1      45.606   4.488   9.042  0.00  0.00    +0.000 A 
ATOM     21  O   UNL     1      46.274   5.506   8.881  0.00  0.00    +0.000 OA
ATOM     22  C   UNL     1      44.810   4.257  10.234  0.00  0.00    +0.000 A 
ENDBRANCH   9  12
ENDBRANCH   7   8
BRANCH   7  24
ATOM     23  C   UNL     1      45.855  10.360  11.848  0.00  0.00    +0.000 C 
ATOM     24  C   UNL     1      45.711   9.072  12.636  0.00  0.00    +0.000 C 
ENDBRANCH   7  24
ENDBRANCH   1   7
BRANCH   4  25
ATOM     25  C   UNL     1      49.693   7.280  17.403  0.00  0.00    +0.000 C 
BRANCH  25  26
ATOM     26  N   UNL     1      50.584   6.122  17.357  0.00  0.00    +0.000 NA
ATOM     27  H   UNL     1      51.457   6.405  17.813  0.00  0.00    +0.000 HD
BRANCH  26  28
ATOM     28  CA  UNL     1      50.089   4.956  18.145  0.00  0.00    +0.000 C 
BRANCH  28  29
ATOM     29  C   UNL     1      50.923   3.682  17.964  0.00  0.00    +0.000 A 
ATOM     30  C   UNL     1      50.411   2.524  17.378  0.00  0.00    +0.000 A 
ATOM     31  C   UNL     1      51.231   1.407  17.236  0.00  0.00    +0.000 A 
ATOM     32  C   UNL     1      52.548   1.463  17.669  0.00  0.00    +0.000 A 
ATOM     33  C   UNL     1      52.988   2.644  18.238  0.00  0.00    +0.000 A 
ATOM     34  N   UNL     1      52.216   3.745  18.396  0.00  0.00    +0.000 NA
ENDBRANCH  28  29
BRANCH  28  35
ATOM     35  C   UNL     1      49.702   5.327  19.601  0.00  0.00    +0.000 C 
BRANCH  35  36
ATOM     36  O   UNL     1      49.095   4.266  20.339  0.00  0.00    +0.000 OA
ATOM     37  H   UNL     1      49.506   4.267  21.222  0.00  0.00    +0.000 HD
ENDBRANCH  35  36
ENDBRANCH  28  35
ENDBRANCH  26  28
ENDBRANCH  25  26
ENDBRANCH   4  25
TORSDOF 10
ENDMDL
MODEL 8
REMARK VINA RESULT:    -5.950      4.854      9.710
REMARK INTER + INTRA:         -11.312
REMARK INTER:                 -10.079
REMARK INTRA:                  -1.233
REMARK UNBOUND:                -2.058
REMARK  Name = 
REMARK  12 active torsions:
REMARK  status: ('A' for Active; 'I' for Inactive)
REMARK    1  A    between atoms: C_1  and  C_2
REMARK    2  A    between atoms: C_2  and  C_3
REMARK    3  A    between atoms: C_3  and  N_4
REMARK    4  A    between atoms: C_3  and  C_18
REMARK    5  A    between atoms: C_5  and  C_7
REMARK    6  A    between atoms: N_13  and  C_14
REMARK    7  A    between atoms: C_21  and  C_22
REMARK    8  A    between atoms: C_22  and  N_23
REMARK    9  A    between atoms: N_23  and  CA_24
REMARK   10  A    between atoms: CA_24  and  C_25
REMARK   11  A    between atoms: CA_24  and  C_27
REMARK   12  A    between atoms: C_25  and  O_26
REMARK                            x       y       z     vdW  Elec       q    Type
REMARK                         _______ _______ _______ _____ _____    ______ ____
ROOT
ATOM      1  C   UNL     1      49.286   4.356  17.350  0.00  0.00    +0.000 A 
ATOM      2  C   UNL     1      48.844   3.065  17.035  0.00  0.00    +0.000 A 
ATOM      3  C   UNL     1      49.736   1.985  17.052  0.00  0.00    +0.000 A 
ATOM      4  C   UNL     1      51.085   2.173  17.391  0.00  0.00    +0.000 A 
ATOM      5  C   UNL     1      51.516   3.453  17.751  0.00  0.00    +0.000 A 
ATOM      6  C   UNL     1      50.627   4.524  17.747  0.00  0.00    +0.000 A 
ENDROOT
BRANCH   1   7
ATOM      7  C   UNL     1      48.362   5.563  17.197  0.00  0.00    +0.000 C 
BRANCH   7   8
ATOM      8  N   UNL     1      47.542   5.381  16.017  0.00  0.00    +0.000 N 
ATOM      9  C   UNL     1      47.881   5.799  14.755  0.00  0.00    +0.000 C 
ATOM     10  O   UNL     1      48.976   6.276  14.483  0.00  0.00    +0.000 OA
ATOM     11  H   UNL     1      46.578   5.147  16.200  0.00  0.00    +0.000 HD
BRANCH   9  12
ATOM     12  C   UNL     1      46.857   5.570  13.726  0.00  0.00    +0.000 A 
ATOM     13  C   UNL     1      46.472   4.281  13.388  0.00  0.00    +0.000 A 
ATOM     14  S   UNL     1      45.173   4.230  12.279  0.00  0.00    +0.000 S 
ATOM     15  C   UNL     1      45.119   5.930  12.176  0.00  0.00    +0.000 A 
ATOM     16  N   UNL     1      44.190   6.561  11.412  0.00  0.00    +0.000 NA
ATOM     17  C   UNL     1      44.274   7.853  11.423  0.00  0.00    +0.000 A 
ATOM     18  N   UNL     1      45.224   8.586  12.101  0.00  0.00    +0.000 N 
ATOM     19  C   UNL     1      45.246  10.032  12.027  0.00  0.00    +0.000 C 
ATOM     20  C   UNL     1      46.204   7.970  12.868  0.00  0.00    +0.000 A 
ATOM     21  O   UNL     1      47.079   8.601  13.456  0.00  0.00    +0.000 OA
ATOM     22  C   UNL     1      46.101   6.523  12.943  0.00  0.00    +0.000 A 
ENDBRANCH   9  12
ENDBRANCH   7   8
BRANCH   7  24
ATOM     23  C   UNL     1      47.446   7.086  19.079  0.00  0.00    +0.000 C 
ATOM     24  C   UNL     1      47.521   5.692  18.486  0.00  0.00    +0.000 C 
ENDBRANCH   7  24
ENDBRANCH   1   7
BRANCH   4  25
ATOM     25  C   UNL     1      52.069   1.022  17.402  0.00  0.00    +0.000 C 
BRANCH  25  26
ATOM     26  N   UNL     1      53.008   1.128  18.517  0.00  0.00    +0.000 NA
ATOM     27  H   UNL     1      52.621   0.565  19.281  0.00  0.00    +0.000 HD
BRANCH  26  28
ATOM     28  CA  UNL     1      54.345   0.534  18.230  0.00  0.00    +0.000 C 
BRANCH  28  29
ATOM     29  C   UNL     1      54.363  -1.000  18.250  0.00  0.00    +0.000 A 
ATOM     30  C   UNL     1      55.068  -1.757  17.314  0.00  0.00    +0.000 A 
ATOM     31  C   UNL     1      55.048  -3.147  17.401  0.00  0.00    +0.000 A 
ATOM     32  C   UNL     1      54.338  -3.760  18.423  0.00  0.00    +0.000 A 
ATOM     33  C   UNL     1      53.665  -2.947  19.316  0.00  0.00    +0.000 A 
ATOM     34  N   UNL     1      53.658  -1.594  19.256  0.00  0.00    +0.000 NA
ENDBRANCH  28  29
BRANCH  28  35
ATOM     35  C   UNL     1      55.072   1.217  17.041  0.00  0.00    +0.000 C 
BRANCH  35  36
ATOM     36  O   UNL     1      55.208   2.633  17.167  0.00  0.00    +0.000 OA
ATOM     37  H   UNL     1      54.364   2.966  17.518  0.00  0.00    +0.000 HD
ENDBRANCH  35  36
ENDBRANCH  28  35
ENDBRANCH  26  28
ENDBRANCH  25  26
ENDBRANCH   4  25
TORSDOF 10
ENDMDL
MODEL 9
REMARK VINA RESULT:    -5.908      4.478      6.830
REMARK INTER + INTRA:         -11.246
REMARK INTER:                  -9.795
REMARK INTRA:                  -1.451
REMARK UNBOUND:                -2.058
REMARK  Name = 
REMARK  12 active torsions:
REMARK  status: ('A' for Active; 'I' for Inactive)
REMARK    1  A    between atoms: C_1  and  C_2
REMARK    2  A    between atoms: C_2  and  C_3
REMARK    3  A    between atoms: C_3  and  N_4
REMARK    4  A    between atoms: C_3  and  C_18
REMARK    5  A    between atoms: C_5  and  C_7
REMARK    6  A    between atoms: N_13  and  C_14
REMARK    7  A    between atoms: C_21  and  C_22
REMARK    8  A    between atoms: C_22  and  N_23
REMARK    9  A    between atoms: N_23  and  CA_24
REMARK   10  A    between atoms: CA_24  and  C_25
REMARK   11  A    between atoms: CA_24  and  C_27
REMARK   12  A    between atoms: C_25  and  O_26
REMARK                            x       y       z     vdW  Elec       q    Type
REMARK                         _______ _______ _______ _____ _____    ______ ____
ROOT
ATOM      1  C   UNL     1      49.128   8.409  12.568  0.00  0.00    +0.000 A 
ATOM      2  C   UNL     1      47.981   9.175  12.323  0.00  0.00    +0.000 A 
ATOM      3  C   UNL     1      46.733   8.556  12.175  0.00  0.00    +0.000 A 
ATOM      4  C   UNL     1      46.606   7.162  12.276  0.00  0.00    +0.000 A 
ATOM      5  C   UNL     1      47.742   6.402  12.567  0.00  0.00    +0.000 A 
ATOM      6  C   UNL     1      48.981   7.019  12.727  0.00  0.00    +0.000 A 
ENDROOT
BRANCH   1   7
ATOM      7  C   UNL     1      50.513   9.054  12.588  0.00  0.00    +0.000 C 
BRANCH   7   8
ATOM      8  N   UNL     1      51.012   9.140  11.231  0.00  0.00    +0.000 N 
ATOM      9  C   UNL     1      52.316   8.936  10.861  0.00  0.00    +0.000 C 
ATOM     10  O   UNL     1      53.177   8.546  11.642  0.00  0.00    +0.000 OA
ATOM     11  H   UNL     1      50.399   9.609  10.581  0.00  0.00    +0.000 HD
BRANCH   9  12
ATOM     12  C   UNL     1      52.602   9.151   9.435  0.00  0.00    +0.000 A 
ATOM     13  C   UNL     1      52.528  10.422   8.885  0.00  0.00    +0.000 A 
ATOM     14  S   UNL     1      53.033  10.486   7.254  0.00  0.00    +0.000 S 
ATOM     15  C   UNL     1      53.318   8.806   7.217  0.00  0.00    +0.000 A 
ATOM     16  N   UNL     1      53.810   8.199   6.107  0.00  0.00    +0.000 NA
ATOM     17  C   UNL     1      53.967   6.919   6.220  0.00  0.00    +0.000 A 
ATOM     18  N   UNL     1      53.648   6.170   7.333  0.00  0.00    +0.000 N 
ATOM     19  C   UNL     1      53.841   4.735   7.349  0.00  0.00    +0.000 C 
ATOM     20  C   UNL     1      53.118   6.757   8.474  0.00  0.00    +0.000 A 
ATOM     21  O   UNL     1      52.798   6.106   9.466  0.00  0.00    +0.000 OA
ATOM     22  C   UNL     1      52.995   8.203   8.416  0.00  0.00    +0.000 A 
ENDBRANCH   9  12
ENDBRANCH   7   8
BRANCH   7  24
ATOM     23  C   UNL     1      51.455  10.760  14.292  0.00  0.00    +0.000 C 
ATOM     24  C   UNL     1      50.389  10.439  13.261  0.00  0.00    +0.000 C 
ENDBRANCH   7  24
ENDBRANCH   1   7
BRANCH   4  25
ATOM     25  C   UNL     1      45.268   6.472  12.106  0.00  0.00    +0.000 C 
BRANCH  25  26
ATOM     26  N   UNL     1      45.385   5.025  12.273  0.00  0.00    +0.000 NA
ATOM     27  H   UNL     1      45.133   4.820  13.246  0.00  0.00    +0.000 HD
BRANCH  26  28
ATOM     28  CA  UNL     1      44.418   4.248  11.446  0.00  0.00    +0.000 C 
BRANCH  28  29
ATOM     29  C   UNL     1      44.986   3.777  10.101  0.00  0.00    +0.000 A 
ATOM     30  C   UNL     1      45.436   4.663   9.121  0.00  0.00    +0.000 A 
ATOM     31  C   UNL     1      45.949   4.163   7.927  0.00  0.00    +0.000 A 
ATOM     32  C   UNL     1      46.018   2.791   7.732  0.00  0.00    +0.000 A 
ATOM     33  C   UNL     1      45.556   1.973   8.746  0.00  0.00    +0.000 A 
ATOM     34  N   UNL     1      45.045   2.427   9.915  0.00  0.00    +0.000 NA
ENDBRANCH  28  29
BRANCH  28  35
ATOM     35  C   UNL     1      43.622   3.198  12.265  0.00  0.00    +0.000 C 
BRANCH  35  36
ATOM     36  O   UNL     1      42.715   2.410  11.493  0.00  0.00    +0.000 OA
ATOM     37  H   UNL     1      43.196   1.607  11.228  0.00  0.00    +0.000 HD
ENDBRANCH  35  36
ENDBRANCH  28  35
ENDBRANCH  26  28
ENDBRANCH  25  26
ENDBRANCH   4  25
TORSDOF 10
ENDMDL
