MODEL 1
REMARK VINA RESULT:    -8.908      0.000      0.000
REMARK INTER + INTRA:         -12.635
REMARK INTER:                 -11.512
REMARK INTRA:                  -1.123
REMARK UNBOUND:                -1.123
REMARK  Name = 
REMARK  5 active torsions:
REMARK  status: ('A' for Active; 'I' for Inactive)
REMARK    1  A    between atoms: C_2  and  C_4
REMARK    2  A    between atoms: C_7  and  N_8
REMARK    3  A    between atoms: N_8  and  C_9
REMARK    4  A    between atoms: C_9  and  C_10
REMARK    5  A    between atoms: C_15  and  C_16
REMARK                            x       y       z     vdW  Elec       q    Type
REMARK                         _______ _______ _______ _____ _____    ______ ____
ROOT
ATOM      1  C   UNL     1      44.730   4.870  12.143  0.00  0.00    +0.000 A 
ATOM      2  C   UNL     1      45.464   4.004  12.954  0.00  0.00    +0.000 A 
ATOM      3  C   UNL     1      46.577   4.470  13.647  0.00  0.00    +0.000 A 
ATOM      4  C   UNL     1      46.984   5.808  13.533  0.00  0.00    +0.000 A 
ATOM      5 CL   UNL     1      48.324   6.264  14.534  0.00  0.00    +0.000 Cl
ATOM      6  C   UNL     1      46.305   6.709  12.682  0.00  0.00    +0.000 A 
ATOM      7  C   UNL     1      45.158   6.205  12.016  0.00  0.00    +0.000 A 
ENDROOT
BRANCH   6   8
ATOM      8  C   UNL     1      46.739   8.106  12.403  0.00  0.00    +0.000 A 
ATOM      9  C   UNL     1      48.032   8.413  11.957  0.00  0.00    +0.000 A 
ATOM     10  C   UNL     1      48.362   9.726  11.661  0.00  0.00    +0.000 A 
ATOM     11  N   UNL     1      47.493  10.754  11.728  0.00  0.00    +0.000 NA
ATOM     12  C   UNL     1      46.248  10.466  12.126  0.00  0.00    +0.000 A 
ATOM     13  N   UNL     1      45.330  11.513  12.085  0.00  0.00    +0.000 N 
ATOM     14  C   UNL     1      45.843   9.185  12.485  0.00  0.00    +0.000 A 
ATOM     15  H   UNL     1      45.849  12.352  11.838  0.00  0.00    +0.000 HD
ATOM     16  H   UNL     1      44.820  11.614  12.952  0.00  0.00    +0.000 HD
ENDBRANCH   6   8
BRANCH   1  17
ATOM     17  C   UNL     1      43.563   4.350  11.337  0.00  0.00    +0.000 C 
BRANCH  17  18
ATOM     18  N   UNL     1      43.695   4.664   9.924  0.00  0.00    +0.000 N 
ATOM     19  H   UNL     1      42.815   4.859   9.451  0.00  0.00    +0.000 HD
BRANCH  18  23
ATOM     20  C   UNL     1      46.575   2.501   7.699  0.00  0.00    +0.000 A 
ATOM     21  C   UNL     1      45.666   1.813   8.502  0.00  0.00    +0.000 A 
ATOM     22  C   UNL     1      44.693   2.517   9.221  0.00  0.00    +0.000 A 
ATOM     23  C   UNL     1      44.581   3.913   9.138  0.00  0.00    +0.000 A 
ATOM     24  C   UNL     1      45.505   4.588   8.329  0.00  0.00    +0.000 A 
ATOM     25  C   UNL     1      46.497   3.894   7.621  0.00  0.00    +0.000 A 
BRANCH  20  27
ATOM     26  N   UNL     1      48.544   2.563   6.263  0.00  0.00    +0.000 N 
ATOM     27  C   UNL     1      47.665   1.795   6.973  0.00  0.00    +0.000 C 
ATOM     28  O   UNL     1      47.792   0.579   7.025  0.00  0.00    +0.000 OA
ATOM     29  H   UNL     1      49.329   2.077   5.845  0.00  0.00    +0.000 HD
ATOM     30  H   UNL     1      48.625   3.563   6.393  0.00  0.00    +0.000 HD
ENDBRANCH  20  27
ENDBRANCH  18  23
ENDBRANCH  17  18
ENDBRANCH   1  17
TORSDOF 5
ENDMDL
MODEL 2
REMARK VINA RESULT:    -8.848      2.900      4.104
REMARK INTER + INTRA:         -12.557
REMARK INTER:                 -12.126
REMARK INTRA:                  -0.431
REMARK UNBOUND:                -1.123
REMARK  Name = 
REMARK  5 active torsions:
REMARK  status: ('A' for Active; 'I' for Inactive)
REMARK    1  A    between atoms: C_2  and  C_4
REMARK    2  A    between atoms: C_7  and  N_8
REMARK    3  A    between atoms: N_8  and  C_9
REMARK    4  A    between atoms: C_9  and  C_10
REMARK    5  A    between atoms: C_15  and  C_16
REMARK                            x       y       z     vdW  Elec       q    Type
REMARK                         _______ _______ _______ _____ _____    ______ ____
ROOT
ATOM      1  C   UNL     1      45.377   5.345  12.026  0.00  0.00    +0.000 A 
ATOM      2  C   UNL     1      46.020   6.326  11.271  0.00  0.00    +0.000 A 
ATOM      3  C   UNL     1      47.209   6.891  11.725  0.00  0.00    +0.000 A 
ATOM      4  C   UNL     1      47.770   6.492  12.947  0.00  0.00    +0.000 A 
ATOM      5 CL   UNL     1      49.303   7.209  13.327  0.00  0.00    +0.000 Cl
ATOM      6  C   UNL     1      47.129   5.540  13.771  0.00  0.00    +0.000 A 
ATOM      7  C   UNL     1      45.937   4.966  13.261  0.00  0.00    +0.000 A 
ENDROOT
BRANCH   6   8
ATOM      8  C   UNL     1      47.586   5.151  15.135  0.00  0.00    +0.000 A 
ATOM      9  C   UNL     1      48.446   5.957  15.893  0.00  0.00    +0.000 A 
ATOM     10  C   UNL     1      48.793   5.569  17.178  0.00  0.00    +0.000 A 
ATOM     11  N   UNL     1      48.314   4.467  17.787  0.00  0.00    +0.000 NA
ATOM     12  C   UNL     1      47.470   3.706  17.080  0.00  0.00    +0.000 A 
ATOM     13  N   UNL     1      46.894   2.632  17.755  0.00  0.00    +0.000 N 
ATOM     14  C   UNL     1      47.102   3.996  15.770  0.00  0.00    +0.000 A 
ATOM     15  H   UNL     1      47.335   2.588  18.671  0.00  0.00    +0.000 HD
ATOM     16  H   UNL     1      46.979   1.764  17.243  0.00  0.00    +0.000 HD
ENDBRANCH   6   8
BRANCH   1  17
ATOM     17  C   UNL     1      44.052   4.780  11.569  0.00  0.00    +0.000 C 
BRANCH  17  18
ATOM     18  N   UNL     1      43.902   4.847  10.125  0.00  0.00    +0.000 N 
ATOM     19  H   UNL     1      42.945   4.972   9.806  0.00  0.00    +0.000 HD
BRANCH  18  23
ATOM     20  C   UNL     1      46.337   2.270   7.810  0.00  0.00    +0.000 A 
ATOM     21  C   UNL     1      45.488   1.732   8.776  0.00  0.00    +0.000 A 
ATOM     22  C   UNL     1      44.660   2.573   9.529  0.00  0.00    +0.000 A 
ATOM     23  C   UNL     1      44.634   3.960   9.321  0.00  0.00    +0.000 A 
ATOM     24  C   UNL     1      45.495   4.484   8.349  0.00  0.00    +0.000 A 
ATOM     25  C   UNL     1      46.344   3.652   7.603  0.00  0.00    +0.000 A 
BRANCH  20  27
ATOM     26  N   UNL     1      48.379   2.027   6.500  0.00  0.00    +0.000 N 
ATOM     27  C   UNL     1      47.279   1.418   7.037  0.00  0.00    +0.000 C 
ATOM     28  O   UNL     1      47.100   0.215   6.905  0.00  0.00    +0.000 OA
ATOM     29  H   UNL     1      49.054   1.420   6.051  0.00  0.00    +0.000 HD
ATOM     30  H   UNL     1      48.690   2.945   6.789  0.00  0.00    +0.000 HD
ENDBRANCH  20  27
ENDBRANCH  18  23
ENDBRANCH  17  18
ENDBRANCH   1  17
TORSDOF 5
ENDMDL
MODEL 3
REMARK VINA RESULT:    -8.121      2.293      2.998
REMARK INTER + INTRA:         -11.618
REMARK INTER:                 -10.582
REMARK INTRA:                  -1.036
REMARK UNBOUND:                -1.123
REMARK  Name = 
REMARK  5 active torsions:
REMARK  status: ('A' for Active; 'I' for Inactive)
REMARK    1  A    between atoms: C_2  and  C_4
REMARK    2  A    between atoms: C_7  and  N_8
REMARK    3  A    between atoms: N_8  and  C_9
REMARK    4  A    between atoms: C_9  and  C_10
REMARK    5  A    between atoms: C_15  and  C_16
REMARK                            x       y       z     vdW  Elec       q    Type
REMARK                         _______ _______ _______ _____ _____    ______ ____
ROOT
ATOM      1  C   UNL     1      44.551   5.031  11.624  0.00  0.00    +0.000 A 
ATOM      2  C   UNL     1      43.597   6.014  11.362  0.00  0.00    +0.000 A 
ATOM      3  C   UNL     1      43.934   7.361  11.466  0.00  0.00    +0.000 A 
ATOM      4  C   UNL     1      45.229   7.748  11.843  0.00  0.00    +0.000 A 
ATOM      5 CL   UNL     1      45.525   9.456  11.828  0.00  0.00    +0.000 Cl
ATOM      6  C   UNL     1      46.213   6.789  12.169  0.00  0.00    +0.000 A 
ATOM      7  C   UNL     1      45.841   5.428  12.024  0.00  0.00    +0.000 A 
ENDROOT
BRANCH   6   8
ATOM      8  C   UNL     1      47.569   7.108  12.698  0.00  0.00    +0.000 A 
ATOM      9  C   UNL     1      47.867   7.063  14.067  0.00  0.00    +0.000 A 
ATOM     10  C   UNL     1      49.161   7.317  14.496  0.00  0.00    +0.000 A 
ATOM     11  N   UNL     1      50.193   7.565  13.667  0.00  0.00    +0.000 NA
ATOM     12  C   UNL     1      49.924   7.581  12.357  0.00  0.00    +0.000 A 
ATOM     13  N   UNL     1      51.016   7.728  11.504  0.00  0.00    +0.000 N 
ATOM     14  C   UNL     1      48.647   7.382  11.842  0.00  0.00    +0.000 A 
ATOM     15  H   UNL     1      51.828   7.899  12.091  0.00  0.00    +0.000 HD
ATOM     16  H   UNL     1      50.874   8.457  10.817  0.00  0.00    +0.000 HD
ENDBRANCH   6   8
BRANCH   1  17
ATOM     17  C   UNL     1      44.169   3.569  11.579  0.00  0.00    +0.000 C 
BRANCH  17  18
ATOM     18  N   UNL     1      43.815   3.142  10.236  0.00  0.00    +0.000 N 
ATOM     19  H   UNL     1      43.132   2.388  10.199  0.00  0.00    +0.000 HD
BRANCH  18  23
ATOM     20  C   UNL     1      46.699   2.579   7.188  0.00  0.00    +0.000 A 
ATOM     21  C   UNL     1      46.154   3.846   7.395  0.00  0.00    +0.000 A 
ATOM     22  C   UNL     1      45.219   4.048   8.417  0.00  0.00    +0.000 A 
ATOM     23  C   UNL     1      44.826   3.008   9.273  0.00  0.00    +0.000 A 
ATOM     24  C   UNL     1      45.382   1.742   9.048  0.00  0.00    +0.000 A 
ATOM     25  C   UNL     1      46.304   1.524   8.014  0.00  0.00    +0.000 A 
BRANCH  20  27
ATOM     26  N   UNL     1      47.655   3.197   5.031  0.00  0.00    +0.000 N 
ATOM     27  C   UNL     1      47.643   2.309   6.071  0.00  0.00    +0.000 C 
ATOM     28  O   UNL     1      48.402   1.349   6.086  0.00  0.00    +0.000 OA
ATOM     29  H   UNL     1      48.362   3.047   4.321  0.00  0.00    +0.000 HD
ATOM     30  H   UNL     1      47.236   4.115   5.093  0.00  0.00    +0.000 HD
ENDBRANCH  20  27
ENDBRANCH  18  23
ENDBRANCH  17  18
ENDBRANCH   1  17
TORSDOF 5
ENDMDL
MODEL 4
REMARK VINA RESULT:    -7.776      2.983      4.390
REMARK INTER + INTRA:         -11.172
REMARK INTER:                 -10.281
REMARK INTRA:                  -0.892
REMARK UNBOUND:                -1.123
REMARK  Name = 
REMARK  5 active torsions:
REMARK  status: ('A' for Active; 'I' for Inactive)
REMARK    1  A    between atoms: C_2  and  C_4
REMARK    2  A    between atoms: C_7  and  N_8
REMARK    3  A    between atoms: N_8  and  C_9
REMARK    4  A    between atoms: C_9  and  C_10
REMARK    5  A    between atoms: C_15  and  C_16
REMARK                            x       y       z     vdW  Elec       q    Type
REMARK                         _______ _______ _______ _____ _____    ______ ____
ROOT
ATOM      1  C   UNL     1      45.334   5.570  11.987  0.00  0.00    +0.000 A 
ATOM      2  C   UNL     1      46.054   6.705  11.612  0.00  0.00    +0.000 A 
ATOM      3  C   UNL     1      47.192   7.078  12.323  0.00  0.00    +0.000 A 
ATOM      4  C   UNL     1      47.623   6.329  13.429  0.00  0.00    +0.000 A 
ATOM      5 CL   UNL     1      49.110   6.857  14.147  0.00  0.00    +0.000 Cl
ATOM      6  C   UNL     1      46.897   5.204  13.878  0.00  0.00    +0.000 A 
ATOM      7  C   UNL     1      45.761   4.838  13.111  0.00  0.00    +0.000 A 
ENDROOT
BRANCH   6   8
ATOM      8  C   UNL     1      47.208   4.428  15.111  0.00  0.00    +0.000 A 
ATOM      9  C   UNL     1      47.789   3.153  15.065  0.00  0.00    +0.000 A 
ATOM     10  C   UNL     1      48.107   2.501  16.247  0.00  0.00    +0.000 A 
ATOM     11  N   UNL     1      47.936   3.037  17.471  0.00  0.00    +0.000 NA
ATOM     12  C   UNL     1      47.409   4.266  17.524  0.00  0.00    +0.000 A 
ATOM     13  N   UNL     1      47.340   4.855  18.784  0.00  0.00    +0.000 N 
ATOM     14  C   UNL     1      47.020   4.974  16.391  0.00  0.00    +0.000 A 
ATOM     15  H   UNL     1      47.633   4.150  19.456  0.00  0.00    +0.000 HD
ATOM     16  H   UNL     1      46.421   5.225  18.988  0.00  0.00    +0.000 HD
ENDBRANCH   6   8
BRANCH   1  17
ATOM     17  C   UNL     1      44.062   5.203  11.259  0.00  0.00    +0.000 C 
BRANCH  17  18
ATOM     18  N   UNL     1      44.100   3.842  10.752  0.00  0.00    +0.000 N 
ATOM     19  H   UNL     1      44.065   3.122  11.470  0.00  0.00    +0.000 HD
BRANCH  18  23
ATOM     20  C   UNL     1      46.558   2.774   7.473  0.00  0.00    +0.000 A 
ATOM     21  C   UNL     1      46.300   4.120   7.731  0.00  0.00    +0.000 A 
ATOM     22  C   UNL     1      45.510   4.484   8.829  0.00  0.00    +0.000 A 
ATOM     23  C   UNL     1      44.984   3.527   9.708  0.00  0.00    +0.000 A 
ATOM     24  C   UNL     1      45.250   2.180   9.431  0.00  0.00    +0.000 A 
ATOM     25  C   UNL     1      46.023   1.803   8.323  0.00  0.00    +0.000 A 
BRANCH  20  27
ATOM     26  N   UNL     1      47.150   3.047   5.124  0.00  0.00    +0.000 N 
ATOM     27  C   UNL     1      47.335   2.343   6.281  0.00  0.00    +0.000 C 
ATOM     28  O   UNL     1      48.131   1.415   6.331  0.00  0.00    +0.000 OA
ATOM     29  H   UNL     1      47.749   2.798   4.346  0.00  0.00    +0.000 HD
ATOM     30  H   UNL     1      46.704   3.954   5.102  0.00  0.00    +0.000 HD
ENDBRANCH  20  27
ENDBRANCH  18  23
ENDBRANCH  17  18
ENDBRANCH   1  17
TORSDOF 5
ENDMDL
MODEL 5
REMARK VINA RESULT:    -6.825      5.637      8.230
REMARK INTER + INTRA:          -9.943
REMARK INTER:                  -9.147
REMARK INTRA:                  -0.797
REMARK UNBOUND:                -1.123
REMARK  Name = 
REMARK  5 active torsions:
REMARK  status: ('A' for Active; 'I' for Inactive)
REMARK    1  A    between atoms: C_2  and  C_4
REMARK    2  A    between atoms: C_7  and  N_8
REMARK    3  A    between atoms: N_8  and  C_9
REMARK    4  A    between atoms: C_9  and  C_10
REMARK    5  A    between atoms: C_15  and  C_16
REMARK                            x       y       z     vdW  Elec       q    Type
REMARK                         _______ _______ _______ _____ _____    ______ ____
ROOT
ATOM      1  C   UNL     1      47.817   5.107  15.684  0.00  0.00    +0.000 A 
ATOM      2  C   UNL     1      48.696   6.092  15.232  0.00  0.00    +0.000 A 
ATOM      3  C   UNL     1      48.456   6.743  14.025  0.00  0.00    +0.000 A 
ATOM      4  C   UNL     1      47.338   6.414  13.244  0.00  0.00    +0.000 A 
ATOM      5 CL   UNL     1      47.117   7.381  11.822  0.00  0.00    +0.000 Cl
ATOM      6  C   UNL     1      46.450   5.387  13.634  0.00  0.00    +0.000 A 
ATOM      7  C   UNL     1      46.711   4.768  14.883  0.00  0.00    +0.000 A 
ENDROOT
BRANCH   6   8
ATOM      8  C   UNL     1      45.314   4.887  12.810  0.00  0.00    +0.000 A 
ATOM      9  C   UNL     1      45.274   3.580  12.307  0.00  0.00    +0.000 A 
ATOM     10  C   UNL     1      44.166   3.153  11.592  0.00  0.00    +0.000 A 
ATOM     11  N   UNL     1      43.071   3.909  11.379  0.00  0.00    +0.000 NA
ATOM     12  C   UNL     1      43.088   5.150  11.881  0.00  0.00    +0.000 A 
ATOM     13  N   UNL     1      41.911   5.884  11.753  0.00  0.00    +0.000 N 
ATOM     14  C   UNL     1      44.175   5.674  12.572  0.00  0.00    +0.000 A 
ATOM     15  H   UNL     1      41.276   5.327  11.185  0.00  0.00    +0.000 HD
ATOM     16  H   UNL     1      42.070   6.804  11.366  0.00  0.00    +0.000 HD
ENDBRANCH   6   8
BRANCH   1  17
ATOM     17  C   UNL     1      48.113   4.352  16.959  0.00  0.00    +0.000 C 
BRANCH  17  18
ATOM     18  N   UNL     1      49.405   4.713  17.517  0.00  0.00    +0.000 N 
ATOM     19  H   UNL     1      49.782   5.593  17.173  0.00  0.00    +0.000 HD
BRANCH  18  23
ATOM     20  C   UNL     1      52.361   1.686  17.691  0.00  0.00    +0.000 A 
ATOM     21  C   UNL     1      52.691   2.993  18.049  0.00  0.00    +0.000 A 
ATOM     22  C   UNL     1      51.714   3.996  18.019  0.00  0.00    +0.000 A 
ATOM     23  C   UNL     1      50.386   3.721  17.664  0.00  0.00    +0.000 A 
ATOM     24  C   UNL     1      50.073   2.403  17.305  0.00  0.00    +0.000 A 
ATOM     25  C   UNL     1      51.048   1.395  17.311  0.00  0.00    +0.000 A 
BRANCH  20  27
ATOM     26  N   UNL     1      53.143  -0.517  18.384  0.00  0.00    +0.000 N 
ATOM     27  C   UNL     1      53.384   0.608  17.645  0.00  0.00    +0.000 C 
ATOM     28  O   UNL     1      54.390   0.703  16.955  0.00  0.00    +0.000 OA
ATOM     29  H   UNL     1      53.805  -1.276  18.275  0.00  0.00    +0.000 HD
ATOM     30  H   UNL     1      52.231  -0.738  18.759  0.00  0.00    +0.000 HD
ENDBRANCH  20  27
ENDBRANCH  18  23
ENDBRANCH  17  18
ENDBRANCH   1  17
TORSDOF 5
ENDMDL
MODEL 6
REMARK VINA RESULT:    -6.762      4.954      7.934
REMARK INTER + INTRA:          -9.861
REMARK INTER:                  -9.206
REMARK INTRA:                  -0.655
REMARK UNBOUND:                -1.123
REMARK  Name = 
REMARK  5 active torsions:
REMARK  status: ('A' for Active; 'I' for Inactive)
REMARK    1  A    between atoms: C_2  and  C_4
REMARK    2  A    between atoms: C_7  and  N_8
REMARK    3  A    between atoms: N_8  and  C_9
REMARK    4  A    between atoms: C_9  and  C_10
REMARK    5  A    between atoms: C_15  and  C_16
REMARK                            x       y       z     vdW  Elec       q    Type
REMARK                         _______ _______ _______ _____ _____    ______ ____
ROOT
ATOM      1  C   UNL     1      47.623   7.158  14.266  0.00  0.00    +0.000 A 
ATOM      2  C   UNL     1      47.470   8.495  13.896  0.00  0.00    +0.000 A 
ATOM      3  C   UNL     1      46.505   8.855  12.960  0.00  0.00    +0.000 A 
ATOM      4  C   UNL     1      45.682   7.884  12.370  0.00  0.00    +0.000 A 
ATOM      5 CL   UNL     1      44.460   8.496  11.303  0.00  0.00    +0.000 Cl
ATOM      6  C   UNL     1      45.835   6.512  12.674  0.00  0.00    +0.000 A 
ATOM      7  C   UNL     1      46.808   6.188  13.653  0.00  0.00    +0.000 A 
ENDROOT
BRANCH   6   8
ATOM      8  C   UNL     1      45.094   5.406  12.006  0.00  0.00    +0.000 A 
ATOM      9  C   UNL     1      44.309   4.492  12.723  0.00  0.00    +0.000 A 
ATOM     10  C   UNL     1      43.599   3.516  12.041  0.00  0.00    +0.000 A 
ATOM     11  N   UNL     1      43.570   3.405  10.699  0.00  0.00    +0.000 NA
ATOM     12  C   UNL     1      44.294   4.291  10.005  0.00  0.00    +0.000 A 
ATOM     13  N   UNL     1      44.170   4.239   8.618  0.00  0.00    +0.000 N 
ATOM     14  C   UNL     1      45.071   5.275  10.608  0.00  0.00    +0.000 A 
ATOM     15  H   UNL     1      43.595   3.428   8.404  0.00  0.00    +0.000 HD
ATOM     16  H   UNL     1      45.066   4.213   8.151  0.00  0.00    +0.000 HD
ENDBRANCH   6   8
BRANCH   1  17
ATOM     17  C   UNL     1      48.715   6.757  15.230  0.00  0.00    +0.000 C 
BRANCH  17  18
ATOM     18  N   UNL     1      48.246   5.796  16.214  0.00  0.00    +0.000 N 
ATOM     19  H   UNL     1      47.614   6.182  16.912  0.00  0.00    +0.000 HD
BRANCH  18  23
ATOM     20  C   UNL     1      50.992   2.883  17.592  0.00  0.00    +0.000 A 
ATOM     21  C   UNL     1      51.385   4.218  17.514  0.00  0.00    +0.000 A 
ATOM     22  C   UNL     1      50.477   5.193  17.084  0.00  0.00    +0.000 A 
ATOM     23  C   UNL     1      49.153   4.871  16.752  0.00  0.00    +0.000 A 
ATOM     24  C   UNL     1      48.776   3.524  16.833  0.00  0.00    +0.000 A 
ATOM     25  C   UNL     1      49.684   2.537  17.242  0.00  0.00    +0.000 A 
BRANCH  20  27
ATOM     26  N   UNL     1      51.487   0.522  17.948  0.00  0.00    +0.000 N 
ATOM     27  C   UNL     1      51.946   1.810  17.979  0.00  0.00    +0.000 C 
ATOM     28  O   UNL     1      53.104   2.057  18.288  0.00  0.00    +0.000 OA
ATOM     29  H   UNL     1      52.171  -0.202  18.131  0.00  0.00    +0.000 HD
ATOM     30  H   UNL     1      50.636   0.257  17.470  0.00  0.00    +0.000 HD
ENDBRANCH  20  27
ENDBRANCH  18  23
ENDBRANCH  17  18
ENDBRANCH   1  17
TORSDOF 5
ENDMDL
MODEL 7
REMARK VINA RESULT:    -6.543      4.160      6.168
REMARK INTER + INTRA:          -9.579
REMARK INTER:                  -8.550
REMARK INTRA:                  -1.029
REMARK UNBOUND:                -1.123
REMARK  Name = 
REMARK  5 active torsions:
REMARK  status: ('A' for Active; 'I' for Inactive)
REMARK    1  A    between atoms: C_2  and  C_4
REMARK    2  A    between atoms: C_7  and  N_8
REMARK    3  A    between atoms: N_8  and  C_9
REMARK    4  A    between atoms: C_9  and  C_10
REMARK    5  A    between atoms: C_15  and  C_16
REMARK                            x       y       z     vdW  Elec       q    Type
REMARK                         _______ _______ _______ _____ _____    ______ ____
ROOT
ATOM      1  C   UNL     1      48.327   7.999  13.968  0.00  0.00    +0.000 A 
ATOM      2  C   UNL     1      48.346   9.195  14.687  0.00  0.00    +0.000 A 
ATOM      3  C   UNL     1      48.608   9.185  16.054  0.00  0.00    +0.000 A 
ATOM      4  C   UNL     1      48.844   7.978  16.729  0.00  0.00    +0.000 A 
ATOM      5 CL   UNL     1      49.256   8.135  18.406  0.00  0.00    +0.000 Cl
ATOM      6  C   UNL     1      48.783   6.738  16.054  0.00  0.00    +0.000 A 
ATOM      7  C   UNL     1      48.543   6.792  14.657  0.00  0.00    +0.000 A 
ENDROOT
BRANCH   6   8
ATOM      8  C   UNL     1      48.895   5.406  16.711  0.00  0.00    +0.000 A 
ATOM      9  C   UNL     1      50.084   4.965  17.310  0.00  0.00    +0.000 A 
ATOM     10  C   UNL     1      50.114   3.738  17.954  0.00  0.00    +0.000 A 
ATOM     11  N   UNL     1      49.041   2.935  18.092  0.00  0.00    +0.000 NA
ATOM     12  C   UNL     1      47.894   3.360  17.549  0.00  0.00    +0.000 A 
ATOM     13  N   UNL     1      46.768   2.578  17.792  0.00  0.00    +0.000 N 
ATOM     14  C   UNL     1      47.785   4.556  16.846  0.00  0.00    +0.000 A 
ATOM     15  H   UNL     1      47.087   1.745  18.280  0.00  0.00    +0.000 HD
ATOM     16  H   UNL     1      46.259   2.360  16.946  0.00  0.00    +0.000 HD
ENDBRANCH   6   8
BRANCH   1  17
ATOM     17  C   UNL     1      47.976   8.002  12.498  0.00  0.00    +0.000 C 
BRANCH  17  18
ATOM     18  N   UNL     1      46.545   7.870  12.281  0.00  0.00    +0.000 N 
ATOM     19  H   UNL     1      45.969   8.348  12.969  0.00  0.00    +0.000 HD
BRANCH  18  23
ATOM     20  C   UNL     1      44.728   4.194  11.226  0.00  0.00    +0.000 A 
ATOM     21  C   UNL     1      45.264   5.008  10.230  0.00  0.00    +0.000 A 
ATOM     22  C   UNL     1      45.890   6.214  10.570  0.00  0.00    +0.000 A 
ATOM     23  C   UNL     1      46.025   6.623  11.905  0.00  0.00    +0.000 A 
ATOM     24  C   UNL     1      45.478   5.793  12.893  0.00  0.00    +0.000 A 
ATOM     25  C   UNL     1      44.830   4.594  12.561  0.00  0.00    +0.000 A 
BRANCH  20  27
ATOM     26  N   UNL     1      44.534   2.134   9.936  0.00  0.00    +0.000 N 
ATOM     27  C   UNL     1      43.997   2.940  10.901  0.00  0.00    +0.000 C 
ATOM     28  O   UNL     1      42.971   2.623  11.486  0.00  0.00    +0.000 OA
ATOM     29  H   UNL     1      44.073   1.245   9.787  0.00  0.00    +0.000 HD
ATOM     30  H   UNL     1      45.487   2.230   9.613  0.00  0.00    +0.000 HD
ENDBRANCH  20  27
ENDBRANCH  18  23
ENDBRANCH  17  18
ENDBRANCH   1  17
TORSDOF 5
ENDMDL
MODEL 8
REMARK VINA RESULT:    -6.401      4.008      5.873
REMARK INTER + INTRA:          -9.395
REMARK INTER:                  -8.515
REMARK INTRA:                  -0.880
REMARK UNBOUND:                -1.123
REMARK  Name = 
REMARK  5 active torsions:
REMARK  status: ('A' for Active; 'I' for Inactive)
REMARK    1  A    between atoms: C_2  and  C_4
REMARK    2  A    between atoms: C_7  and  N_8
REMARK    3  A    between atoms: N_8  and  C_9
REMARK    4  A    between atoms: C_9  and  C_10
REMARK    5  A    between atoms: C_15  and  C_16
REMARK                            x       y       z     vdW  Elec       q    Type
REMARK                         _______ _______ _______ _____ _____    ______ ____
ROOT
ATOM      1  C   UNL     1      49.099   7.542  13.027  0.00  0.00    +0.000 A 
ATOM      2  C   UNL     1      50.300   8.251  13.072  0.00  0.00    +0.000 A 
ATOM      3  C   UNL     1      51.058   8.269  14.239  0.00  0.00    +0.000 A 
ATOM      4  C   UNL     1      50.623   7.587  15.386  0.00  0.00    +0.000 A 
ATOM      5 CL   UNL     1      51.723   7.616  16.726  0.00  0.00    +0.000 Cl
ATOM      6  C   UNL     1      49.390   6.899  15.404  0.00  0.00    +0.000 A 
ATOM      7  C   UNL     1      48.660   6.879  14.188  0.00  0.00    +0.000 A 
ENDROOT
BRANCH   6   8
ATOM      8  C   UNL     1      48.793   6.256  16.608  0.00  0.00    +0.000 A 
ATOM      9  C   UNL     1      48.668   6.930  17.831  0.00  0.00    +0.000 A 
ATOM     10  C   UNL     1      48.054   6.299  18.902  0.00  0.00    +0.000 A 
ATOM     11  N   UNL     1      47.511   5.067  18.839  0.00  0.00    +0.000 NA
ATOM     12  C   UNL     1      47.600   4.428  17.668  0.00  0.00    +0.000 A 
ATOM     13  N   UNL     1      46.940   3.204  17.580  0.00  0.00    +0.000 N 
ATOM     14  C   UNL     1      48.238   4.967  16.555  0.00  0.00    +0.000 A 
ATOM     15  H   UNL     1      46.587   2.992  18.510  0.00  0.00    +0.000 HD
ATOM     16  H   UNL     1      47.533   2.471  17.215  0.00  0.00    +0.000 HD
ENDBRANCH   6   8
BRANCH   1  17
ATOM     17  C   UNL     1      48.242   7.577  11.783  0.00  0.00    +0.000 C 
BRANCH  17  18
ATOM     18  N   UNL     1      46.825   7.638  12.101  0.00  0.00    +0.000 N 
ATOM     19  H   UNL     1      46.611   8.093  12.985  0.00  0.00    +0.000 HD
BRANCH  18  23
ATOM     20  C   UNL     1      44.625   4.115  11.282  0.00  0.00    +0.000 A 
ATOM     21  C   UNL     1      44.753   4.556  12.598  0.00  0.00    +0.000 A 
ATOM     22  C   UNL     1      45.457   5.734  12.877  0.00  0.00    +0.000 A 
ATOM     23  C   UNL     1      46.022   6.514  11.858  0.00  0.00    +0.000 A 
ATOM     24  C   UNL     1      45.885   6.054  10.541  0.00  0.00    +0.000 A 
ATOM     25  C   UNL     1      45.200   4.864  10.253  0.00  0.00    +0.000 A 
BRANCH  20  27
ATOM     26  N   UNL     1      44.468   2.090   9.932  0.00  0.00    +0.000 N 
ATOM     27  C   UNL     1      43.943   2.835  10.951  0.00  0.00    +0.000 C 
ATOM     28  O   UNL     1      42.968   2.443  11.578  0.00  0.00    +0.000 OA
ATOM     29  H   UNL     1      44.046   1.183   9.776  0.00  0.00    +0.000 HD
ATOM     30  H   UNL     1      45.396   2.248   9.563  0.00  0.00    +0.000 HD
ENDBRANCH  20  27
ENDBRANCH  18  23
ENDBRANCH  17  18
ENDBRANCH   1  17
TORSDOF 5
ENDMDL
MODEL 9
REMARK VINA RESULT:    -6.205      4.866      8.478
REMARK INTER + INTRA:          -9.142
REMARK INTER:                  -8.229
REMARK INTRA:                  -0.913
REMARK UNBOUND:                -1.123
REMARK  Name = 
REMARK  5 active torsions:
REMARK  status: ('A' for Active; 'I' for Inactive)
REMARK    1  A    between atoms: C_2  and  C_4
REMARK    2  A    between atoms: C_7  and  N_8
REMARK    3  A    between atoms: N_8  and  C_9
REMARK    4  A    between atoms: C_9  and  C_10
REMARK    5  A    between atoms: C_15  and  C_16
REMARK                            x       y       z     vdW  Elec       q    Type
REMARK                         _______ _______ _______ _____ _____    ______ ____
ROOT
ATOM      1  C   UNL     1      47.449   7.361  13.275  0.00  0.00    +0.000 A 
ATOM      2  C   UNL     1      46.924   8.622  12.990  0.00  0.00    +0.000 A 
ATOM      3  C   UNL     1      45.726   8.739  12.291  0.00  0.00    +0.000 A 
ATOM      4  C   UNL     1      45.036   7.598  11.856  0.00  0.00    +0.000 A 
ATOM      5 CL   UNL     1      43.510   7.901  11.091  0.00  0.00    +0.000 Cl
ATOM      6  C   UNL     1      45.554   6.302  12.075  0.00  0.00    +0.000 A 
ATOM      7  C   UNL     1      46.761   6.222  12.816  0.00  0.00    +0.000 A 
ENDROOT
BRANCH   6   8
ATOM      8  C   UNL     1      44.956   5.046  11.542  0.00  0.00    +0.000 A 
ATOM      9  C   UNL     1      44.211   4.172  12.347  0.00  0.00    +0.000 A 
ATOM     10  C   UNL     1      43.633   3.045  11.782  0.00  0.00    +0.000 A 
ATOM     11  N   UNL     1      43.697   2.744  10.471  0.00  0.00    +0.000 NA
ATOM     12  C   UNL     1      44.382   3.587   9.690  0.00  0.00    +0.000 A 
ATOM     13  N   UNL     1      44.349   3.328   8.322  0.00  0.00    +0.000 N 
ATOM     14  C   UNL     1      45.031   4.716  10.179  0.00  0.00    +0.000 A 
ATOM     15  H   UNL     1      43.861   2.443   8.201  0.00  0.00    +0.000 HD
ATOM     16  H   UNL     1      45.271   3.321   7.908  0.00  0.00    +0.000 HD
ENDBRANCH   6   8
BRANCH   1  17
ATOM     17  C   UNL     1      48.783   7.233  13.973  0.00  0.00    +0.000 C 
BRANCH  17  18
ATOM     18  N   UNL     1      48.781   7.884  15.272  0.00  0.00    +0.000 N 
ATOM     19  H   UNL     1      49.454   8.641  15.366  0.00  0.00    +0.000 HD
BRANCH  18  23
ATOM     20  C   UNL     1      48.733   5.420  18.715  0.00  0.00    +0.000 A 
ATOM     21  C   UNL     1      48.700   6.806  18.860  0.00  0.00    +0.000 A 
ATOM     22  C   UNL     1      48.689   7.629  17.727  0.00  0.00    +0.000 A 
ATOM     23  C   UNL     1      48.681   7.097  16.430  0.00  0.00    +0.000 A 
ATOM     24  C   UNL     1      48.718   5.702  16.303  0.00  0.00    +0.000 A 
ATOM     25  C   UNL     1      48.750   4.869  17.431  0.00  0.00    +0.000 A 
BRANCH  20  27
ATOM     26  N   UNL     1      48.267   3.268  19.763  0.00  0.00    +0.000 N 
ATOM     27  C   UNL     1      48.813   4.514  19.892  0.00  0.00    +0.000 C 
ATOM     28  O   UNL     1      49.367   4.853  20.929  0.00  0.00    +0.000 OA
ATOM     29  H   UNL     1      48.405   2.634  20.541  0.00  0.00    +0.000 HD
ATOM     30  H   UNL     1      48.029   2.867  18.865  0.00  0.00    +0.000 HD
ENDBRANCH  20  27
ENDBRANCH  18  23
ENDBRANCH  17  18
ENDBRANCH   1  17
TORSDOF 5
ENDMDL
