MODEL 1
REMARK VINA RESULT:    -6.268      0.000      0.000
REMARK INTER + INTRA:          -8.130
REMARK INTER:                  -8.100
REMARK INTRA:                  -0.030
REMARK UNBOUND:                -0.030
REMARK  Name = 
REMARK  7 active torsions:
REMARK  status: ('A' for Active; 'I' for Inactive)
REMARK    1  A    between atoms: C_1  and  C_2
REMARK    2  A    between atoms: C_2  and  C_3
REMARK    3  A    between atoms: C_2  and  N_4
REMARK    4  A    between atoms: C_5  and  C_7
REMARK    5  A    between atoms: N_10  and  C_11
REMARK    6  A    between atoms: C_12  and  C_13
REMARK    7  A    between atoms: C_16  and  C_17
REMARK                            x       y       z     vdW  Elec       q    Type
REMARK                         _______ _______ _______ _____ _____    ______ ____
ROOT
ATOM      1  C   UNL     1      43.618   4.213  11.809  0.00  0.00    +0.000 C 
ATOM      2  C   UNL     1      44.027   5.589  12.355  0.00  0.00    +0.000 C 
ATOM      3  C   UNL     1      45.547   5.728  12.413  0.00  0.00    +0.000 C 
ATOM      4  N   UNL     1      46.093   4.654  13.257  0.00  0.00    +0.000 N 
ATOM      5  C   UNL     1      45.825   3.309  12.725  0.00  0.00    +0.000 C 
ATOM      6  C   UNL     1      44.313   3.101  12.618  0.00  0.00    +0.000 C 
ENDROOT
BRANCH   1   8
ATOM      7  N   UNL     1      44.713   3.046   9.949  0.00  0.00    +0.000 N 
ATOM      8  C   UNL     1      43.910   4.113  10.309  0.00  0.00    +0.000 C 
ATOM      9  O   UNL     1      43.459   4.906   9.490  0.00  0.00    +0.000 OA
ATOM     10  H   UNL     1      45.213   2.544  10.672  0.00  0.00    +0.000 HD
BRANCH   7  12
ATOM     11  C   UNL     1      45.977   3.912   8.017  0.00  0.00    +0.000 C 
ATOM     12  C   UNL     1      45.082   2.800   8.558  0.00  0.00    +0.000 C 
ATOM     13  C   UNL     1      45.768   1.445   8.415  0.00  0.00    +0.000 C 
ENDBRANCH   7  12
ENDBRANCH   1   8
BRANCH   4  14
ATOM     14  C   UNL     1      46.825   4.923  14.402  0.00  0.00    +0.000 C 
ATOM     15  C   UNL     1      47.157   4.099  15.406  0.00  0.00    +0.000 C 
BRANCH  15  16
ATOM     16  C   UNL     1      47.942   4.480  16.580  0.00  0.00    +0.000 A 
ATOM     17  C   UNL     1      48.675   5.648  16.703  0.00  0.00    +0.000 A 
ATOM     18  N   UNL     1      49.369   6.003  17.806  0.00  0.00    +0.000 NA
ATOM     19  C   UNL     1      49.300   5.129  18.840  0.00  0.00    +0.000 A 
ATOM     20  N   UNL     1      48.602   3.974  18.851  0.00  0.00    +0.000 NA
ATOM     21  C   UNL     1      47.940   3.685  17.715  0.00  0.00    +0.000 A 
BRANCH  19  22
ATOM     22  C   UNL     1      50.072   5.493  20.084  0.00  0.00    +0.000 C 
ATOM     23  N   UNL     1      50.555   4.433  20.817  0.00  0.00    +0.000 N 
ATOM     24  O   UNL     1      50.275   6.645  20.455  0.00  0.00    +0.000 OA
ATOM     25  H   UNL     1      50.383   3.483  20.510  0.00  0.00    +0.000 HD
ATOM     26  H   UNL     1      51.074   4.619  21.661  0.00  0.00    +0.000 HD
ENDBRANCH  19  22
ENDBRANCH  15  16
ENDBRANCH   4  14
TORSDOF 5
ENDMDL
MODEL 2
REMARK VINA RESULT:    -5.919      1.788      9.493
REMARK INTER + INTRA:          -7.678
REMARK INTER:                  -7.286
REMARK INTRA:                  -0.392
REMARK UNBOUND:                -0.030
REMARK  Name = 
REMARK  7 active torsions:
REMARK  status: ('A' for Active; 'I' for Inactive)
REMARK    1  A    between atoms: C_1  and  C_2
REMARK    2  A    between atoms: C_2  and  C_3
REMARK    3  A    between atoms: C_2  and  N_4
REMARK    4  A    between atoms: C_5  and  C_7
REMARK    5  A    between atoms: N_10  and  C_11
REMARK    6  A    between atoms: C_12  and  C_13
REMARK    7  A    between atoms: C_16  and  C_17
REMARK                            x       y       z     vdW  Elec       q    Type
REMARK                         _______ _______ _______ _____ _____    ______ ____
ROOT
ATOM      1  C   UNL     1      49.767   4.378  18.415  0.00  0.00    +0.000 C 
ATOM      2  C   UNL     1      49.860   5.245  17.151  0.00  0.00    +0.000 C 
ATOM      3  C   UNL     1      48.474   5.684  16.680  0.00  0.00    +0.000 C 
ATOM      4  N   UNL     1      47.656   4.490  16.427  0.00  0.00    +0.000 N 
ATOM      5  C   UNL     1      47.439   3.671  17.630  0.00  0.00    +0.000 C 
ATOM      6  C   UNL     1      48.793   3.208  18.174  0.00  0.00    +0.000 C 
ENDROOT
BRANCH   1   8
ATOM      7  N   UNL     1      49.616   6.579  19.490  0.00  0.00    +0.000 N 
ATOM      8  C   UNL     1      49.374   5.224  19.629  0.00  0.00    +0.000 C 
ATOM      9  O   UNL     1      48.873   4.744  20.640  0.00  0.00    +0.000 OA
ATOM     10  H   UNL     1      50.204   6.894  18.728  0.00  0.00    +0.000 HD
BRANCH   7  12
ATOM     11  C   UNL     1      50.493   8.406  20.894  0.00  0.00    +0.000 C 
ATOM     12  C   UNL     1      49.293   7.528  20.551  0.00  0.00    +0.000 C 
ATOM     13  C   UNL     1      48.097   8.389  20.155  0.00  0.00    +0.000 C 
ENDBRANCH   7  12
ENDBRANCH   1   8
BRANCH   4  14
ATOM     14  C   UNL     1      47.117   4.223  15.179  0.00  0.00    +0.000 C 
ATOM     15  C   UNL     1      46.509   5.058  14.324  0.00  0.00    +0.000 C 
BRANCH  15  16
ATOM     16  C   UNL     1      45.971   4.678  13.018  0.00  0.00    +0.000 A 
ATOM     17  C   UNL     1      45.852   5.525  11.929  0.00  0.00    +0.000 A 
ATOM     18  N   UNL     1      45.386   5.152  10.718  0.00  0.00    +0.000 NA
ATOM     19  C   UNL     1      45.036   3.848  10.608  0.00  0.00    +0.000 A 
ATOM     20  N   UNL     1      45.128   2.922  11.585  0.00  0.00    +0.000 NA
ATOM     21  C   UNL     1      45.597   3.369  12.765  0.00  0.00    +0.000 A 
BRANCH  19  22
ATOM     22  C   UNL     1      44.502   3.403   9.268  0.00  0.00    +0.000 C 
ATOM     23  N   UNL     1      44.052   4.409   8.443  0.00  0.00    +0.000 N 
ATOM     24  O   UNL     1      44.451   2.234   8.902  0.00  0.00    +0.000 OA
ATOM     25  H   UNL     1      44.093   5.374   8.749  0.00  0.00    +0.000 HD
ATOM     26  H   UNL     1      43.679   4.167   7.538  0.00  0.00    +0.000 HD
ENDBRANCH  19  22
ENDBRANCH  15  16
ENDBRANCH   4  14
TORSDOF 5
ENDMDL
MODEL 3
REMARK VINA RESULT:    -5.621      1.639      9.485
REMARK INTER + INTRA:          -7.293
REMARK INTER:                  -6.760
REMARK INTRA:                  -0.534
REMARK UNBOUND:                -0.030
REMARK  Name = 
REMARK  7 active torsions:
REMARK  status: ('A' for Active; 'I' for Inactive)
REMARK    1  A    between atoms: C_1  and  C_2
REMARK    2  A    between atoms: C_2  and  C_3
REMARK    3  A    between atoms: C_2  and  N_4
REMARK    4  A    between atoms: C_5  and  C_7
REMARK    5  A    between atoms: N_10  and  C_11
REMARK    6  A    between atoms: C_12  and  C_13
REMARK    7  A    between atoms: C_16  and  C_17
REMARK                            x       y       z     vdW  Elec       q    Type
REMARK                         _______ _______ _______ _____ _____    ______ ____
ROOT
ATOM      1  C   UNL     1      48.087   6.391  18.878  0.00  0.00    +0.000 C 
ATOM      2  C   UNL     1      46.864   5.496  18.629  0.00  0.00    +0.000 C 
ATOM      3  C   UNL     1      47.233   4.286  17.772  0.00  0.00    +0.000 C 
ATOM      4  N   UNL     1      47.794   4.757  16.498  0.00  0.00    +0.000 N 
ATOM      5  C   UNL     1      49.033   5.534  16.664  0.00  0.00    +0.000 C 
ATOM      6  C   UNL     1      48.746   6.759  17.534  0.00  0.00    +0.000 C 
ENDROOT
BRANCH   1   8
ATOM      7  N   UNL     1      50.383   6.119  19.698  0.00  0.00    +0.000 N 
ATOM      8  C   UNL     1      49.067   5.721  19.844  0.00  0.00    +0.000 C 
ATOM      9  O   UNL     1      48.713   4.906  20.690  0.00  0.00    +0.000 OA
ATOM     10  H   UNL     1      50.648   6.636  18.869  0.00  0.00    +0.000 HD
BRANCH   7  12
ATOM     11  C   UNL     1      52.274   4.540  19.802  0.00  0.00    +0.000 C 
ATOM     12  C   UNL     1      51.444   5.583  20.546  0.00  0.00    +0.000 C 
ATOM     13  C   UNL     1      52.337   6.706  21.064  0.00  0.00    +0.000 C 
ENDBRANCH   7  12
ENDBRANCH   1   8
BRANCH   4  14
ATOM     14  C   UNL     1      47.216   4.438  15.280  0.00  0.00    +0.000 C 
ATOM     15  C   UNL     1      46.775   5.256  14.314  0.00  0.00    +0.000 C 
BRANCH  15  16
ATOM     16  C   UNL     1      46.177   4.819  13.052  0.00  0.00    +0.000 A 
ATOM     17  C   UNL     1      45.992   5.622  11.938  0.00  0.00    +0.000 A 
ATOM     18  N   UNL     1      45.470   5.196  10.768  0.00  0.00    +0.000 NA
ATOM     19  C   UNL     1      45.132   3.885  10.727  0.00  0.00    +0.000 A 
ATOM     20  N   UNL     1      45.285   2.999  11.733  0.00  0.00    +0.000 NA
ATOM     21  C   UNL     1      45.807   3.497  12.869  0.00  0.00    +0.000 A 
BRANCH  19  22
ATOM     22  C   UNL     1      44.537   3.382   9.434  0.00  0.00    +0.000 C 
ATOM     23  N   UNL     1      44.413   2.015   9.328  0.00  0.00    +0.000 N 
ATOM     24  O   UNL     1      44.178   4.108   8.514  0.00  0.00    +0.000 OA
ATOM     25  H   UNL     1      44.714   1.417  10.089  0.00  0.00    +0.000 HD
ATOM     26  H   UNL     1      44.027   1.623   8.483  0.00  0.00    +0.000 HD
ENDBRANCH  19  22
ENDBRANCH  15  16
ENDBRANCH   4  14
TORSDOF 5
ENDMDL
MODEL 4
REMARK VINA RESULT:    -5.449      2.422      2.958
REMARK INTER + INTRA:          -7.071
REMARK INTER:                  -7.292
REMARK INTRA:                   0.221
REMARK UNBOUND:                -0.030
REMARK  Name = 
REMARK  7 active torsions:
REMARK  status: ('A' for Active; 'I' for Inactive)
REMARK    1  A    between atoms: C_1  and  C_2
REMARK    2  A    between atoms: C_2  and  C_3
REMARK    3  A    between atoms: C_2  and  N_4
REMARK    4  A    between atoms: C_5  and  C_7
REMARK    5  A    between atoms: N_10  and  C_11
REMARK    6  A    between atoms: C_12  and  C_13
REMARK    7  A    between atoms: C_16  and  C_17
REMARK                            x       y       z     vdW  Elec       q    Type
REMARK                         _______ _______ _______ _____ _____    ______ ____
ROOT
ATOM      1  C   UNL     1      43.921   5.549  11.303  0.00  0.00    +0.000 C 
ATOM      2  C   UNL     1      45.083   6.508  11.002  0.00  0.00    +0.000 C 
ATOM      3  C   UNL     1      46.412   5.931  11.485  0.00  0.00    +0.000 C 
ATOM      4  N   UNL     1      46.323   5.667  12.928  0.00  0.00    +0.000 N 
ATOM      5  C   UNL     1      45.296   4.671  13.271  0.00  0.00    +0.000 C 
ATOM      6  C   UNL     1      43.930   5.172  12.798  0.00  0.00    +0.000 C 
ENDROOT
BRANCH   1   8
ATOM      7  N   UNL     1      44.785   4.466   9.278  0.00  0.00    +0.000 N 
ATOM      8  C   UNL     1      43.978   4.320  10.392  0.00  0.00    +0.000 C 
ATOM      9  O   UNL     1      43.368   3.284  10.634  0.00  0.00    +0.000 OA
ATOM     10  H   UNL     1      45.103   5.393   9.023  0.00  0.00    +0.000 HD
BRANCH   7  12
ATOM     11  C   UNL     1      46.027   3.732   7.278  0.00  0.00    +0.000 C 
ATOM     12  C   UNL     1      44.956   3.387   8.310  0.00  0.00    +0.000 C 
ATOM     13  C   UNL     1      45.299   2.079   9.017  0.00  0.00    +0.000 C 
ENDBRANCH   7  12
ENDBRANCH   1   8
BRANCH   4  14
ATOM     14  C   UNL     1      47.171   6.276  13.838  0.00  0.00    +0.000 C 
ATOM     15  C   UNL     1      48.452   6.644  13.684  0.00  0.00    +0.000 C 
BRANCH  15  16
ATOM     16  C   UNL     1      49.269   7.289  14.712  0.00  0.00    +0.000 A 
ATOM     17  C   UNL     1      49.930   8.497  14.562  0.00  0.00    +0.000 A 
ATOM     18  N   UNL     1      50.654   9.097  15.531  0.00  0.00    +0.000 NA
ATOM     19  C   UNL     1      50.695   8.440  16.715  0.00  0.00    +0.000 A 
ATOM     20  N   UNL     1      50.076   7.273  16.992  0.00  0.00    +0.000 NA
ATOM     21  C   UNL     1      49.378   6.733  15.976  0.00  0.00    +0.000 A 
BRANCH  19  22
ATOM     22  C   UNL     1      51.505   9.081  17.815  0.00  0.00    +0.000 C 
ATOM     23  N   UNL     1      52.761   9.513  17.456  0.00  0.00    +0.000 N 
ATOM     24  O   UNL     1      51.108   9.224  18.967  0.00  0.00    +0.000 OA
ATOM     25  H   UNL     1      53.087   9.391  16.504  0.00  0.00    +0.000 HD
ATOM     26  H   UNL     1      53.348   9.945  18.154  0.00  0.00    +0.000 HD
ENDBRANCH  19  22
ENDBRANCH  15  16
ENDBRANCH   4  14
TORSDOF 5
ENDMDL
MODEL 5
REMARK VINA RESULT:    -5.226      2.133      9.766
REMARK INTER + INTRA:          -6.783
REMARK INTER:                  -6.358
REMARK INTRA:                  -0.425
REMARK UNBOUND:                -0.030
REMARK  Name = 
REMARK  7 active torsions:
REMARK  status: ('A' for Active; 'I' for Inactive)
REMARK    1  A    between atoms: C_1  and  C_2
REMARK    2  A    between atoms: C_2  and  C_3
REMARK    3  A    between atoms: C_2  and  N_4
REMARK    4  A    between atoms: C_5  and  C_7
REMARK    5  A    between atoms: N_10  and  C_11
REMARK    6  A    between atoms: C_12  and  C_13
REMARK    7  A    between atoms: C_16  and  C_17
REMARK                            x       y       z     vdW  Elec       q    Type
REMARK                         _______ _______ _______ _____ _____    ______ ____
ROOT
ATOM      1  C   UNL     1      50.173   5.480  19.741  0.00  0.00    +0.000 C 
ATOM      2  C   UNL     1      50.648   4.797  18.450  0.00  0.00    +0.000 C 
ATOM      3  C   UNL     1      50.157   5.552  17.216  0.00  0.00    +0.000 C 
ATOM      4  N   UNL     1      48.690   5.622  17.252  0.00  0.00    +0.000 N 
ATOM      5  C   UNL     1      48.175   6.363  18.414  0.00  0.00    +0.000 C 
ATOM      6  C   UNL     1      48.645   5.674  19.698  0.00  0.00    +0.000 C 
ENDROOT
BRANCH   1   8
ATOM      7  N   UNL     1      52.251   6.777  19.585  0.00  0.00    +0.000 N 
ATOM      8  C   UNL     1      50.922   6.796  19.969  0.00  0.00    +0.000 C 
ATOM      9  O   UNL     1      50.386   7.793  20.441  0.00  0.00    +0.000 OA
ATOM     10  H   UNL     1      52.690   5.886  19.388  0.00  0.00    +0.000 HD
BRANCH   7  12
ATOM     11  C   UNL     1      53.811   7.964  21.080  0.00  0.00    +0.000 C 
ATOM     12  C   UNL     1      53.106   7.952  19.726  0.00  0.00    +0.000 C 
ATOM     13  C   UNL     1      54.126   8.013  18.593  0.00  0.00    +0.000 C 
ENDBRANCH   7  12
ENDBRANCH   1   8
BRANCH   4  14
ATOM     14  C   UNL     1      47.905   5.080  16.247  0.00  0.00    +0.000 C 
ATOM     15  C   UNL     1      47.720   5.515  14.992  0.00  0.00    +0.000 C 
BRANCH  15  16
ATOM     16  C   UNL     1      46.867   4.866  13.996  0.00  0.00    +0.000 A 
ATOM     17  C   UNL     1      46.784   3.499  13.788  0.00  0.00    +0.000 A 
ATOM     18  N   UNL     1      45.967   2.911  12.888  0.00  0.00    +0.000 NA
ATOM     19  C   UNL     1      45.186   3.758  12.174  0.00  0.00    +0.000 A 
ATOM     20  N   UNL     1      45.158   5.101  12.302  0.00  0.00    +0.000 NA
ATOM     21  C   UNL     1      46.002   5.615  13.215  0.00  0.00    +0.000 A 
BRANCH  19  22
ATOM     22  C   UNL     1      44.268   3.131  11.153  0.00  0.00    +0.000 C 
ATOM     23  N   UNL     1      44.892   2.482  10.112  0.00  0.00    +0.000 N 
ATOM     24  O   UNL     1      43.044   3.177  11.209  0.00  0.00    +0.000 OA
ATOM     25  H   UNL     1      45.903   2.448  10.067  0.00  0.00    +0.000 HD
ATOM     26  H   UNL     1      44.326   2.050   9.397  0.00  0.00    +0.000 HD
ENDBRANCH  19  22
ENDBRANCH  15  16
ENDBRANCH   4  14
TORSDOF 5
ENDMDL
MODEL 6
REMARK VINA RESULT:    -5.151      2.964      9.750
REMARK INTER + INTRA:          -6.686
REMARK INTER:                  -6.152
REMARK INTRA:                  -0.534
REMARK UNBOUND:                -0.030
REMARK  Name = 
REMARK  7 active torsions:
REMARK  status: ('A' for Active; 'I' for Inactive)
REMARK    1  A    between atoms: C_1  and  C_2
REMARK    2  A    between atoms: C_2  and  C_3
REMARK    3  A    between atoms: C_2  and  N_4
REMARK    4  A    between atoms: C_5  and  C_7
REMARK    5  A    between atoms: N_10  and  C_11
REMARK    6  A    between atoms: C_12  and  C_13
REMARK    7  A    between atoms: C_16  and  C_17
REMARK                            x       y       z     vdW  Elec       q    Type
REMARK                         _______ _______ _______ _____ _____    ______ ____
ROOT
ATOM      1  C   UNL     1      51.805   6.633  16.973  0.00  0.00    +0.000 C 
ATOM      2  C   UNL     1      51.310   7.338  15.701  0.00  0.00    +0.000 C 
ATOM      3  C   UNL     1      49.815   7.643  15.787  0.00  0.00    +0.000 C 
ATOM      4  N   UNL     1      49.084   6.386  15.997  0.00  0.00    +0.000 N 
ATOM      5  C   UNL     1      49.437   5.715  17.258  0.00  0.00    +0.000 C 
ATOM      6  C   UNL     1      50.933   5.394  17.255  0.00  0.00    +0.000 C 
ENDROOT
BRANCH   1   8
ATOM      7  N   UNL     1      52.327   8.863  17.855  0.00  0.00    +0.000 N 
ATOM      8  C   UNL     1      51.840   7.604  18.157  0.00  0.00    +0.000 C 
ATOM      9  O   UNL     1      51.456   7.297  19.280  0.00  0.00    +0.000 OA
ATOM     10  H   UNL     1      52.809   9.002  16.975  0.00  0.00    +0.000 HD
BRANCH   7  12
ATOM     11  C   UNL     1      53.874  10.287  19.143  0.00  0.00    +0.000 C 
ATOM     12  C   UNL     1      52.421   9.911  18.867  0.00  0.00    +0.000 C 
ATOM     13  C   UNL     1      51.622  11.140  18.442  0.00  0.00    +0.000 C 
ENDBRANCH   7  12
ENDBRANCH   1   8
BRANCH   4  14
ATOM     14  C   UNL     1      48.127   5.937  15.102  0.00  0.00    +0.000 C 
ATOM     15  C   UNL     1      47.996   6.212  13.796  0.00  0.00    +0.000 C 
BRANCH  15  16
ATOM     16  C   UNL     1      46.945   5.682  12.928  0.00  0.00    +0.000 A 
ATOM     17  C   UNL     1      46.532   6.255  11.736  0.00  0.00    +0.000 A 
ATOM     18  N   UNL     1      45.583   5.736  10.927  0.00  0.00    +0.000 NA
ATOM     19  C   UNL     1      45.038   4.569  11.347  0.00  0.00    +0.000 A 
ATOM     20  N   UNL     1      45.371   3.902  12.472  0.00  0.00    +0.000 NA
ATOM     21  C   UNL     1      46.320   4.483  13.230  0.00  0.00    +0.000 A 
BRANCH  19  22
ATOM     22  C   UNL     1      43.968   3.969  10.468  0.00  0.00    +0.000 C 
ATOM     23  N   UNL     1      43.919   4.448   9.179  0.00  0.00    +0.000 N 
ATOM     24  O   UNL     1      43.173   3.113  10.840  0.00  0.00    +0.000 OA
ATOM     25  H   UNL     1      44.575   5.158   8.875  0.00  0.00    +0.000 HD
ATOM     26  H   UNL     1      43.219   4.086   8.549  0.00  0.00    +0.000 HD
ENDBRANCH  19  22
ENDBRANCH  15  16
ENDBRANCH   4  14
TORSDOF 5
ENDMDL
MODEL 7
REMARK VINA RESULT:    -5.086      4.058      9.502
REMARK INTER + INTRA:          -6.603
REMARK INTER:                  -6.093
REMARK INTRA:                  -0.510
REMARK UNBOUND:                -0.030
REMARK  Name = 
REMARK  7 active torsions:
REMARK  status: ('A' for Active; 'I' for Inactive)
REMARK    1  A    between atoms: C_1  and  C_2
REMARK    2  A    between atoms: C_2  and  C_3
REMARK    3  A    between atoms: C_2  and  N_4
REMARK    4  A    between atoms: C_5  and  C_7
REMARK    5  A    between atoms: N_10  and  C_11
REMARK    6  A    between atoms: C_12  and  C_13
REMARK    7  A    between atoms: C_16  and  C_17
REMARK                            x       y       z     vdW  Elec       q    Type
REMARK                         _______ _______ _______ _____ _____    ______ ____
ROOT
ATOM      1  C   UNL     1      50.320   9.738  16.041  0.00  0.00    +0.000 C 
ATOM      2  C   UNL     1      50.161   8.238  16.330  0.00  0.00    +0.000 C 
ATOM      3  C   UNL     1      50.488   7.402  15.094  0.00  0.00    +0.000 C 
ATOM      4  N   UNL     1      49.603   7.812  13.993  0.00  0.00    +0.000 N 
ATOM      5  C   UNL     1      49.786   9.217  13.597  0.00  0.00    +0.000 C 
ATOM      6  C   UNL     1      49.495  10.120  14.797  0.00  0.00    +0.000 C 
ENDROOT
BRANCH   1   8
ATOM      7  N   UNL     1      52.636   9.509  16.819  0.00  0.00    +0.000 N 
ATOM      8  C   UNL     1      51.798  10.113  15.900  0.00  0.00    +0.000 C 
ATOM      9  O   UNL     1      52.209  10.878  15.033  0.00  0.00    +0.000 OA
ATOM     10  H   UNL     1      52.228   9.049  17.624  0.00  0.00    +0.000 HD
BRANCH   7  12
ATOM     11  C   UNL     1      54.647   9.699  18.232  0.00  0.00    +0.000 C 
ATOM     12  C   UNL     1      54.075   9.751  16.818  0.00  0.00    +0.000 C 
ATOM     13  C   UNL     1      54.789   8.748  15.917  0.00  0.00    +0.000 C 
ENDBRANCH   7  12
ENDBRANCH   1   8
BRANCH   4  14
ATOM     14  C   UNL     1      48.736   6.922  13.382  0.00  0.00    +0.000 C 
ATOM     15  C   UNL     1      47.641   6.330  13.881  0.00  0.00    +0.000 C 
BRANCH  15  16
ATOM     16  C   UNL     1      46.781   5.400  13.148  0.00  0.00    +0.000 A 
ATOM     17  C   UNL     1      46.501   4.100  13.537  0.00  0.00    +0.000 A 
ATOM     18  N   UNL     1      45.678   3.264  12.868  0.00  0.00    +0.000 NA
ATOM     19  C   UNL     1      45.103   3.782  11.757  0.00  0.00    +0.000 A 
ATOM     20  N   UNL     1      45.277   5.037  11.290  0.00  0.00    +0.000 NA
ATOM     21  C   UNL     1      46.114   5.810  12.006  0.00  0.00    +0.000 A 
BRANCH  19  22
ATOM     22  C   UNL     1      44.185   2.868  10.983  0.00  0.00    +0.000 C 
ATOM     23  N   UNL     1      44.728   2.293   9.857  0.00  0.00    +0.000 N 
ATOM     24  O   UNL     1      43.024   2.630  11.300  0.00  0.00    +0.000 OA
ATOM     25  H   UNL     1      45.686   2.494   9.596  0.00  0.00    +0.000 HD
ATOM     26  H   UNL     1      44.157   1.677   9.299  0.00  0.00    +0.000 HD
ENDBRANCH  19  22
ENDBRANCH  15  16
ENDBRANCH   4  14
TORSDOF 5
ENDMDL
MODEL 8
REMARK VINA RESULT:    -4.822      2.636      9.671
REMARK INTER + INTRA:          -6.261
REMARK INTER:                  -5.984
REMARK INTRA:                  -0.277
REMARK UNBOUND:                -0.030
REMARK  Name = 
REMARK  7 active torsions:
REMARK  status: ('A' for Active; 'I' for Inactive)
REMARK    1  A    between atoms: C_1  and  C_2
REMARK    2  A    between atoms: C_2  and  C_3
REMARK    3  A    between atoms: C_2  and  N_4
REMARK    4  A    between atoms: C_5  and  C_7
REMARK    5  A    between atoms: N_10  and  C_11
REMARK    6  A    between atoms: C_12  and  C_13
REMARK    7  A    between atoms: C_16  and  C_17
REMARK                            x       y       z     vdW  Elec       q    Type
REMARK                         _______ _______ _______ _____ _____    ______ ____
ROOT
ATOM      1  C   UNL     1      51.212   8.700  16.328  0.00  0.00    +0.000 C 
ATOM      2  C   UNL     1      49.953   9.279  15.665  0.00  0.00    +0.000 C 
ATOM      3  C   UNL     1      48.710   8.479  16.052  0.00  0.00    +0.000 C 
ATOM      4  N   UNL     1      48.902   7.077  15.655  0.00  0.00    +0.000 N 
ATOM      5  C   UNL     1      50.033   6.432  16.341  0.00  0.00    +0.000 C 
ATOM      6  C   UNL     1      51.320   7.194  16.016  0.00  0.00    +0.000 C 
ENDROOT
BRANCH   1   8
ATOM      7  N   UNL     1      51.285   7.862  18.633  0.00  0.00    +0.000 N 
ATOM      8  C   UNL     1      51.218   8.987  17.832  0.00  0.00    +0.000 C 
ATOM      9  O   UNL     1      51.181  10.123  18.291  0.00  0.00    +0.000 OA
ATOM     10  H   UNL     1      51.117   6.954  18.216  0.00  0.00    +0.000 HD
BRANCH   7  12
ATOM     11  C   UNL     1      50.058   7.337  20.706  0.00  0.00    +0.000 C 
ATOM     12  C   UNL     1      51.308   7.958  20.089  0.00  0.00    +0.000 C 
ATOM     13  C   UNL     1      52.565   7.300  20.652  0.00  0.00    +0.000 C 
ENDBRANCH   7  12
ENDBRANCH   1   8
BRANCH   4  14
ATOM     14  C   UNL     1      48.053   6.445  14.763  0.00  0.00    +0.000 C 
ATOM     15  C   UNL     1      47.589   6.883  13.583  0.00  0.00    +0.000 C 
BRANCH  15  16
ATOM     16  C   UNL     1      46.690   6.134  12.704  0.00  0.00    +0.000 A 
ATOM     17  C   UNL     1      46.223   6.578  11.478  0.00  0.00    +0.000 A 
ATOM     18  N   UNL     1      45.421   5.861  10.661  0.00  0.00    +0.000 NA
ATOM     19  C   UNL     1      45.089   4.627  11.111  0.00  0.00    +0.000 A 
ATOM     20  N   UNL     1      45.498   4.075  12.272  0.00  0.00    +0.000 NA
ATOM     21  C   UNL     1      46.291   4.849  13.035  0.00  0.00    +0.000 A 
BRANCH  19  22
ATOM     22  C   UNL     1      44.186   3.806  10.224  0.00  0.00    +0.000 C 
ATOM     23  N   UNL     1      44.005   4.289   8.948  0.00  0.00    +0.000 N 
ATOM     24  O   UNL     1      43.627   2.774  10.579  0.00  0.00    +0.000 OA
ATOM     25  H   UNL     1      44.466   5.144   8.658  0.00  0.00    +0.000 HD
ATOM     26  H   UNL     1      43.406   3.783   8.314  0.00  0.00    +0.000 HD
ENDBRANCH  19  22
ENDBRANCH  15  16
ENDBRANCH   4  14
TORSDOF 5
ENDMDL
MODEL 9
REMARK VINA RESULT:    -4.175      2.404      2.993
REMARK INTER + INTRA:          -5.424
REMARK INTER:                  -5.280
REMARK INTRA:                  -0.144
REMARK UNBOUND:                -0.030
REMARK  Name = 
REMARK  7 active torsions:
REMARK  status: ('A' for Active; 'I' for Inactive)
REMARK    1  A    between atoms: C_1  and  C_2
REMARK    2  A    between atoms: C_2  and  C_3
REMARK    3  A    between atoms: C_2  and  N_4
REMARK    4  A    between atoms: C_5  and  C_7
REMARK    5  A    between atoms: N_10  and  C_11
REMARK    6  A    between atoms: C_12  and  C_13
REMARK    7  A    between atoms: C_16  and  C_17
REMARK                            x       y       z     vdW  Elec       q    Type
REMARK                         _______ _______ _______ _____ _____    ______ ____
ROOT
ATOM      1  C   UNL     1      45.172   6.218  11.974  0.00  0.00    +0.000 C 
ATOM      2  C   UNL     1      46.124   7.419  12.074  0.00  0.00    +0.000 C 
ATOM      3  C   UNL     1      47.555   6.964  12.355  0.00  0.00    +0.000 C 
ATOM      4  N   UNL     1      47.573   6.187  13.603  0.00  0.00    +0.000 N 
ATOM      5  C   UNL     1      46.761   4.962  13.533  0.00  0.00    +0.000 C 
ATOM      6  C   UNL     1      45.309   5.338  13.231  0.00  0.00    +0.000 C 
ENDROOT
BRANCH   1   8
ATOM      7  N   UNL     1      44.856   4.169  10.661  0.00  0.00    +0.000 N 
ATOM      8  C   UNL     1      45.417   5.433  10.682  0.00  0.00    +0.000 C 
ATOM      9  O   UNL     1      46.048   5.891   9.736  0.00  0.00    +0.000 OA
ATOM     10  H   UNL     1      44.520   3.769  11.528  0.00  0.00    +0.000 HD
BRANCH   7  12
ATOM     11  C   UNL     1      44.370   1.922   9.770  0.00  0.00    +0.000 C 
ATOM     12  C   UNL     1      44.988   3.292   9.502  0.00  0.00    +0.000 C 
ATOM     13  C   UNL     1      44.355   3.931   8.269  0.00  0.00    +0.000 C 
ENDBRANCH   7  12
ENDBRANCH   1   8
BRANCH   4  14
ATOM     14  C   UNL     1      48.331   6.574  14.696  0.00  0.00    +0.000 C 
ATOM     15  C   UNL     1      48.196   7.654  15.478  0.00  0.00    +0.000 C 
BRANCH  15  16
ATOM     16  C   UNL     1      49.052   7.976  16.620  0.00  0.00    +0.000 A 
ATOM     17  C   UNL     1      49.253   9.248  17.131  0.00  0.00    +0.000 A 
ATOM     18  N   UNL     1      50.020   9.527  18.207  0.00  0.00    +0.000 NA
ATOM     19  C   UNL     1      50.600   8.455  18.799  0.00  0.00    +0.000 A 
ATOM     20  N   UNL     1      50.463   7.169  18.411  0.00  0.00    +0.000 NA
ATOM     21  C   UNL     1      49.687   6.970  17.329  0.00  0.00    +0.000 A 
BRANCH  19  22
ATOM     22  C   UNL     1      51.471   8.735  19.999  0.00  0.00    +0.000 C 
ATOM     23  N   UNL     1      51.174   8.012  21.132  0.00  0.00    +0.000 N 
ATOM     24  O   UNL     1      52.389   9.548  20.007  0.00  0.00    +0.000 OA
ATOM     25  H   UNL     1      50.413   7.344  21.123  0.00  0.00    +0.000 HD
ATOM     26  H   UNL     1      51.721   8.165  21.965  0.00  0.00    +0.000 HD
ENDBRANCH  19  22
ENDBRANCH  15  16
ENDBRANCH   4  14
TORSDOF 5
ENDMDL
