MODEL 1
REMARK VINA RESULT:    -7.989      0.000      0.000
REMARK INTER + INTRA:         -12.464
REMARK INTER:                 -11.258
REMARK INTRA:                  -1.206
REMARK UNBOUND:                -1.206
REMARK  Name = 
REMARK  9 active torsions:
REMARK  status: ('A' for Active; 'I' for Inactive)
REMARK    1  A    between atoms: C_1  and  C_2
REMARK    2  A    between atoms: C_3  and  O_4
REMARK    3  A    between atoms: O_4  and  C_5
REMARK    4  A    between atoms: C_12  and  C_13
REMARK    5  A    between atoms: C_13  and  C_14
REMARK    6  A    between atoms: C_13  and  C_15
REMARK    7  A    between atoms: C_15  and  N_16
REMARK    8  A    between atoms: N_16  and  C_17
REMARK    9  A    between atoms: C_20  and  C_21
REMARK                            x       y       z     vdW  Elec       q    Type
REMARK                         _______ _______ _______ _____ _____    ______ ____
ROOT
ATOM      1  C   UNL     1      43.673   5.693  12.323  0.00  0.00    +0.000 C 
ATOM      2  C   UNL     1      42.795   4.794  13.206  0.00  0.00    +0.000 C 
ENDROOT
BRANCH   1   9
ATOM      3  C   UNL     1      45.246   8.278  12.376  0.00  0.00    +0.000 C 
ATOM      4  C   UNL     1      45.869   6.964  12.767  0.00  0.00    +0.000 A 
ATOM      5  C   UNL     1      47.240   6.898  13.096  0.00  0.00    +0.000 A 
ATOM      6  C   UNL     1      47.781   5.701  13.546  0.00  0.00    +0.000 A 
ATOM      7  C   UNL     1      46.957   4.595  13.598  0.00  0.00    +0.000 A 
ATOM      8  N   UNL     1      45.659   4.599  13.234  0.00  0.00    +0.000 NA
ATOM      9  C   UNL     1      45.120   5.769  12.803  0.00  0.00    +0.000 A 
BRANCH   5  10
ATOM     10  O   UNL     1      47.983   8.051  12.936  0.00  0.00    +0.000 OA
BRANCH  10  11
ATOM     11  C   UNL     1      48.690   8.294  11.694  0.00  0.00    +0.000 C 
ATOM     12  C   UNL     1      50.159   7.808  11.684  0.00  0.00    +0.000 C 
ATOM     13  C   UNL     1      50.641   9.225  11.365  0.00  0.00    +0.000 C 
ATOM     14  C   UNL     1      49.199   9.729  11.423  0.00  0.00    +0.000 C 
ENDBRANCH  10  11
ENDBRANCH   5  10
ENDBRANCH   1   9
BRANCH   1  15
ATOM     15  C   UNL     1      43.573   5.337  10.818  0.00  0.00    +0.000 C 
BRANCH  15  16
ATOM     16  N   UNL     1      43.838   3.927  10.527  0.00  0.00    +0.000 N 
ATOM     17  H   UNL     1      43.029   3.323  10.636  0.00  0.00    +0.000 HD
BRANCH  16  18
ATOM     18  C   UNL     1      44.669   3.546   9.478  0.00  0.00    +0.000 A 
ATOM     19  C   UNL     1      45.344   4.460   8.662  0.00  0.00    +0.000 A 
ATOM     20  C   UNL     1      46.255   4.029   7.691  0.00  0.00    +0.000 A 
ATOM     21  C   UNL     1      46.527   2.669   7.534  0.00  0.00    +0.000 A 
ATOM     22  C   UNL     1      45.861   1.739   8.336  0.00  0.00    +0.000 A 
ATOM     23  C   UNL     1      44.954   2.182   9.306  0.00  0.00    +0.000 A 
BRANCH  21  24
ATOM     24  C   UNL     1      47.532   2.263   6.517  0.00  0.00    +0.000 C 
ATOM     25  N   UNL     1      47.502   2.912   5.314  0.00  0.00    +0.000 N 
ATOM     26  O   UNL     1      48.327   1.354   6.720  0.00  0.00    +0.000 OA
ATOM     27  H   UNL     1      46.710   3.464   5.021  0.00  0.00    +0.000 HD
ATOM     28  H   UNL     1      48.102   2.534   4.592  0.00  0.00    +0.000 HD
ENDBRANCH  21  24
ENDBRANCH  16  18
ENDBRANCH  15  16
ENDBRANCH   1  15
TORSDOF 7
ENDMDL
MODEL 2
REMARK VINA RESULT:    -7.565      1.922      3.366
REMARK INTER + INTRA:         -11.867
REMARK INTER:                 -11.236
REMARK INTRA:                  -0.631
REMARK UNBOUND:                -1.206
REMARK  Name = 
REMARK  9 active torsions:
REMARK  status: ('A' for Active; 'I' for Inactive)
REMARK    1  A    between atoms: C_1  and  C_2
REMARK    2  A    between atoms: C_3  and  O_4
REMARK    3  A    between atoms: O_4  and  C_5
REMARK    4  A    between atoms: C_12  and  C_13
REMARK    5  A    between atoms: C_13  and  C_14
REMARK    6  A    between atoms: C_13  and  C_15
REMARK    7  A    between atoms: C_15  and  N_16
REMARK    8  A    between atoms: N_16  and  C_17
REMARK    9  A    between atoms: C_20  and  C_21
REMARK                            x       y       z     vdW  Elec       q    Type
REMARK                         _______ _______ _______ _____ _____    ______ ____
ROOT
ATOM      1  C   UNL     1      43.497   5.706  12.091  0.00  0.00    +0.000 C 
ATOM      2  C   UNL     1      42.656   5.001  13.166  0.00  0.00    +0.000 C 
ENDROOT
BRANCH   1   9
ATOM      3  C   UNL     1      45.364   3.635  13.266  0.00  0.00    +0.000 C 
ATOM      4  C   UNL     1      45.753   5.085  13.169  0.00  0.00    +0.000 A 
ATOM      5  C   UNL     1      46.981   5.529  13.704  0.00  0.00    +0.000 A 
ATOM      6  C   UNL     1      47.371   6.849  13.525  0.00  0.00    +0.000 A 
ATOM      7  C   UNL     1      46.502   7.700  12.873  0.00  0.00    +0.000 A 
ATOM      8  N   UNL     1      45.293   7.334  12.404  0.00  0.00    +0.000 NA
ATOM      9  C   UNL     1      44.909   6.041  12.564  0.00  0.00    +0.000 A 
BRANCH   5  10
ATOM     10  O   UNL     1      47.736   4.605  14.400  0.00  0.00    +0.000 OA
BRANCH  10  11
ATOM     11  C   UNL     1      47.534   4.425  15.824  0.00  0.00    +0.000 C 
ATOM     12  C   UNL     1      48.559   5.162  16.718  0.00  0.00    +0.000 C 
ATOM     13  C   UNL     1      48.967   3.837  17.367  0.00  0.00    +0.000 C 
ATOM     14  C   UNL     1      47.994   3.091  16.454  0.00  0.00    +0.000 C 
ENDBRANCH  10  11
ENDBRANCH   5  10
ENDBRANCH   1   9
BRANCH   1  15
ATOM     15  C   UNL     1      43.497   4.950  10.738  0.00  0.00    +0.000 C 
BRANCH  15  16
ATOM     16  N   UNL     1      44.605   5.320   9.856  0.00  0.00    +0.000 N 
ATOM     17  H   UNL     1      45.257   5.982  10.265  0.00  0.00    +0.000 HD
BRANCH  16  18
ATOM     18  C   UNL     1      45.221   4.381   9.033  0.00  0.00    +0.000 A 
ATOM     19  C   UNL     1      46.145   4.719   8.040  0.00  0.00    +0.000 A 
ATOM     20  C   UNL     1      46.820   3.733   7.312  0.00  0.00    +0.000 A 
ATOM     21  C   UNL     1      46.601   2.381   7.584  0.00  0.00    +0.000 A 
ATOM     22  C   UNL     1      45.679   2.021   8.570  0.00  0.00    +0.000 A 
ATOM     23  C   UNL     1      45.011   3.017   9.293  0.00  0.00    +0.000 A 
BRANCH  21  24
ATOM     24  C   UNL     1      47.371   1.371   6.812  0.00  0.00    +0.000 C 
ATOM     25  N   UNL     1      48.409   1.827   6.048  0.00  0.00    +0.000 N 
ATOM     26  O   UNL     1      47.068   0.185   6.818  0.00  0.00    +0.000 OA
ATOM     27  H   UNL     1      48.515   2.802   5.813  0.00  0.00    +0.000 HD
ATOM     28  H   UNL     1      48.835   1.148   5.430  0.00  0.00    +0.000 HD
ENDBRANCH  21  24
ENDBRANCH  16  18
ENDBRANCH  15  16
ENDBRANCH   1  15
TORSDOF 7
ENDMDL
MODEL 3
REMARK VINA RESULT:    -7.345      1.204      2.200
REMARK INTER + INTRA:         -11.557
REMARK INTER:                 -11.444
REMARK INTRA:                  -0.113
REMARK UNBOUND:                -1.206
REMARK  Name = 
REMARK  9 active torsions:
REMARK  status: ('A' for Active; 'I' for Inactive)
REMARK    1  A    between atoms: C_1  and  C_2
REMARK    2  A    between atoms: C_3  and  O_4
REMARK    3  A    between atoms: O_4  and  C_5
REMARK    4  A    between atoms: C_12  and  C_13
REMARK    5  A    between atoms: C_13  and  C_14
REMARK    6  A    between atoms: C_13  and  C_15
REMARK    7  A    between atoms: C_15  and  N_16
REMARK    8  A    between atoms: N_16  and  C_17
REMARK    9  A    between atoms: C_20  and  C_21
REMARK                            x       y       z     vdW  Elec       q    Type
REMARK                         _______ _______ _______ _____ _____    ______ ____
ROOT
ATOM      1  C   UNL     1      44.198   4.759  12.368  0.00  0.00    +0.000 C 
ATOM      2  C   UNL     1      45.262   3.670  12.572  0.00  0.00    +0.000 C 
ENDROOT
BRANCH   1   9
ATOM      3  C   UNL     1      46.817   5.529  13.675  0.00  0.00    +0.000 C 
ATOM      4  C   UNL     1      45.984   6.532  12.922  0.00  0.00    +0.000 A 
ATOM      5  C   UNL     1      46.373   7.887  12.876  0.00  0.00    +0.000 A 
ATOM      6  C   UNL     1      45.649   8.784  12.102  0.00  0.00    +0.000 A 
ATOM      7  C   UNL     1      44.528   8.317  11.446  0.00  0.00    +0.000 A 
ATOM      8  N   UNL     1      44.085   7.046  11.513  0.00  0.00    +0.000 NA
ATOM      9  C   UNL     1      44.795   6.160  12.259  0.00  0.00    +0.000 A 
BRANCH   5  10
ATOM     10  O   UNL     1      47.469   8.254  13.632  0.00  0.00    +0.000 OA
BRANCH  10  11
ATOM     11  C   UNL     1      48.669   8.744  12.982  0.00  0.00    +0.000 C 
ATOM     12  C   UNL     1      48.898   8.195  11.554  0.00  0.00    +0.000 C 
ATOM     13  C   UNL     1      50.258   7.631  11.974  0.00  0.00    +0.000 C 
ATOM     14  C   UNL     1      50.021   8.125  13.402  0.00  0.00    +0.000 C 
ENDBRANCH  10  11
ENDBRANCH   5  10
ENDBRANCH   1   9
BRANCH   1  15
ATOM     15  C   UNL     1      43.231   4.442  11.201  0.00  0.00    +0.000 C 
BRANCH  15  16
ATOM     16  N   UNL     1      43.769   4.777   9.881  0.00  0.00    +0.000 N 
ATOM     17  H   UNL     1      43.966   5.764   9.752  0.00  0.00    +0.000 HD
BRANCH  16  18
ATOM     18  C   UNL     1      44.684   3.947   9.239  0.00  0.00    +0.000 A 
ATOM     19  C   UNL     1      44.643   2.552   9.318  0.00  0.00    +0.000 A 
ATOM     20  C   UNL     1      45.516   1.757   8.567  0.00  0.00    +0.000 A 
ATOM     21  C   UNL     1      46.437   2.347   7.698  0.00  0.00    +0.000 A 
ATOM     22  C   UNL     1      46.497   3.740   7.607  0.00  0.00    +0.000 A 
ATOM     23  C   UNL     1      45.616   4.524   8.362  0.00  0.00    +0.000 A 
BRANCH  21  24
ATOM     24  C   UNL     1      47.315   1.461   6.892  0.00  0.00    +0.000 C 
ATOM     25  N   UNL     1      48.372   2.043   6.250  0.00  0.00    +0.000 N 
ATOM     26  O   UNL     1      47.083   0.265   6.762  0.00  0.00    +0.000 OA
ATOM     27  H   UNL     1      48.436   3.041   6.118  0.00  0.00    +0.000 HD
ATOM     28  H   UNL     1      48.878   1.452   5.603  0.00  0.00    +0.000 HD
ENDBRANCH  21  24
ENDBRANCH  16  18
ENDBRANCH  15  16
ENDBRANCH   1  15
TORSDOF 7
ENDMDL
MODEL 4
REMARK VINA RESULT:    -7.304      1.849      2.779
REMARK INTER + INTRA:         -11.500
REMARK INTER:                 -11.535
REMARK INTRA:                   0.035
REMARK UNBOUND:                -1.206
REMARK  Name = 
REMARK  9 active torsions:
REMARK  status: ('A' for Active; 'I' for Inactive)
REMARK    1  A    between atoms: C_1  and  C_2
REMARK    2  A    between atoms: C_3  and  O_4
REMARK    3  A    between atoms: O_4  and  C_5
REMARK    4  A    between atoms: C_12  and  C_13
REMARK    5  A    between atoms: C_13  and  C_14
REMARK    6  A    between atoms: C_13  and  C_15
REMARK    7  A    between atoms: C_15  and  N_16
REMARK    8  A    between atoms: N_16  and  C_17
REMARK    9  A    between atoms: C_20  and  C_21
REMARK                            x       y       z     vdW  Elec       q    Type
REMARK                         _______ _______ _______ _____ _____    ______ ____
ROOT
ATOM      1  C   UNL     1      43.928   4.787  12.422  0.00  0.00    +0.000 C 
ATOM      2  C   UNL     1      44.340   3.379  12.878  0.00  0.00    +0.000 C 
ENDROOT
BRANCH   1   9
ATOM      3  C   UNL     1      46.669   4.076  13.488  0.00  0.00    +0.000 C 
ATOM      4  C   UNL     1      46.330   5.475  13.048  0.00  0.00    +0.000 A 
ATOM      5  C   UNL     1      47.271   6.515  13.199  0.00  0.00    +0.000 A 
ATOM      6  C   UNL     1      46.983   7.780  12.704  0.00  0.00    +0.000 A 
ATOM      7  C   UNL     1      45.745   7.985  12.128  0.00  0.00    +0.000 A 
ATOM      8  N   UNL     1      44.793   7.037  12.021  0.00  0.00    +0.000 NA
ATOM      9  C   UNL     1      45.072   5.794  12.492  0.00  0.00    +0.000 A 
BRANCH   5  10
ATOM     10  O   UNL     1      48.447   6.211  13.857  0.00  0.00    +0.000 OA
BRANCH  10  11
ATOM     11  C   UNL     1      48.728   6.794  15.153  0.00  0.00    +0.000 C 
ATOM     12  C   UNL     1      50.229   7.031  15.441  0.00  0.00    +0.000 C 
ATOM     13  C   UNL     1      50.143   6.150  16.690  0.00  0.00    +0.000 C 
ATOM     14  C   UNL     1      48.672   5.867  16.389  0.00  0.00    +0.000 C 
ENDBRANCH  10  11
ENDBRANCH   5  10
ENDBRANCH   1   9
BRANCH   1  15
ATOM     15  C   UNL     1      43.229   4.790  11.039  0.00  0.00    +0.000 C 
BRANCH  15  16
ATOM     16  N   UNL     1      44.118   5.140   9.930  0.00  0.00    +0.000 N 
ATOM     17  H   UNL     1      44.684   5.966  10.098  0.00  0.00    +0.000 HD
BRANCH  16  18
ATOM     18  C   UNL     1      44.781   4.162   9.195  0.00  0.00    +0.000 A 
ATOM     19  C   UNL     1      45.788   4.448   8.267  0.00  0.00    +0.000 A 
ATOM     20  C   UNL     1      46.501   3.425   7.633  0.00  0.00    +0.000 A 
ATOM     21  C   UNL     1      46.237   2.088   7.936  0.00  0.00    +0.000 A 
ATOM     22  C   UNL     1      45.233   1.780   8.857  0.00  0.00    +0.000 A 
ATOM     23  C   UNL     1      44.527   2.812   9.487  0.00  0.00    +0.000 A 
BRANCH  21  24
ATOM     24  C   UNL     1      47.049   1.038   7.267  0.00  0.00    +0.000 C 
ATOM     25  N   UNL     1      46.789  -0.262   7.602  0.00  0.00    +0.000 N 
ATOM     26  O   UNL     1      47.947   1.318   6.483  0.00  0.00    +0.000 OA
ATOM     27  H   UNL     1      46.256  -0.509   8.422  0.00  0.00    +0.000 HD
ATOM     28  H   UNL     1      47.437  -0.950   7.239  0.00  0.00    +0.000 HD
ENDBRANCH  21  24
ENDBRANCH  16  18
ENDBRANCH  15  16
ENDBRANCH   1  15
TORSDOF 7
ENDMDL
MODEL 5
REMARK VINA RESULT:    -6.671      3.577      8.105
REMARK INTER + INTRA:         -10.607
REMARK INTER:                 -10.345
REMARK INTRA:                  -0.262
REMARK UNBOUND:                -1.206
REMARK  Name = 
REMARK  9 active torsions:
REMARK  status: ('A' for Active; 'I' for Inactive)
REMARK    1  A    between atoms: C_1  and  C_2
REMARK    2  A    between atoms: C_3  and  O_4
REMARK    3  A    between atoms: O_4  and  C_5
REMARK    4  A    between atoms: C_12  and  C_13
REMARK    5  A    between atoms: C_13  and  C_14
REMARK    6  A    between atoms: C_13  and  C_15
REMARK    7  A    between atoms: C_15  and  N_16
REMARK    8  A    between atoms: N_16  and  C_17
REMARK    9  A    between atoms: C_20  and  C_21
REMARK                            x       y       z     vdW  Elec       q    Type
REMARK                         _______ _______ _______ _____ _____    ______ ____
ROOT
ATOM      1  C   UNL     1      45.679   5.893  13.269  0.00  0.00    +0.000 C 
ATOM      2  C   UNL     1      45.598   7.320  12.708  0.00  0.00    +0.000 C 
ENDROOT
BRANCH   1   9
ATOM      3  C   UNL     1      45.962   5.899  10.257  0.00  0.00    +0.000 C 
ATOM      4  C   UNL     1      45.081   4.906  10.966  0.00  0.00    +0.000 A 
ATOM      5  C   UNL     1      44.297   3.996  10.226  0.00  0.00    +0.000 A 
ATOM      6  C   UNL     1      43.562   3.023  10.891  0.00  0.00    +0.000 A 
ATOM      7  C   UNL     1      43.583   3.025  12.271  0.00  0.00    +0.000 A 
ATOM      8  N   UNL     1      44.266   3.915  13.017  0.00  0.00    +0.000 NA
ATOM      9  C   UNL     1      44.997   4.861  12.374  0.00  0.00    +0.000 A 
BRANCH   5  10
ATOM     10  O   UNL     1      44.298   4.135   8.852  0.00  0.00    +0.000 OA
BRANCH  10  11
ATOM     11  C   UNL     1      44.753   3.046   8.010  0.00  0.00    +0.000 C 
ATOM     12  C   UNL     1      45.703   2.046   8.709  0.00  0.00    +0.000 C 
ATOM     13  C   UNL     1      46.783   2.315   7.659  0.00  0.00    +0.000 C 
ATOM     14  C   UNL     1      45.873   3.344   6.988  0.00  0.00    +0.000 C 
ENDBRANCH  10  11
ENDBRANCH   5  10
ENDBRANCH   1   9
BRANCH   1  15
ATOM     15  C   UNL     1      47.123   5.478  13.647  0.00  0.00    +0.000 C 
BRANCH  15  16
ATOM     16  N   UNL     1      47.190   4.306  14.522  0.00  0.00    +0.000 N 
ATOM     17  H   UNL     1      47.537   3.468  14.067  0.00  0.00    +0.000 HD
BRANCH  16  18
ATOM     18  C   UNL     1      47.593   4.416  15.850  0.00  0.00    +0.000 A 
ATOM     19  C   UNL     1      47.485   3.372  16.774  0.00  0.00    +0.000 A 
ATOM     20  C   UNL     1      48.005   3.492  18.068  0.00  0.00    +0.000 A 
ATOM     21  C   UNL     1      48.668   4.658  18.456  0.00  0.00    +0.000 A 
ATOM     22  C   UNL     1      48.783   5.715  17.550  0.00  0.00    +0.000 A 
ATOM     23  C   UNL     1      48.261   5.581  16.257  0.00  0.00    +0.000 A 
BRANCH  21  24
ATOM     24  C   UNL     1      49.237   4.723  19.827  0.00  0.00    +0.000 C 
ATOM     25  N   UNL     1      48.615   3.991  20.799  0.00  0.00    +0.000 N 
ATOM     26  O   UNL     1      50.195   5.438  20.095  0.00  0.00    +0.000 OA
ATOM     27  H   UNL     1      47.687   3.614  20.676  0.00  0.00    +0.000 HD
ATOM     28  H   UNL     1      48.933   4.150  21.746  0.00  0.00    +0.000 HD
ENDBRANCH  21  24
ENDBRANCH  16  18
ENDBRANCH  15  16
ENDBRANCH   1  15
TORSDOF 7
ENDMDL
MODEL 6
REMARK VINA RESULT:    -6.354      3.163      5.446
REMARK INTER + INTRA:         -10.160
REMARK INTER:                  -8.731
REMARK INTRA:                  -1.429
REMARK UNBOUND:                -1.206
REMARK  Name = 
REMARK  9 active torsions:
REMARK  status: ('A' for Active; 'I' for Inactive)
REMARK    1  A    between atoms: C_1  and  C_2
REMARK    2  A    between atoms: C_3  and  O_4
REMARK    3  A    between atoms: O_4  and  C_5
REMARK    4  A    between atoms: C_12  and  C_13
REMARK    5  A    between atoms: C_13  and  C_14
REMARK    6  A    between atoms: C_13  and  C_15
REMARK    7  A    between atoms: C_15  and  N_16
REMARK    8  A    between atoms: N_16  and  C_17
REMARK    9  A    between atoms: C_20  and  C_21
REMARK                            x       y       z     vdW  Elec       q    Type
REMARK                         _______ _______ _______ _____ _____    ______ ____
ROOT
ATOM      1  C   UNL     1      47.189   8.689  12.712  0.00  0.00    +0.000 C 
ATOM      2  C   UNL     1      47.831   9.921  12.056  0.00  0.00    +0.000 C 
ENDROOT
BRANCH   1   9
ATOM      3  C   UNL     1      47.986   5.818  13.244  0.00  0.00    +0.000 C 
ATOM      4  C   UNL     1      48.217   6.905  14.260  0.00  0.00    +0.000 A 
ATOM      5  C   UNL     1      48.746   6.589  15.529  0.00  0.00    +0.000 A 
ATOM      6  C   UNL     1      49.043   7.610  16.422  0.00  0.00    +0.000 A 
ATOM      7  C   UNL     1      48.751   8.905  16.048  0.00  0.00    +0.000 A 
ATOM      8  N   UNL     1      48.187   9.245  14.872  0.00  0.00    +0.000 NA
ATOM      9  C   UNL     1      47.904   8.253  13.988  0.00  0.00    +0.000 A 
BRANCH   5  10
ATOM     10  O   UNL     1      48.930   5.252  15.821  0.00  0.00    +0.000 OA
BRANCH  10  11
ATOM     11  C   UNL     1      48.544   4.730  17.117  0.00  0.00    +0.000 C 
ATOM     12  C   UNL     1      48.973   3.266  17.375  0.00  0.00    +0.000 C 
ATOM     13  C   UNL     1      47.515   2.866  17.615  0.00  0.00    +0.000 C 
ATOM     14  C   UNL     1      47.073   4.298  17.312  0.00  0.00    +0.000 C 
ENDBRANCH  10  11
ENDBRANCH   5  10
ENDBRANCH   1   9
BRANCH   1  15
ATOM     15  C   UNL     1      45.662   8.847  12.920  0.00  0.00    +0.000 C 
BRANCH  15  16
ATOM     16  N   UNL     1      44.858   8.296  11.828  0.00  0.00    +0.000 N 
ATOM     17  H   UNL     1      44.990   8.766  10.938  0.00  0.00    +0.000 HD
BRANCH  16  18
ATOM     18  C   UNL     1      44.652   6.926  11.699  0.00  0.00    +0.000 A 
ATOM     19  C   UNL     1      43.617   6.241  12.343  0.00  0.00    +0.000 A 
ATOM     20  C   UNL     1      43.383   4.883  12.096  0.00  0.00    +0.000 A 
ATOM     21  C   UNL     1      44.168   4.188  11.175  0.00  0.00    +0.000 A 
ATOM     22  C   UNL     1      45.210   4.853  10.523  0.00  0.00    +0.000 A 
ATOM     23  C   UNL     1      45.433   6.212  10.777  0.00  0.00    +0.000 A 
BRANCH  21  24
ATOM     24  C   UNL     1      43.855   2.759  10.916  0.00  0.00    +0.000 C 
ATOM     25  N   UNL     1      44.487   2.160   9.862  0.00  0.00    +0.000 N 
ATOM     26  O   UNL     1      43.031   2.147  11.584  0.00  0.00    +0.000 OA
ATOM     27  H   UNL     1      44.955   2.692   9.144  0.00  0.00    +0.000 HD
ATOM     28  H   UNL     1      44.164   1.232   9.621  0.00  0.00    +0.000 HD
ENDBRANCH  21  24
ENDBRANCH  16  18
ENDBRANCH  15  16
ENDBRANCH   1  15
TORSDOF 7
ENDMDL
MODEL 7
REMARK VINA RESULT:    -6.174      4.555      6.069
REMARK INTER + INTRA:          -9.907
REMARK INTER:                  -8.723
REMARK INTRA:                  -1.184
REMARK UNBOUND:                -1.206
REMARK  Name = 
REMARK  9 active torsions:
REMARK  status: ('A' for Active; 'I' for Inactive)
REMARK    1  A    between atoms: C_1  and  C_2
REMARK    2  A    between atoms: C_3  and  O_4
REMARK    3  A    between atoms: O_4  and  C_5
REMARK    4  A    between atoms: C_12  and  C_13
REMARK    5  A    between atoms: C_13  and  C_14
REMARK    6  A    between atoms: C_13  and  C_15
REMARK    7  A    between atoms: C_15  and  N_16
REMARK    8  A    between atoms: N_16  and  C_17
REMARK    9  A    between atoms: C_20  and  C_21
REMARK                            x       y       z     vdW  Elec       q    Type
REMARK                         _______ _______ _______ _____ _____    ______ ____
ROOT
ATOM      1  C   UNL     1      47.451   4.244  16.976  0.00  0.00    +0.000 C 
ATOM      2  C   UNL     1      47.720   2.903  17.676  0.00  0.00    +0.000 C 
ENDROOT
BRANCH   1   9
ATOM      3  C   UNL     1      47.338   5.877  19.521  0.00  0.00    +0.000 C 
ATOM      4  C   UNL     1      48.395   6.114  18.476  0.00  0.00    +0.000 A 
ATOM      5  C   UNL     1      49.320   7.169  18.626  0.00  0.00    +0.000 A 
ATOM      6  C   UNL     1      50.347   7.319  17.705  0.00  0.00    +0.000 A 
ATOM      7  C   UNL     1      50.387   6.453  16.631  0.00  0.00    +0.000 A 
ATOM      8  N   UNL     1      49.488   5.473  16.415  0.00  0.00    +0.000 NA
ATOM      9  C   UNL     1      48.487   5.312  17.318  0.00  0.00    +0.000 A 
BRANCH   5  10
ATOM     10  O   UNL     1      49.138   8.018  19.701  0.00  0.00    +0.000 OA
BRANCH  10  11
ATOM     11  C   UNL     1      48.695   9.381  19.485  0.00  0.00    +0.000 C 
ATOM     12  C   UNL     1      48.041  10.049  20.717  0.00  0.00    +0.000 C 
ATOM     13  C   UNL     1      46.759  10.300  19.918  0.00  0.00    +0.000 C 
ATOM     14  C   UNL     1      47.376   9.597  18.709  0.00  0.00    +0.000 C 
ENDBRANCH  10  11
ENDBRANCH   5  10
ENDBRANCH   1   9
BRANCH   1  15
ATOM     15  C   UNL     1      47.249   4.093  15.447  0.00  0.00    +0.000 C 
BRANCH  15  16
ATOM     16  N   UNL     1      46.670   5.277  14.810  0.00  0.00    +0.000 N 
ATOM     17  H   UNL     1      47.120   6.149  15.069  0.00  0.00    +0.000 HD
BRANCH  16  18
ATOM     18  C   UNL     1      46.245   5.252  13.485  0.00  0.00    +0.000 A 
ATOM     19  C   UNL     1      46.630   6.204  12.536  0.00  0.00    +0.000 A 
ATOM     20  C   UNL     1      46.267   6.076  11.191  0.00  0.00    +0.000 A 
ATOM     21  C   UNL     1      45.527   4.972  10.762  0.00  0.00    +0.000 A 
ATOM     22  C   UNL     1      45.129   4.010  11.694  0.00  0.00    +0.000 A 
ATOM     23  C   UNL     1      45.501   4.149  13.037  0.00  0.00    +0.000 A 
BRANCH  21  24
ATOM     24  C   UNL     1      45.200   4.859   9.317  0.00  0.00    +0.000 C 
ATOM     25  N   UNL     1      43.955   4.399   8.991  0.00  0.00    +0.000 N 
ATOM     26  O   UNL     1      46.021   5.119   8.446  0.00  0.00    +0.000 OA
ATOM     27  H   UNL     1      43.363   3.932   9.661  0.00  0.00    +0.000 HD
ATOM     28  H   UNL     1      43.797   4.204   8.011  0.00  0.00    +0.000 HD
ENDBRANCH  21  24
ENDBRANCH  16  18
ENDBRANCH  15  16
ENDBRANCH   1  15
TORSDOF 7
ENDMDL
MODEL 8
REMARK VINA RESULT:    -5.958      4.080      6.623
REMARK INTER + INTRA:          -9.602
REMARK INTER:                  -7.894
REMARK INTRA:                  -1.708
REMARK UNBOUND:                -1.206
REMARK  Name = 
REMARK  9 active torsions:
REMARK  status: ('A' for Active; 'I' for Inactive)
REMARK    1  A    between atoms: C_1  and  C_2
REMARK    2  A    between atoms: C_3  and  O_4
REMARK    3  A    between atoms: O_4  and  C_5
REMARK    4  A    between atoms: C_12  and  C_13
REMARK    5  A    between atoms: C_13  and  C_14
REMARK    6  A    between atoms: C_13  and  C_15
REMARK    7  A    between atoms: C_15  and  N_16
REMARK    8  A    between atoms: N_16  and  C_17
REMARK    9  A    between atoms: C_20  and  C_21
REMARK                            x       y       z     vdW  Elec       q    Type
REMARK                         _______ _______ _______ _____ _____    ______ ____
ROOT
ATOM      1  C   UNL     1      49.107   9.074  15.308  0.00  0.00    +0.000 C 
ATOM      2  C   UNL     1      49.426  10.575  15.392  0.00  0.00    +0.000 C 
ENDROOT
BRANCH   1   9
ATOM      3  C   UNL     1      50.405   6.518  16.278  0.00  0.00    +0.000 C 
ATOM      4  C   UNL     1      49.357   7.230  17.090  0.00  0.00    +0.000 A 
ATOM      5  C   UNL     1      48.895   6.671  18.300  0.00  0.00    +0.000 A 
ATOM      6  C   UNL     1      47.999   7.382  19.087  0.00  0.00    +0.000 A 
ATOM      7  C   UNL     1      47.545   8.598  18.617  0.00  0.00    +0.000 A 
ATOM      8  N   UNL     1      47.911   9.139  17.439  0.00  0.00    +0.000 NA
ATOM      9  C   UNL     1      48.797   8.455  16.669  0.00  0.00    +0.000 A 
BRANCH   5  10
ATOM     10  O   UNL     1      49.364   5.416  18.634  0.00  0.00    +0.000 OA
BRANCH  10  11
ATOM     11  C   UNL     1      48.479   4.269  18.571  0.00  0.00    +0.000 C 
ATOM     12  C   UNL     1      49.022   3.082  17.740  0.00  0.00    +0.000 C 
ATOM     13  C   UNL     1      47.793   3.137  16.830  0.00  0.00    +0.000 C 
ATOM     14  C   UNL     1      47.270   4.343  17.612  0.00  0.00    +0.000 C 
ENDBRANCH  10  11
ENDBRANCH   5  10
ENDBRANCH   1   9
BRANCH   1  15
ATOM     15  C   UNL     1      48.018   8.750  14.255  0.00  0.00    +0.000 C 
BRANCH  15  16
ATOM     16  N   UNL     1      48.336   7.594  13.415  0.00  0.00    +0.000 N 
ATOM     17  H   UNL     1      49.261   7.207  13.575  0.00  0.00    +0.000 HD
BRANCH  16  18
ATOM     18  C   UNL     1      47.380   6.625  13.123  0.00  0.00    +0.000 A 
ATOM     19  C   UNL     1      46.621   6.624  11.949  0.00  0.00    +0.000 A 
ATOM     20  C   UNL     1      45.752   5.570  11.648  0.00  0.00    +0.000 A 
ATOM     21  C   UNL     1      45.643   4.477  12.511  0.00  0.00    +0.000 A 
ATOM     22  C   UNL     1      46.390   4.460  13.692  0.00  0.00    +0.000 A 
ATOM     23  C   UNL     1      47.258   5.520  13.980  0.00  0.00    +0.000 A 
BRANCH  21  24
ATOM     24  C   UNL     1      44.737   3.363  12.129  0.00  0.00    +0.000 C 
ATOM     25  N   UNL     1      44.941   2.781  10.909  0.00  0.00    +0.000 N 
ATOM     26  O   UNL     1      43.814   3.005  12.850  0.00  0.00    +0.000 OA
ATOM     27  H   UNL     1      45.504   3.216  10.194  0.00  0.00    +0.000 HD
ATOM     28  H   UNL     1      44.237   2.119  10.611  0.00  0.00    +0.000 HD
ENDBRANCH  21  24
ENDBRANCH  16  18
ENDBRANCH  15  16
ENDBRANCH   1  15
TORSDOF 7
ENDMDL
MODEL 9
REMARK VINA RESULT:    -5.604      4.048      8.580
REMARK INTER + INTRA:          -9.103
REMARK INTER:                  -8.124
REMARK INTRA:                  -0.979
REMARK UNBOUND:                -1.206
REMARK  Name = 
REMARK  9 active torsions:
REMARK  status: ('A' for Active; 'I' for Inactive)
REMARK    1  A    between atoms: C_1  and  C_2
REMARK    2  A    between atoms: C_3  and  O_4
REMARK    3  A    between atoms: O_4  and  C_5
REMARK    4  A    between atoms: C_12  and  C_13
REMARK    5  A    between atoms: C_13  and  C_14
REMARK    6  A    between atoms: C_13  and  C_15
REMARK    7  A    between atoms: C_15  and  N_16
REMARK    8  A    between atoms: N_16  and  C_17
REMARK    9  A    between atoms: C_20  and  C_21
REMARK                            x       y       z     vdW  Elec       q    Type
REMARK                         _______ _______ _______ _____ _____    ______ ____
ROOT
ATOM      1  C   UNL     1      48.127   7.562  13.013  0.00  0.00    +0.000 C 
ATOM      2  C   UNL     1      48.917   7.682  11.701  0.00  0.00    +0.000 C 
ENDROOT
BRANCH   1   9
ATOM      3  C   UNL     1      45.259   7.562  12.048  0.00  0.00    +0.000 C 
ATOM      4  C   UNL     1      45.884   6.342  12.670  0.00  0.00    +0.000 A 
ATOM      5  C   UNL     1      45.112   5.182  12.891  0.00  0.00    +0.000 A 
ATOM      6  C   UNL     1      45.721   4.034  13.378  0.00  0.00    +0.000 A 
ATOM      7  C   UNL     1      47.066   4.093  13.685  0.00  0.00    +0.000 A 
ATOM      8  N   UNL     1      47.826   5.197  13.550  0.00  0.00    +0.000 NA
ATOM      9  C   UNL     1      47.240   6.321  13.063  0.00  0.00    +0.000 A 
BRANCH   5  10
ATOM     10  O   UNL     1      43.761   5.262  12.615  0.00  0.00    +0.000 OA
BRANCH  10  11
ATOM     11  C   UNL     1      43.204   4.537  11.490  0.00  0.00    +0.000 C 
ATOM     12  C   UNL     1      43.309   2.998  11.601  0.00  0.00    +0.000 C 
ATOM     13  C   UNL     1      44.093   2.941  10.288  0.00  0.00    +0.000 C 
ATOM     14  C   UNL     1      44.040   4.466  10.192  0.00  0.00    +0.000 C 
ENDBRANCH  10  11
ENDBRANCH   5  10
ENDBRANCH   1   9
BRANCH   1  15
ATOM     15  C   UNL     1      49.027   7.690  14.268  0.00  0.00    +0.000 C 
BRANCH  15  16
ATOM     16  N   UNL     1      48.279   7.760  15.525  0.00  0.00    +0.000 N 
ATOM     17  H   UNL     1      47.271   7.759  15.408  0.00  0.00    +0.000 HD
BRANCH  16  18
ATOM     18  C   UNL     1      48.700   7.070  16.659  0.00  0.00    +0.000 A 
ATOM     19  C   UNL     1      48.774   5.676  16.727  0.00  0.00    +0.000 A 
ATOM     20  C   UNL     1      49.308   5.032  17.849  0.00  0.00    +0.000 A 
ATOM     21  C   UNL     1      49.804   5.777  18.920  0.00  0.00    +0.000 A 
ATOM     22  C   UNL     1      49.736   7.172  18.875  0.00  0.00    +0.000 A 
ATOM     23  C   UNL     1      49.202   7.805  17.745  0.00  0.00    +0.000 A 
BRANCH  21  24
ATOM     24  C   UNL     1      50.397   5.050  20.072  0.00  0.00    +0.000 C 
ATOM     25  N   UNL     1      49.542   4.359  20.884  0.00  0.00    +0.000 N 
ATOM     26  O   UNL     1      51.596   5.099  20.319  0.00  0.00    +0.000 OA
ATOM     27  H   UNL     1      48.545   4.512  20.868  0.00  0.00    +0.000 HD
ATOM     28  H   UNL     1      49.944   3.982  21.732  0.00  0.00    +0.000 HD
ENDBRANCH  21  24
ENDBRANCH  16  18
ENDBRANCH  15  16
ENDBRANCH   1  15
TORSDOF 7
ENDMDL
