MODEL 1
REMARK VINA RESULT:    -7.811      0.000      0.000
REMARK INTER + INTRA:         -10.580
REMARK INTER:                  -9.866
REMARK INTRA:                  -0.715
REMARK UNBOUND:                -0.715
REMARK  Name = 
REMARK  7 active torsions:
REMARK  status: ('A' for Active; 'I' for Inactive)
REMARK    1  A    between atoms: C_1  and  O_2
REMARK    2  A    between atoms: O_2  and  C_3
REMARK    3  A    between atoms: C_5  and  C_6
REMARK    4  A    between atoms: C_6  and  C_7
REMARK    5  A    between atoms: N_9  and  C_10
REMARK    6  A    between atoms: C_14  and  C_15
REMARK    7  A    between atoms: C_22  and  O_23
REMARK                            x       y       z     vdW  Elec       q    Type
REMARK                         _______ _______ _______ _____ _____    ______ ____
ROOT
ATOM      1  C   UNL     1      44.946   3.890  11.350  0.00  0.00    +0.000 A 
ATOM      2  C   UNL     1      45.724   3.244  12.300  0.00  0.00    +0.000 A 
ATOM      3  N   UNL     1      46.189   4.179  13.189  0.00  0.00    +0.000 N 
ATOM      4  C   UNL     1      46.973   3.901  14.369  0.00  0.00    +0.000 C 
ATOM      5  C   UNL     1      45.785   5.431  12.804  0.00  0.00    +0.000 A 
ATOM      6  N   UNL     1      46.091   6.582  13.437  0.00  0.00    +0.000 NA
ATOM      7  C   UNL     1      45.554   7.676  12.835  0.00  0.00    +0.000 A 
ATOM      8  C   UNL     1      44.767   7.678  11.684  0.00  0.00    +0.000 A 
ATOM      9  C   UNL     1      44.485   6.453  11.076  0.00  0.00    +0.000 A 
ATOM     10  C   UNL     1      45.011   5.286  11.657  0.00  0.00    +0.000 A 
ENDROOT
BRANCH   8  11
ATOM     11  C   UNL     1      44.270   8.976  11.170  0.00  0.00    +0.000 C 
ATOM     12  N   UNL     1      42.988   9.048  10.694  0.00  0.00    +0.000 N 
ATOM     13  O   UNL     1      44.982   9.972  11.161  0.00  0.00    +0.000 OA
ATOM     14  H   UNL     1      42.342   8.279  10.628  0.00  0.00    +0.000 HD
ATOM     15  H   UNL     1      42.689   9.945  10.333  0.00  0.00    +0.000 HD
ENDBRANCH   8  11
BRANCH   1  16
ATOM     16  C   UNL     1      44.210   3.265  10.208  0.00  0.00    +0.000 C 
BRANCH  16  19
ATOM     17  C   UNL     1      46.641   1.785   7.639  0.00  0.00    +0.000 A 
ATOM     18  C   UNL     1      45.710   1.890   8.678  0.00  0.00    +0.000 A 
ATOM     19  C   UNL     1      45.204   3.146   9.075  0.00  0.00    +0.000 A 
ATOM     20  C   UNL     1      45.643   4.296   8.404  0.00  0.00    +0.000 A 
ATOM     21  C   UNL     1      46.565   4.203   7.363  0.00  0.00    +0.000 A 
ATOM     22  C   UNL     1      47.059   2.955   6.989  0.00  0.00    +0.000 A 
BRANCH  17  24
ATOM     23  C   UNL     1      46.584  -0.602   7.578  0.00  0.00    +0.000 C 
ATOM     24  O   UNL     1      47.195   0.617   7.186  0.00  0.00    +0.000 OA
ENDBRANCH  17  24
BRANCH  22  25
ATOM     25  O   UNL     1      47.969   2.864   5.969  0.00  0.00    +0.000 OA
ATOM     26  H   UNL     1      47.738   3.509   5.282  0.00  0.00    +0.000 HD
ENDBRANCH  22  25
ENDBRANCH  16  19
ENDBRANCH   1  16
TORSDOF 5
ENDMDL
MODEL 2
REMARK VINA RESULT:    -7.103      3.136      6.373
REMARK INTER + INTRA:          -9.686
REMARK INTER:                  -9.245
REMARK INTRA:                  -0.441
REMARK UNBOUND:                -0.715
REMARK  Name = 
REMARK  7 active torsions:
REMARK  status: ('A' for Active; 'I' for Inactive)
REMARK    1  A    between atoms: C_1  and  O_2
REMARK    2  A    between atoms: O_2  and  C_3
REMARK    3  A    between atoms: C_5  and  C_6
REMARK    4  A    between atoms: C_6  and  C_7
REMARK    5  A    between atoms: N_9  and  C_10
REMARK    6  A    between atoms: C_14  and  C_15
REMARK    7  A    between atoms: C_22  and  O_23
REMARK                            x       y       z     vdW  Elec       q    Type
REMARK                         _______ _______ _______ _____ _____    ______ ____
ROOT
ATOM      1  C   UNL     1      45.026   5.223  10.548  0.00  0.00    +0.000 A 
ATOM      2  C   UNL     1      44.163   4.580  11.422  0.00  0.00    +0.000 A 
ATOM      3  N   UNL     1      44.054   3.267  11.038  0.00  0.00    +0.000 N 
ATOM      4  C   UNL     1      43.308   2.246  11.735  0.00  0.00    +0.000 C 
ATOM      5  C   UNL     1      44.778   3.053   9.895  0.00  0.00    +0.000 A 
ATOM      6  N   UNL     1      44.867   1.883   9.230  0.00  0.00    +0.000 NA
ATOM      7  C   UNL     1      45.657   1.959   8.127  0.00  0.00    +0.000 A 
ATOM      8  C   UNL     1      46.327   3.094   7.672  0.00  0.00    +0.000 A 
ATOM      9  C   UNL     1      46.196   4.275   8.404  0.00  0.00    +0.000 A 
ATOM     10  C   UNL     1      45.394   4.256   9.559  0.00  0.00    +0.000 A 
ENDROOT
BRANCH   8  11
ATOM     11  C   UNL     1      47.144   2.986   6.440  0.00  0.00    +0.000 C 
ATOM     12  N   UNL     1      48.444   2.568   6.547  0.00  0.00    +0.000 N 
ATOM     13  O   UNL     1      46.680   3.266   5.342  0.00  0.00    +0.000 OA
ATOM     14  H   UNL     1      48.923   2.350   7.405  0.00  0.00    +0.000 HD
ATOM     15  H   UNL     1      48.977   2.524   5.688  0.00  0.00    +0.000 HD
ENDBRANCH   8  11
BRANCH   1  16
ATOM     16  C   UNL     1      45.466   6.651  10.599  0.00  0.00    +0.000 C 
BRANCH  16  19
ATOM     17  C   UNL     1      47.810   5.975  13.557  0.00  0.00    +0.000 A 
ATOM     18  C   UNL     1      46.705   5.921  12.700  0.00  0.00    +0.000 A 
ATOM     19  C   UNL     1      46.664   6.695  11.520  0.00  0.00    +0.000 A 
ATOM     20  C   UNL     1      47.756   7.518  11.211  0.00  0.00    +0.000 A 
ATOM     21  C   UNL     1      48.865   7.575  12.054  0.00  0.00    +0.000 A 
ATOM     22  C   UNL     1      48.885   6.809  13.218  0.00  0.00    +0.000 A 
BRANCH  17  24
ATOM     23  C   UNL     1      46.905   4.367  15.074  0.00  0.00    +0.000 C 
ATOM     24  O   UNL     1      47.942   5.272  14.725  0.00  0.00    +0.000 OA
ENDBRANCH  17  24
BRANCH  22  25
ATOM     25  O   UNL     1      49.973   6.869  14.050  0.00  0.00    +0.000 OA
ATOM     26  H   UNL     1      50.274   7.788  14.108  0.00  0.00    +0.000 HD
ENDBRANCH  22  25
ENDBRANCH  16  19
ENDBRANCH   1  16
TORSDOF 5
ENDMDL
MODEL 3
REMARK VINA RESULT:    -7.001      2.024      2.990
REMARK INTER + INTRA:          -9.557
REMARK INTER:                  -9.172
REMARK INTRA:                  -0.385
REMARK UNBOUND:                -0.715
REMARK  Name = 
REMARK  7 active torsions:
REMARK  status: ('A' for Active; 'I' for Inactive)
REMARK    1  A    between atoms: C_1  and  O_2
REMARK    2  A    between atoms: O_2  and  C_3
REMARK    3  A    between atoms: C_5  and  C_6
REMARK    4  A    between atoms: C_6  and  C_7
REMARK    5  A    between atoms: N_9  and  C_10
REMARK    6  A    between atoms: C_14  and  C_15
REMARK    7  A    between atoms: C_22  and  O_23
REMARK                            x       y       z     vdW  Elec       q    Type
REMARK                         _______ _______ _______ _____ _____    ______ ____
ROOT
ATOM      1  C   UNL     1      44.588   4.831  10.210  0.00  0.00    +0.000 A 
ATOM      2  C   UNL     1      43.615   4.274  11.027  0.00  0.00    +0.000 A 
ATOM      3  N   UNL     1      43.871   4.646  12.323  0.00  0.00    +0.000 N 
ATOM      4  C   UNL     1      43.047   4.334  13.466  0.00  0.00    +0.000 C 
ATOM      5  C   UNL     1      45.026   5.381  12.378  0.00  0.00    +0.000 A 
ATOM      6  N   UNL     1      45.584   5.881  13.500  0.00  0.00    +0.000 NA
ATOM      7  C   UNL     1      46.730   6.572  13.259  0.00  0.00    +0.000 A 
ATOM      8  C   UNL     1      47.320   6.775  12.012  0.00  0.00    +0.000 A 
ATOM      9  C   UNL     1      46.693   6.233  10.888  0.00  0.00    +0.000 A 
ATOM     10  C   UNL     1      45.502   5.511  11.077  0.00  0.00    +0.000 A 
ENDROOT
BRANCH   8  11
ATOM     11  C   UNL     1      48.578   7.557  11.945  0.00  0.00    +0.000 C 
ATOM     12  N   UNL     1      49.713   7.024  12.494  0.00  0.00    +0.000 N 
ATOM     13  O   UNL     1      48.614   8.660  11.415  0.00  0.00    +0.000 OA
ATOM     14  H   UNL     1      49.776   6.145  12.979  0.00  0.00    +0.000 HD
ATOM     15  H   UNL     1      50.549   7.594  12.446  0.00  0.00    +0.000 HD
ENDBRANCH   8  11
BRANCH   1  16
ATOM     16  C   UNL     1      44.689   4.720   8.722  0.00  0.00    +0.000 C 
BRANCH  16  19
ATOM     17  C   UNL     1      47.001   1.993   7.338  0.00  0.00    +0.000 A 
ATOM     18  C   UNL     1      46.443   3.247   7.612  0.00  0.00    +0.000 A 
ATOM     19  C   UNL     1      45.305   3.369   8.437  0.00  0.00    +0.000 A 
ATOM     20  C   UNL     1      44.741   2.211   8.990  0.00  0.00    +0.000 A 
ATOM     21  C   UNL     1      45.293   0.957   8.730  0.00  0.00    +0.000 A 
ATOM     22  C   UNL     1      46.413   0.855   7.907  0.00  0.00    +0.000 A 
BRANCH  17  24
ATOM     23  C   UNL     1      48.107   2.349   5.251  0.00  0.00    +0.000 C 
ATOM     24  O   UNL     1      48.096   1.769   6.546  0.00  0.00    +0.000 OA
ENDBRANCH  17  24
BRANCH  22  25
ATOM     25  O   UNL     1      46.952  -0.378   7.647  0.00  0.00    +0.000 OA
ATOM     26  H   UNL     1      46.404  -0.828   6.986  0.00  0.00    +0.000 HD
ENDBRANCH  22  25
ENDBRANCH  16  19
ENDBRANCH   1  16
TORSDOF 5
ENDMDL
MODEL 4
REMARK VINA RESULT:    -6.921      2.558      4.633
REMARK INTER + INTRA:          -9.456
REMARK INTER:                  -8.584
REMARK INTRA:                  -0.873
REMARK UNBOUND:                -0.715
REMARK  Name = 
REMARK  7 active torsions:
REMARK  status: ('A' for Active; 'I' for Inactive)
REMARK    1  A    between atoms: C_1  and  O_2
REMARK    2  A    between atoms: O_2  and  C_3
REMARK    3  A    between atoms: C_5  and  C_6
REMARK    4  A    between atoms: C_6  and  C_7
REMARK    5  A    between atoms: N_9  and  C_10
REMARK    6  A    between atoms: C_14  and  C_15
REMARK    7  A    between atoms: C_22  and  O_23
REMARK                            x       y       z     vdW  Elec       q    Type
REMARK                         _______ _______ _______ _____ _____    ______ ____
ROOT
ATOM      1  C   UNL     1      44.643   6.671  12.049  0.00  0.00    +0.000 A 
ATOM      2  C   UNL     1      45.076   7.909  11.595  0.00  0.00    +0.000 A 
ATOM      3  N   UNL     1      46.321   8.152  12.117  0.00  0.00    +0.000 N 
ATOM      4  C   UNL     1      47.147   9.300  11.826  0.00  0.00    +0.000 C 
ATOM      5  C   UNL     1      46.685   7.129  12.954  0.00  0.00    +0.000 A 
ATOM      6  N   UNL     1      47.835   7.061  13.655  0.00  0.00    +0.000 NA
ATOM      7  C   UNL     1      47.933   5.931  14.404  0.00  0.00    +0.000 A 
ATOM      8  C   UNL     1      46.982   4.914  14.486  0.00  0.00    +0.000 A 
ATOM      9  C   UNL     1      45.812   5.043  13.734  0.00  0.00    +0.000 A 
ATOM     10  C   UNL     1      45.657   6.191  12.937  0.00  0.00    +0.000 A 
ENDROOT
BRANCH   8  11
ATOM     11  C   UNL     1      47.264   3.752  15.362  0.00  0.00    +0.000 C 
ATOM     12  N   UNL     1      46.937   3.834  16.689  0.00  0.00    +0.000 N 
ATOM     13  O   UNL     1      47.781   2.733  14.921  0.00  0.00    +0.000 OA
ATOM     14  H   UNL     1      46.542   4.638  17.149  0.00  0.00    +0.000 HD
ATOM     15  H   UNL     1      47.160   3.029  17.261  0.00  0.00    +0.000 HD
ENDBRANCH   8  11
BRANCH   1  16
ATOM     16  C   UNL     1      43.360   5.984  11.710  0.00  0.00    +0.000 C 
BRANCH  16  19
ATOM     17  C   UNL     1      44.697   3.566   9.052  0.00  0.00    +0.000 A 
ATOM     18  C   UNL     1      44.362   4.747   9.724  0.00  0.00    +0.000 A 
ATOM     19  C   UNL     1      43.737   4.710  10.988  0.00  0.00    +0.000 A 
ATOM     20  C   UNL     1      43.460   3.465  11.571  0.00  0.00    +0.000 A 
ATOM     21  C   UNL     1      43.795   2.282  10.914  0.00  0.00    +0.000 A 
ATOM     22  C   UNL     1      44.406   2.339   9.663  0.00  0.00    +0.000 A 
BRANCH  17  24
ATOM     23  C   UNL     1      46.504   4.218   7.632  0.00  0.00    +0.000 C 
ATOM     24  O   UNL     1      45.297   3.497   7.822  0.00  0.00    +0.000 OA
ENDBRANCH  17  24
BRANCH  22  25
ATOM     25  O   UNL     1      44.731   1.175   9.015  0.00  0.00    +0.000 OA
ATOM     26  H   UNL     1      44.283   0.435   9.453  0.00  0.00    +0.000 HD
ENDBRANCH  22  25
ENDBRANCH  16  19
ENDBRANCH   1  16
TORSDOF 5
ENDMDL
MODEL 5
REMARK VINA RESULT:    -6.391      2.716      3.683
REMARK INTER + INTRA:          -8.787
REMARK INTER:                  -8.420
REMARK INTRA:                  -0.367
REMARK UNBOUND:                -0.715
REMARK  Name = 
REMARK  7 active torsions:
REMARK  status: ('A' for Active; 'I' for Inactive)
REMARK    1  A    between atoms: C_1  and  O_2
REMARK    2  A    between atoms: O_2  and  C_3
REMARK    3  A    between atoms: C_5  and  C_6
REMARK    4  A    between atoms: C_6  and  C_7
REMARK    5  A    between atoms: N_9  and  C_10
REMARK    6  A    between atoms: C_14  and  C_15
REMARK    7  A    between atoms: C_22  and  O_23
REMARK                            x       y       z     vdW  Elec       q    Type
REMARK                         _______ _______ _______ _____ _____    ______ ____
ROOT
ATOM      1  C   UNL     1      45.900   5.969  12.458  0.00  0.00    +0.000 A 
ATOM      2  C   UNL     1      45.858   5.076  13.519  0.00  0.00    +0.000 A 
ATOM      3  N   UNL     1      46.991   5.246  14.274  0.00  0.00    +0.000 N 
ATOM      4  C   UNL     1      47.291   4.558  15.508  0.00  0.00    +0.000 C 
ATOM      5  C   UNL     1      47.803   6.185  13.694  0.00  0.00    +0.000 A 
ATOM      6  N   UNL     1      49.009   6.573  14.158  0.00  0.00    +0.000 NA
ATOM      7  C   UNL     1      49.593   7.524  13.382  0.00  0.00    +0.000 A 
ATOM      8  C   UNL     1      49.062   8.077  12.218  0.00  0.00    +0.000 A 
ATOM      9  C   UNL     1      47.809   7.633  11.789  0.00  0.00    +0.000 A 
ATOM     10  C   UNL     1      47.153   6.653  12.555  0.00  0.00    +0.000 A 
ENDROOT
BRANCH   8  11
ATOM     11  C   UNL     1      49.850   9.106  11.499  0.00  0.00    +0.000 C 
ATOM     12  N   UNL     1      49.254  10.302  11.201  0.00  0.00    +0.000 N 
ATOM     13  O   UNL     1      51.012   8.901  11.169  0.00  0.00    +0.000 OA
ATOM     14  H   UNL     1      48.299  10.548  11.400  0.00  0.00    +0.000 HD
ATOM     15  H   UNL     1      49.817  10.973  10.694  0.00  0.00    +0.000 HD
ENDBRANCH   8  11
BRANCH   1  16
ATOM     16  C   UNL     1      44.863   6.162  11.398  0.00  0.00    +0.000 C 
BRANCH  16  19
ATOM     17  C   UNL     1      45.247   3.565   8.604  0.00  0.00    +0.000 A 
ATOM     18  C   UNL     1      45.324   4.764   9.321  0.00  0.00    +0.000 A 
ATOM     19  C   UNL     1      44.796   4.864  10.626  0.00  0.00    +0.000 A 
ATOM     20  C   UNL     1      44.197   3.735  11.203  0.00  0.00    +0.000 A 
ATOM     21  C   UNL     1      44.121   2.533  10.500  0.00  0.00    +0.000 A 
ATOM     22  C   UNL     1      44.642   2.456   9.210  0.00  0.00    +0.000 A 
BRANCH  17  24
ATOM     23  C   UNL     1      47.120   3.201   7.166  0.00  0.00    +0.000 C 
ATOM     24  O   UNL     1      45.721   3.370   7.334  0.00  0.00    +0.000 OA
ENDBRANCH  17  24
BRANCH  22  25
ATOM     25  O   UNL     1      44.563   1.275   8.518  0.00  0.00    +0.000 OA
ATOM     26  H   UNL     1      44.167   1.445   7.649  0.00  0.00    +0.000 HD
ENDBRANCH  22  25
ENDBRANCH  16  19
ENDBRANCH   1  16
TORSDOF 5
ENDMDL
MODEL 6
REMARK VINA RESULT:    -6.248      4.608      6.828
REMARK INTER + INTRA:          -8.606
REMARK INTER:                  -7.884
REMARK INTRA:                  -0.722
REMARK UNBOUND:                -0.715
REMARK  Name = 
REMARK  7 active torsions:
REMARK  status: ('A' for Active; 'I' for Inactive)
REMARK    1  A    between atoms: C_1  and  O_2
REMARK    2  A    between atoms: O_2  and  C_3
REMARK    3  A    between atoms: C_5  and  C_6
REMARK    4  A    between atoms: C_6  and  C_7
REMARK    5  A    between atoms: N_9  and  C_10
REMARK    6  A    between atoms: C_14  and  C_15
REMARK    7  A    between atoms: C_22  and  O_23
REMARK                            x       y       z     vdW  Elec       q    Type
REMARK                         _______ _______ _______ _____ _____    ______ ____
ROOT
ATOM      1  C   UNL     1      48.505   6.893  14.150  0.00  0.00    +0.000 A 
ATOM      2  C   UNL     1      48.880   8.214  14.347  0.00  0.00    +0.000 A 
ATOM      3  N   UNL     1      49.037   8.425  15.693  0.00  0.00    +0.000 N 
ATOM      4  C   UNL     1      49.495   9.650  16.306  0.00  0.00    +0.000 C 
ATOM      5  C   UNL     1      48.711   7.288  16.385  0.00  0.00    +0.000 A 
ATOM      6  N   UNL     1      48.727   7.156  17.728  0.00  0.00    +0.000 NA
ATOM      7  C   UNL     1      48.358   5.915  18.142  0.00  0.00    +0.000 A 
ATOM      8  C   UNL     1      47.987   4.850  17.321  0.00  0.00    +0.000 A 
ATOM      9  C   UNL     1      47.992   5.050  15.939  0.00  0.00    +0.000 A 
ATOM     10  C   UNL     1      48.370   6.314  15.452  0.00  0.00    +0.000 A 
ENDROOT
BRANCH   8  11
ATOM     11  C   UNL     1      47.611   3.565  17.956  0.00  0.00    +0.000 C 
ATOM     12  N   UNL     1      48.291   3.161  19.074  0.00  0.00    +0.000 N 
ATOM     13  O   UNL     1      46.716   2.867  17.499  0.00  0.00    +0.000 OA
ATOM     14  H   UNL     1      49.062   3.646  19.502  0.00  0.00    +0.000 HD
ATOM     15  H   UNL     1      48.020   2.269  19.470  0.00  0.00    +0.000 HD
ENDBRANCH   8  11
BRANCH   1  16
ATOM     16  C   UNL     1      48.255   6.211  12.843  0.00  0.00    +0.000 C 
BRANCH  16  19
ATOM     17  C   UNL     1      44.611   5.019  12.882  0.00  0.00    +0.000 A 
ATOM     18  C   UNL     1      45.998   5.055  13.066  0.00  0.00    +0.000 A 
ATOM     19  C   UNL     1      46.755   6.175  12.661  0.00  0.00    +0.000 A 
ATOM     20  C   UNL     1      46.094   7.264  12.076  0.00  0.00    +0.000 A 
ATOM     21  C   UNL     1      44.712   7.242  11.894  0.00  0.00    +0.000 A 
ATOM     22  C   UNL     1      43.982   6.124  12.294  0.00  0.00    +0.000 A 
BRANCH  17  24
ATOM     23  C   UNL     1      43.654   2.905  12.316  0.00  0.00    +0.000 C 
ATOM     24  O   UNL     1      43.792   3.979  13.233  0.00  0.00    +0.000 OA
ENDBRANCH  17  24
BRANCH  22  25
ATOM     25  O   UNL     1      42.624   6.102  12.111  0.00  0.00    +0.000 OA
ATOM     26  H   UNL     1      42.200   6.597  12.828  0.00  0.00    +0.000 HD
ENDBRANCH  22  25
ENDBRANCH  16  19
ENDBRANCH   1  16
TORSDOF 5
ENDMDL
MODEL 7
REMARK VINA RESULT:    -6.047      3.792      7.521
REMARK INTER + INTRA:          -8.353
REMARK INTER:                  -7.689
REMARK INTRA:                  -0.664
REMARK UNBOUND:                -0.715
REMARK  Name = 
REMARK  7 active torsions:
REMARK  status: ('A' for Active; 'I' for Inactive)
REMARK    1  A    between atoms: C_1  and  O_2
REMARK    2  A    between atoms: O_2  and  C_3
REMARK    3  A    between atoms: C_5  and  C_6
REMARK    4  A    between atoms: C_6  and  C_7
REMARK    5  A    between atoms: N_9  and  C_10
REMARK    6  A    between atoms: C_14  and  C_15
REMARK    7  A    between atoms: C_22  and  O_23
REMARK                            x       y       z     vdW  Elec       q    Type
REMARK                         _______ _______ _______ _____ _____    ______ ____
ROOT
ATOM      1  C   UNL     1      47.068   6.855  12.761  0.00  0.00    +0.000 A 
ATOM      2  C   UNL     1      46.741   8.203  12.783  0.00  0.00    +0.000 A 
ATOM      3  N   UNL     1      45.459   8.346  12.315  0.00  0.00    +0.000 N 
ATOM      4  C   UNL     1      44.721   9.586  12.251  0.00  0.00    +0.000 C 
ATOM      5  C   UNL     1      44.964   7.128  11.929  0.00  0.00    +0.000 A 
ATOM      6  N   UNL     1      43.743   6.911  11.397  0.00  0.00    +0.000 NA
ATOM      7  C   UNL     1      43.517   5.603  11.108  0.00  0.00    +0.000 A 
ATOM      8  C   UNL     1      44.407   4.550  11.311  0.00  0.00    +0.000 A 
ATOM      9  C   UNL     1      45.655   4.839  11.867  0.00  0.00    +0.000 A 
ATOM     10  C   UNL     1      45.945   6.177  12.190  0.00  0.00    +0.000 A 
ENDROOT
BRANCH   8  11
ATOM     11  C   UNL     1      43.983   3.181  10.930  0.00  0.00    +0.000 C 
ATOM     12  N   UNL     1      44.756   2.475  10.048  0.00  0.00    +0.000 N 
ATOM     13  O   UNL     1      42.962   2.682  11.385  0.00  0.00    +0.000 OA
ATOM     14  H   UNL     1      45.590   2.812   9.595  0.00  0.00    +0.000 HD
ATOM     15  H   UNL     1      44.426   1.552   9.796  0.00  0.00    +0.000 HD
ENDBRANCH   8  11
BRANCH   1  16
ATOM     16  C   UNL     1      48.349   6.229  13.211  0.00  0.00    +0.000 C 
BRANCH  16  19
ATOM     17  C   UNL     1      48.471   6.035  17.038  0.00  0.00    +0.000 A 
ATOM     18  C   UNL     1      48.672   6.473  15.724  0.00  0.00    +0.000 A 
ATOM     19  C   UNL     1      48.121   5.768  14.633  0.00  0.00    +0.000 A 
ATOM     20  C   UNL     1      47.357   4.620  14.884  0.00  0.00    +0.000 A 
ATOM     21  C   UNL     1      47.145   4.178  16.189  0.00  0.00    +0.000 A 
ATOM     22  C   UNL     1      47.702   4.883  17.254  0.00  0.00    +0.000 A 
BRANCH  17  24
ATOM     23  C   UNL     1      48.381   7.870  18.566  0.00  0.00    +0.000 C 
ATOM     24  O   UNL     1      48.969   6.643  18.161  0.00  0.00    +0.000 OA
ENDBRANCH  17  24
BRANCH  22  25
ATOM     25  O   UNL     1      47.497   4.446  18.537  0.00  0.00    +0.000 OA
ATOM     26  H   UNL     1      47.482   5.211  19.132  0.00  0.00    +0.000 HD
ENDBRANCH  22  25
ENDBRANCH  16  19
ENDBRANCH   1  16
TORSDOF 5
ENDMDL
MODEL 8
REMARK VINA RESULT:    -5.994      5.120      8.139
REMARK INTER + INTRA:          -8.285
REMARK INTER:                  -7.449
REMARK INTRA:                  -0.836
REMARK UNBOUND:                -0.715
REMARK  Name = 
REMARK  7 active torsions:
REMARK  status: ('A' for Active; 'I' for Inactive)
REMARK    1  A    between atoms: C_1  and  O_2
REMARK    2  A    between atoms: O_2  and  C_3
REMARK    3  A    between atoms: C_5  and  C_6
REMARK    4  A    between atoms: C_6  and  C_7
REMARK    5  A    between atoms: N_9  and  C_10
REMARK    6  A    between atoms: C_14  and  C_15
REMARK    7  A    between atoms: C_22  and  O_23
REMARK                            x       y       z     vdW  Elec       q    Type
REMARK                         _______ _______ _______ _____ _____    ______ ____
ROOT
ATOM      1  C   UNL     1      48.626   6.124  16.176  0.00  0.00    +0.000 A 
ATOM      2  C   UNL     1      49.538   7.143  15.945  0.00  0.00    +0.000 A 
ATOM      3  N   UNL     1      49.387   7.576  14.652  0.00  0.00    +0.000 N 
ATOM      4  C   UNL     1      50.099   8.676  14.044  0.00  0.00    +0.000 C 
ATOM      5  C   UNL     1      48.440   6.819  14.013  0.00  0.00    +0.000 A 
ATOM      6  N   UNL     1      48.064   6.957  12.725  0.00  0.00    +0.000 NA
ATOM      7  C   UNL     1      47.102   6.071  12.357  0.00  0.00    +0.000 A 
ATOM      8  C   UNL     1      46.525   5.097  13.171  0.00  0.00    +0.000 A 
ATOM      9  C   UNL     1      46.956   5.006  14.496  0.00  0.00    +0.000 A 
ATOM     10  C   UNL     1      47.948   5.900  14.935  0.00  0.00    +0.000 A 
ENDROOT
BRANCH   8  11
ATOM     11  C   UNL     1      45.485   4.214  12.590  0.00  0.00    +0.000 C 
ATOM     12  N   UNL     1      45.587   2.863  12.785  0.00  0.00    +0.000 N 
ATOM     13  O   UNL     1      44.551   4.671  11.943  0.00  0.00    +0.000 OA
ATOM     14  H   UNL     1      46.333   2.393  13.270  0.00  0.00    +0.000 HD
ATOM     15  H   UNL     1      44.870   2.289  12.359  0.00  0.00    +0.000 HD
ENDBRANCH   8  11
BRANCH   1  16
ATOM     16  C   UNL     1      48.409   5.378  17.453  0.00  0.00    +0.000 C 
BRANCH  16  19
ATOM     17  C   UNL     1      51.477   3.090  17.674  0.00  0.00    +0.000 A 
ATOM     18  C   UNL     1      50.657   4.221  17.750  0.00  0.00    +0.000 A 
ATOM     19  C   UNL     1      49.295   4.155  17.387  0.00  0.00    +0.000 A 
ATOM     20  C   UNL     1      48.768   2.930  16.953  0.00  0.00    +0.000 A 
ATOM     21  C   UNL     1      49.574   1.795  16.880  0.00  0.00    +0.000 A 
ATOM     22  C   UNL     1      50.919   1.881  17.236  0.00  0.00    +0.000 A 
BRANCH  17  24
ATOM     23  C   UNL     1      53.176   3.350  19.334  0.00  0.00    +0.000 C 
ATOM     24  O   UNL     1      52.809   3.054  17.995  0.00  0.00    +0.000 OA
ENDBRANCH  17  24
BRANCH  22  25
ATOM     25  O   UNL     1      51.712   0.767  17.159  0.00  0.00    +0.000 OA
ATOM     26  H   UNL     1      51.405   0.211  16.427  0.00  0.00    +0.000 HD
ENDBRANCH  22  25
ENDBRANCH  16  19
ENDBRANCH   1  16
TORSDOF 5
ENDMDL
MODEL 9
REMARK VINA RESULT:    -5.793      4.023      6.396
REMARK INTER + INTRA:          -8.032
REMARK INTER:                  -7.441
REMARK INTRA:                  -0.590
REMARK UNBOUND:                -0.715
REMARK  Name = 
REMARK  7 active torsions:
REMARK  status: ('A' for Active; 'I' for Inactive)
REMARK    1  A    between atoms: C_1  and  O_2
REMARK    2  A    between atoms: O_2  and  C_3
REMARK    3  A    between atoms: C_5  and  C_6
REMARK    4  A    between atoms: C_6  and  C_7
REMARK    5  A    between atoms: N_9  and  C_10
REMARK    6  A    between atoms: C_14  and  C_15
REMARK    7  A    between atoms: C_22  and  O_23
REMARK                            x       y       z     vdW  Elec       q    Type
REMARK                         _______ _______ _______ _____ _____    ______ ____
ROOT
ATOM      1  C   UNL     1      47.035   6.937  12.664  0.00  0.00    +0.000 A 
ATOM      2  C   UNL     1      47.511   6.689  13.943  0.00  0.00    +0.000 A 
ATOM      3  N   UNL     1      47.189   5.400  14.284  0.00  0.00    +0.000 N 
ATOM      4  C   UNL     1      47.572   4.731  15.505  0.00  0.00    +0.000 C 
ATOM      5  C   UNL     1      46.457   4.820  13.280  0.00  0.00    +0.000 A 
ATOM      6  N   UNL     1      45.952   3.569  13.300  0.00  0.00    +0.000 NA
ATOM      7  C   UNL     1      45.268   3.257  12.168  0.00  0.00    +0.000 A 
ATOM      8  C   UNL     1      45.067   4.093  11.071  0.00  0.00    +0.000 A 
ATOM      9  C   UNL     1      45.615   5.377  11.111  0.00  0.00    +0.000 A 
ATOM     10  C   UNL     1      46.338   5.755  12.256  0.00  0.00    +0.000 A 
ENDROOT
BRANCH   8  11
ATOM     11  C   UNL     1      44.287   3.577   9.921  0.00  0.00    +0.000 C 
ATOM     12  N   UNL     1      44.105   4.388   8.833  0.00  0.00    +0.000 N 
ATOM     13  O   UNL     1      43.806   2.451   9.933  0.00  0.00    +0.000 OA
ATOM     14  H   UNL     1      44.430   5.336   8.745  0.00  0.00    +0.000 HD
ATOM     15  H   UNL     1      43.552   4.009   8.074  0.00  0.00    +0.000 HD
ENDBRANCH   8  11
BRANCH   1  16
ATOM     16  C   UNL     1      47.185   8.197  11.873  0.00  0.00    +0.000 C 
BRANCH  16  19
ATOM     17  C   UNL     1      51.005   8.181  11.551  0.00  0.00    +0.000 A 
ATOM     18  C   UNL     1      49.661   7.810  11.429  0.00  0.00    +0.000 A 
ATOM     19  C   UNL     1      48.637   8.602  11.989  0.00  0.00    +0.000 A 
ATOM     20  C   UNL     1      48.984   9.779  12.668  0.00  0.00    +0.000 A 
ATOM     21  C   UNL     1      50.319  10.161  12.790  0.00  0.00    +0.000 A 
ATOM     22  C   UNL     1      51.318   9.363  12.235  0.00  0.00    +0.000 A 
BRANCH  17  24
ATOM     23  C   UNL     1      52.119   7.258   9.649  0.00  0.00    +0.000 C 
ATOM     24  O   UNL     1      52.069   7.478  11.050  0.00  0.00    +0.000 OA
ENDBRANCH  17  24
BRANCH  22  25
ATOM     25  O   UNL     1      52.630   9.737  12.360  0.00  0.00    +0.000 OA
ATOM     26  H   UNL     1      53.112   9.043  12.836  0.00  0.00    +0.000 HD
ENDBRANCH  22  25
ENDBRANCH  16  19
ENDBRANCH   1  16
TORSDOF 5
ENDMDL
