MODEL 1
REMARK VINA RESULT:    -8.014      0.000      0.000
REMARK INTER + INTRA:         -10.349
REMARK INTER:                  -9.888
REMARK INTRA:                  -0.461
REMARK UNBOUND:                -0.461
REMARK  Name = 
REMARK  4 active torsions:
REMARK  status: ('A' for Active; 'I' for Inactive)
REMARK    1  A    between atoms: C_2  and  C_4
REMARK    2  A    between atoms: C_7  and  C_8
REMARK    3  A    between atoms: C_8  and  C_9
REMARK    4  A    between atoms: C_9  and  C_10
REMARK                            x       y       z     vdW  Elec       q    Type
REMARK                         _______ _______ _______ _____ _____    ______ ____
ROOT
ATOM      1  C   UNL     1      46.436   2.334   7.850  0.00  0.00    +0.000 A 
ATOM      2  N   UNL     1      45.634   1.691   8.730  0.00  0.00    +0.000 NA
ATOM      3  C   UNL     1      44.821   2.483   9.457  0.00  0.00    +0.000 A 
ATOM      4  C   UNL     1      44.791   3.864   9.371  0.00  0.00    +0.000 A 
ATOM      5  C   UNL     1      45.656   4.395   8.430  0.00  0.00    +0.000 A 
ATOM      6  N   UNL     1      46.484   3.664   7.659  0.00  0.00    +0.000 NA
ENDROOT
BRANCH   1   8
ATOM      7  N   UNL     1      48.380   2.105   6.384  0.00  0.00    +0.000 N 
ATOM      8  C   UNL     1      47.311   1.464   6.973  0.00  0.00    +0.000 C 
ATOM      9  O   UNL     1      47.127   0.270   6.784  0.00  0.00    +0.000 OA
ATOM     10  H   UNL     1      49.025   1.565   5.825  0.00  0.00    +0.000 HD
ATOM     11  H   UNL     1      48.547   3.086   6.568  0.00  0.00    +0.000 HD
ENDBRANCH   1   8
BRANCH   4  12
ATOM     12  C   UNL     1      43.838   4.746  10.130  0.00  0.00    +0.000 C 
BRANCH  12  13
ATOM     13  C   UNL     1      44.050   4.768  11.644  0.00  0.00    +0.000 C 
ATOM     14  C   UNL     1      43.359   3.694  12.468  0.00  0.00    +0.000 C 
ATOM     15  C   UNL     1      42.834   5.095  12.509  0.00  0.00    +0.000 C 
BRANCH  13  16
ATOM     16  C   UNL     1      45.373   5.374  12.111  0.00  0.00    +0.000 A 
ATOM     17  C   UNL     1      45.997   6.430  11.425  0.00  0.00    +0.000 A 
ATOM     18  C   UNL     1      47.158   7.039  11.910  0.00  0.00    +0.000 A 
ATOM     19  C   UNL     1      47.739   6.584  13.089  0.00  0.00    +0.000 A 
ATOM     20  C   UNL     1      47.158   5.517  13.760  0.00  0.00    +0.000 A 
ATOM     21  F   UNL     1      47.718   5.065  14.891  0.00  0.00    +0.000 F 
ATOM     22  C   UNL     1      45.995   4.918  13.288  0.00  0.00    +0.000 A 
ENDBRANCH  13  16
ENDBRANCH  12  13
ENDBRANCH   4  12
TORSDOF 4
ENDMDL
MODEL 2
REMARK VINA RESULT:    -8.000      1.058      1.835
REMARK INTER + INTRA:         -10.331
REMARK INTER:                  -9.923
REMARK INTRA:                  -0.409
REMARK UNBOUND:                -0.461
REMARK  Name = 
REMARK  4 active torsions:
REMARK  status: ('A' for Active; 'I' for Inactive)
REMARK    1  A    between atoms: C_2  and  C_4
REMARK    2  A    between atoms: C_7  and  C_8
REMARK    3  A    between atoms: C_8  and  C_9
REMARK    4  A    between atoms: C_9  and  C_10
REMARK                            x       y       z     vdW  Elec       q    Type
REMARK                         _______ _______ _______ _____ _____    ______ ____
ROOT
ATOM      1  C   UNL     1      46.375   2.595   7.776  0.00  0.00    +0.000 A 
ATOM      2  N   UNL     1      46.375   3.940   7.624  0.00  0.00    +0.000 NA
ATOM      3  C   UNL     1      45.531   4.613   8.433  0.00  0.00    +0.000 A 
ATOM      4  C   UNL     1      44.682   4.016   9.348  0.00  0.00    +0.000 A 
ATOM      5  C   UNL     1      44.784   2.637   9.406  0.00  0.00    +0.000 A 
ATOM      6  N   UNL     1      45.614   1.903   8.641  0.00  0.00    +0.000 NA
ENDROOT
BRANCH   1   8
ATOM      7  N   UNL     1      48.453   2.538   6.487  0.00  0.00    +0.000 N 
ATOM      8  C   UNL     1      47.361   1.821   6.928  0.00  0.00    +0.000 C 
ATOM      9  O   UNL     1      47.244   0.637   6.640  0.00  0.00    +0.000 OA
ATOM     10  H   UNL     1      49.168   2.062   5.956  0.00  0.00    +0.000 HD
ATOM     11  H   UNL     1      48.563   3.509   6.753  0.00  0.00    +0.000 HD
ENDBRANCH   1   8
BRANCH   4  12
ATOM     12  C   UNL     1      43.789   4.766  10.299  0.00  0.00    +0.000 C 
BRANCH  12  13
ATOM     13  C   UNL     1      44.103   4.550  11.780  0.00  0.00    +0.000 C 
ATOM     14  C   UNL     1      43.545   3.302  12.445  0.00  0.00    +0.000 C 
ATOM     15  C   UNL     1      42.930   4.631  12.755  0.00  0.00    +0.000 C 
BRANCH  13  16
ATOM     16  C   UNL     1      45.411   5.172  12.270  0.00  0.00    +0.000 A 
ATOM     17  C   UNL     1      46.179   4.591  13.293  0.00  0.00    +0.000 A 
ATOM     18  C   UNL     1      47.419   5.116  13.671  0.00  0.00    +0.000 A 
ATOM     19  C   UNL     1      47.909   6.257  13.046  0.00  0.00    +0.000 A 
ATOM     20  C   UNL     1      47.146   6.866  12.060  0.00  0.00    +0.000 A 
ATOM     21  F   UNL     1      47.606   7.973  11.459  0.00  0.00    +0.000 F 
ATOM     22  C   UNL     1      45.920   6.339  11.670  0.00  0.00    +0.000 A 
ENDBRANCH  13  16
ENDBRANCH  12  13
ENDBRANCH   4  12
TORSDOF 4
ENDMDL
MODEL 3
REMARK VINA RESULT:    -6.926      1.602      2.107
REMARK INTER + INTRA:          -9.006
REMARK INTER:                  -8.795
REMARK INTRA:                  -0.211
REMARK UNBOUND:                -0.461
REMARK  Name = 
REMARK  4 active torsions:
REMARK  status: ('A' for Active; 'I' for Inactive)
REMARK    1  A    between atoms: C_2  and  C_4
REMARK    2  A    between atoms: C_7  and  C_8
REMARK    3  A    between atoms: C_8  and  C_9
REMARK    4  A    between atoms: C_9  and  C_10
REMARK                            x       y       z     vdW  Elec       q    Type
REMARK                         _______ _______ _______ _____ _____    ______ ____
ROOT
ATOM      1  C   UNL     1      46.019   2.201   8.249  0.00  0.00    +0.000 A 
ATOM      2  N   UNL     1      46.274   3.510   8.017  0.00  0.00    +0.000 NA
ATOM      3  C   UNL     1      45.481   4.379   8.676  0.00  0.00    +0.000 A 
ATOM      4  C   UNL     1      44.445   4.011   9.517  0.00  0.00    +0.000 A 
ATOM      5  C   UNL     1      44.294   2.644   9.671  0.00  0.00    +0.000 A 
ATOM      6  N   UNL     1      45.058   1.720   9.058  0.00  0.00    +0.000 NA
ENDROOT
BRANCH   1   8
ATOM      7  N   UNL     1      47.827   1.741   6.667  0.00  0.00    +0.000 N 
ATOM      8  C   UNL     1      46.937   1.205   7.575  0.00  0.00    +0.000 C 
ATOM      9  O   UNL     1      46.933   0.002   7.799  0.00  0.00    +0.000 OA
ATOM     10  H   UNL     1      48.496   1.130   6.221  0.00  0.00    +0.000 HD
ATOM     11  H   UNL     1      47.848   2.740   6.508  0.00  0.00    +0.000 HD
ENDBRANCH   1   8
BRANCH   4  12
ATOM     12  C   UNL     1      43.603   4.976  10.306  0.00  0.00    +0.000 C 
BRANCH  12  13
ATOM     13  C   UNL     1      44.139   5.305  11.700  0.00  0.00    +0.000 C 
ATOM     14  C   UNL     1      44.708   4.162  12.525  0.00  0.00    +0.000 C 
ATOM     15  C   UNL     1      43.373   4.730  12.890  0.00  0.00    +0.000 C 
BRANCH  13  16
ATOM     16  C   UNL     1      44.664   6.729  11.881  0.00  0.00    +0.000 A 
ATOM     17  C   UNL     1      44.130   7.819  11.172  0.00  0.00    +0.000 A 
ATOM     18  C   UNL     1      44.553   9.130  11.411  0.00  0.00    +0.000 A 
ATOM     19  C   UNL     1      45.545   9.378  12.353  0.00  0.00    +0.000 A 
ATOM     20  C   UNL     1      46.112   8.310  13.034  0.00  0.00    +0.000 A 
ATOM     21  F   UNL     1      47.077   8.539  13.936  0.00  0.00    +0.000 F 
ATOM     22  C   UNL     1      45.683   7.006  12.810  0.00  0.00    +0.000 A 
ENDBRANCH  13  16
ENDBRANCH  12  13
ENDBRANCH   4  12
TORSDOF 4
ENDMDL
MODEL 4
REMARK VINA RESULT:    -6.809      4.333      6.222
REMARK INTER + INTRA:          -8.863
REMARK INTER:                  -8.649
REMARK INTRA:                  -0.214
REMARK UNBOUND:                -0.461
REMARK  Name = 
REMARK  4 active torsions:
REMARK  status: ('A' for Active; 'I' for Inactive)
REMARK    1  A    between atoms: C_2  and  C_4
REMARK    2  A    between atoms: C_7  and  C_8
REMARK    3  A    between atoms: C_8  and  C_9
REMARK    4  A    between atoms: C_9  and  C_10
REMARK                            x       y       z     vdW  Elec       q    Type
REMARK                         _______ _______ _______ _____ _____    ______ ____
ROOT
ATOM      1  C   UNL     1      48.253   6.430  13.929  0.00  0.00    +0.000 A 
ATOM      2  N   UNL     1      47.687   6.799  12.757  0.00  0.00    +0.000 NA
ATOM      3  C   UNL     1      46.636   6.052  12.363  0.00  0.00    +0.000 A 
ATOM      4  C   UNL     1      46.149   4.957  13.056  0.00  0.00    +0.000 A 
ATOM      5  C   UNL     1      46.814   4.691  14.240  0.00  0.00    +0.000 A 
ATOM      6  N   UNL     1      47.860   5.402  14.702  0.00  0.00    +0.000 NA
ENDROOT
BRANCH   1   8
ATOM      7  N   UNL     1      50.404   7.520  13.519  0.00  0.00    +0.000 N 
ATOM      8  C   UNL     1      49.393   7.292  14.428  0.00  0.00    +0.000 C 
ATOM      9  O   UNL     1      49.448   7.783  15.547  0.00  0.00    +0.000 OA
ATOM     10  H   UNL     1      51.168   8.126  13.780  0.00  0.00    +0.000 HD
ATOM     11  H   UNL     1      50.340   7.138  12.583  0.00  0.00    +0.000 HD
ENDBRANCH   1   8
BRANCH   4  12
ATOM     12  C   UNL     1      44.936   4.164  12.656  0.00  0.00    +0.000 C 
BRANCH  12  13
ATOM     13  C   UNL     1      44.265   4.625  11.362  0.00  0.00    +0.000 C 
ATOM     14  C   UNL     1      43.637   6.010  11.346  0.00  0.00    +0.000 C 
ATOM     15  C   UNL     1      42.748   4.807  11.394  0.00  0.00    +0.000 C 
BRANCH  13  16
ATOM     16  C   UNL     1      44.828   4.013  10.078  0.00  0.00    +0.000 A 
ATOM     17  C   UNL     1      45.406   4.798   9.066  0.00  0.00    +0.000 A 
ATOM     18  C   UNL     1      46.000   4.223   7.939  0.00  0.00    +0.000 A 
ATOM     19  C   UNL     1      46.006   2.841   7.786  0.00  0.00    +0.000 A 
ATOM     20  C   UNL     1      45.405   2.052   8.757  0.00  0.00    +0.000 A 
ATOM     21  F   UNL     1      45.397   0.719   8.613  0.00  0.00    +0.000 F 
ATOM     22  C   UNL     1      44.827   2.619   9.887  0.00  0.00    +0.000 A 
ENDBRANCH  13  16
ENDBRANCH  12  13
ENDBRANCH   4  12
TORSDOF 4
ENDMDL
MODEL 5
REMARK VINA RESULT:    -6.708      4.436      6.422
REMARK INTER + INTRA:          -8.738
REMARK INTER:                  -9.038
REMARK INTRA:                   0.300
REMARK UNBOUND:                -0.461
REMARK  Name = 
REMARK  4 active torsions:
REMARK  status: ('A' for Active; 'I' for Inactive)
REMARK    1  A    between atoms: C_2  and  C_4
REMARK    2  A    between atoms: C_7  and  C_8
REMARK    3  A    between atoms: C_8  and  C_9
REMARK    4  A    between atoms: C_9  and  C_10
REMARK                            x       y       z     vdW  Elec       q    Type
REMARK                         _______ _______ _______ _____ _____    ______ ____
ROOT
ATOM      1  C   UNL     1      47.671   3.811  15.431  0.00  0.00    +0.000 A 
ATOM      2  N   UNL     1      47.179   3.146  14.360  0.00  0.00    +0.000 NA
ATOM      3  C   UNL     1      46.882   3.911  13.290  0.00  0.00    +0.000 A 
ATOM      4  C   UNL     1      47.022   5.287  13.249  0.00  0.00    +0.000 A 
ATOM      5  C   UNL     1      47.540   5.842  14.407  0.00  0.00    +0.000 A 
ATOM      6  N   UNL     1      47.872   5.138  15.505  0.00  0.00    +0.000 NA
ENDROOT
BRANCH   1   8
ATOM      7  N   UNL     1      47.144   2.890  17.635  0.00  0.00    +0.000 N 
ATOM      8  C   UNL     1      48.076   2.968  16.621  0.00  0.00    +0.000 C 
ATOM      9  O   UNL     1      49.139   2.371  16.714  0.00  0.00    +0.000 OA
ATOM     10  H   UNL     1      47.339   2.304  18.434  0.00  0.00    +0.000 HD
ATOM     11  H   UNL     1      46.252   3.360  17.541  0.00  0.00    +0.000 HD
ENDBRANCH   1   8
BRANCH   4  12
ATOM     12  C   UNL     1      46.757   6.136  12.036  0.00  0.00    +0.000 C 
BRANCH  12  13
ATOM     13  C   UNL     1      45.363   5.974  11.431  0.00  0.00    +0.000 C 
ATOM     14  C   UNL     1      44.495   7.217  11.315  0.00  0.00    +0.000 C 
ATOM     15  C   UNL     1      44.173   6.198  12.363  0.00  0.00    +0.000 C 
BRANCH  13  16
ATOM     16  C   UNL     1      45.211   4.825  10.434  0.00  0.00    +0.000 A 
ATOM     17  C   UNL     1      44.537   3.636  10.759  0.00  0.00    +0.000 A 
ATOM     18  C   UNL     1      44.323   2.629   9.812  0.00  0.00    +0.000 A 
ATOM     19  C   UNL     1      44.806   2.781   8.517  0.00  0.00    +0.000 A 
ATOM     20  C   UNL     1      45.508   3.932   8.189  0.00  0.00    +0.000 A 
ATOM     21  F   UNL     1      45.986   4.082   6.945  0.00  0.00    +0.000 F 
ATOM     22  C   UNL     1      45.709   4.943   9.123  0.00  0.00    +0.000 A 
ENDBRANCH  13  16
ENDBRANCH  12  13
ENDBRANCH   4  12
TORSDOF 4
ENDMDL
MODEL 6
REMARK VINA RESULT:    -6.380      4.279      6.256
REMARK INTER + INTRA:          -8.333
REMARK INTER:                  -8.438
REMARK INTRA:                   0.105
REMARK UNBOUND:                -0.461
REMARK  Name = 
REMARK  4 active torsions:
REMARK  status: ('A' for Active; 'I' for Inactive)
REMARK    1  A    between atoms: C_2  and  C_4
REMARK    2  A    between atoms: C_7  and  C_8
REMARK    3  A    between atoms: C_8  and  C_9
REMARK    4  A    between atoms: C_9  and  C_10
REMARK                            x       y       z     vdW  Elec       q    Type
REMARK                         _______ _______ _______ _____ _____    ______ ____
ROOT
ATOM      1  C   UNL     1      46.481   8.280  12.243  0.00  0.00    +0.000 A 
ATOM      2  N   UNL     1      47.495   7.402  12.428  0.00  0.00    +0.000 NA
ATOM      3  C   UNL     1      47.133   6.104  12.476  0.00  0.00    +0.000 A 
ATOM      4  C   UNL     1      45.830   5.650  12.379  0.00  0.00    +0.000 A 
ATOM      5  C   UNL     1      44.892   6.649  12.187  0.00  0.00    +0.000 A 
ATOM      6  N   UNL     1      45.181   7.961  12.114  0.00  0.00    +0.000 NA
ENDROOT
BRANCH   1   8
ATOM      7  N   UNL     1      45.838  10.639  12.304  0.00  0.00    +0.000 N 
ATOM      8  C   UNL     1      46.866   9.738  12.118  0.00  0.00    +0.000 C 
ATOM      9  O   UNL     1      47.999  10.135  11.883  0.00  0.00    +0.000 OA
ATOM     10  H   UNL     1      46.045  11.627  12.279  0.00  0.00    +0.000 HD
ATOM     11  H   UNL     1      44.909  10.308  12.530  0.00  0.00    +0.000 HD
ENDBRANCH   1   8
BRANCH   4  12
ATOM     12  C   UNL     1      45.430   4.200  12.363  0.00  0.00    +0.000 C 
BRANCH  12  13
ATOM     13  C   UNL     1      44.431   3.821  11.270  0.00  0.00    +0.000 C 
ATOM     14  C   UNL     1      43.018   4.372  11.384  0.00  0.00    +0.000 C 
ATOM     15  C   UNL     1      43.262   2.925  11.679  0.00  0.00    +0.000 C 
BRANCH  13  16
ATOM     16  C   UNL     1      45.040   3.524   9.900  0.00  0.00    +0.000 A 
ATOM     17  C   UNL     1      45.406   4.545   9.006  0.00  0.00    +0.000 A 
ATOM     18  C   UNL     1      46.047   4.266   7.795  0.00  0.00    +0.000 A 
ATOM     19  C   UNL     1      46.314   2.950   7.437  0.00  0.00    +0.000 A 
ATOM     20  C   UNL     1      45.924   1.927   8.290  0.00  0.00    +0.000 A 
ATOM     21  F   UNL     1      46.167   0.653   7.947  0.00  0.00    +0.000 F 
ATOM     22  C   UNL     1      45.300   2.199   9.502  0.00  0.00    +0.000 A 
ENDBRANCH  13  16
ENDBRANCH  12  13
ENDBRANCH   4  12
TORSDOF 4
ENDMDL
MODEL 7
REMARK VINA RESULT:    -6.197      4.408      6.398
REMARK INTER + INTRA:          -8.108
REMARK INTER:                  -8.024
REMARK INTRA:                  -0.083
REMARK UNBOUND:                -0.461
REMARK  Name = 
REMARK  4 active torsions:
REMARK  status: ('A' for Active; 'I' for Inactive)
REMARK    1  A    between atoms: C_2  and  C_4
REMARK    2  A    between atoms: C_7  and  C_8
REMARK    3  A    between atoms: C_8  and  C_9
REMARK    4  A    between atoms: C_9  and  C_10
REMARK                            x       y       z     vdW  Elec       q    Type
REMARK                         _______ _______ _______ _____ _____    ______ ____
ROOT
ATOM      1  C   UNL     1      48.604   6.611  13.996  0.00  0.00    +0.000 A 
ATOM      2  N   UNL     1      48.058   6.970  12.811  0.00  0.00    +0.000 NA
ATOM      3  C   UNL     1      46.933   6.310  12.470  0.00  0.00    +0.000 A 
ATOM      4  C   UNL     1      46.353   5.307  13.227  0.00  0.00    +0.000 A 
ATOM      5  C   UNL     1      47.008   5.041  14.417  0.00  0.00    +0.000 A 
ATOM      6  N   UNL     1      48.125   5.670  14.828  0.00  0.00    +0.000 NA
ENDROOT
BRANCH   1   8
ATOM      7  N   UNL     1      50.717   7.706  13.428  0.00  0.00    +0.000 N 
ATOM      8  C   UNL     1      49.830   7.383  14.434  0.00  0.00    +0.000 C 
ATOM      9  O   UNL     1      50.053   7.727  15.587  0.00  0.00    +0.000 OA
ATOM     10  H   UNL     1      51.530   8.261  13.654  0.00  0.00    +0.000 HD
ATOM     11  H   UNL     1      50.514   7.447  12.471  0.00  0.00    +0.000 HD
ENDBRANCH   1   8
BRANCH   4  12
ATOM     12  C   UNL     1      45.062   4.616  12.885  0.00  0.00    +0.000 C 
BRANCH  12  13
ATOM     13  C   UNL     1      44.439   5.041  11.555  0.00  0.00    +0.000 C 
ATOM     14  C   UNL     1      44.080   6.508  11.380  0.00  0.00    +0.000 C 
ATOM     15  C   UNL     1      42.985   5.510  11.588  0.00  0.00    +0.000 C 
BRANCH  13  16
ATOM     16  C   UNL     1      44.828   4.188  10.347  0.00  0.00    +0.000 A 
ATOM     17  C   UNL     1      44.409   2.854  10.206  0.00  0.00    +0.000 A 
ATOM     18  C   UNL     1      44.693   2.112   9.056  0.00  0.00    +0.000 A 
ATOM     19  C   UNL     1      45.430   2.683   8.025  0.00  0.00    +0.000 A 
ATOM     20  C   UNL     1      45.885   3.987   8.164  0.00  0.00    +0.000 A 
ATOM     21  F   UNL     1      46.606   4.542   7.179  0.00  0.00    +0.000 F 
ATOM     22  C   UNL     1      45.593   4.734   9.299  0.00  0.00    +0.000 A 
ENDBRANCH  13  16
ENDBRANCH  12  13
ENDBRANCH   4  12
TORSDOF 4
ENDMDL
MODEL 8
REMARK VINA RESULT:    -6.063      4.229      6.235
REMARK INTER + INTRA:          -7.942
REMARK INTER:                  -8.880
REMARK INTRA:                   0.939
REMARK UNBOUND:                -0.461
REMARK  Name = 
REMARK  4 active torsions:
REMARK  status: ('A' for Active; 'I' for Inactive)
REMARK    1  A    between atoms: C_2  and  C_4
REMARK    2  A    between atoms: C_7  and  C_8
REMARK    3  A    between atoms: C_8  and  C_9
REMARK    4  A    between atoms: C_9  and  C_10
REMARK                            x       y       z     vdW  Elec       q    Type
REMARK                         _______ _______ _______ _____ _____    ______ ____
ROOT
ATOM      1  C   UNL     1      47.134   4.284  14.787  0.00  0.00    +0.000 A 
ATOM      2  N   UNL     1      46.821   3.292  13.922  0.00  0.00    +0.000 NA
ATOM      3  C   UNL     1      46.329   3.695  12.733  0.00  0.00    +0.000 A 
ATOM      4  C   UNL     1      46.111   5.017  12.384  0.00  0.00    +0.000 A 
ATOM      5  C   UNL     1      46.478   5.931  13.356  0.00  0.00    +0.000 A 
ATOM      6  N   UNL     1      46.989   5.601  14.557  0.00  0.00    +0.000 NA
ENDROOT
BRANCH   1   8
ATOM      7  N   UNL     1      47.451   4.667  17.182  0.00  0.00    +0.000 N 
ATOM      8  C   UNL     1      47.751   3.862  16.103  0.00  0.00    +0.000 C 
ATOM      9  O   UNL     1      48.461   2.876  16.247  0.00  0.00    +0.000 OA
ATOM     10  H   UNL     1      47.797   4.408  18.095  0.00  0.00    +0.000 HD
ATOM     11  H   UNL     1      46.838   5.464  17.065  0.00  0.00    +0.000 HD
ENDBRANCH   1   8
BRANCH   4  12
ATOM     12  C   UNL     1      45.627   5.475  11.035  0.00  0.00    +0.000 C 
BRANCH  12  13
ATOM     13  C   UNL     1      44.714   4.486  10.311  0.00  0.00    +0.000 C 
ATOM     14  C   UNL     1      43.222   4.784  10.295  0.00  0.00    +0.000 C 
ATOM     15  C   UNL     1      43.737   3.686  11.172  0.00  0.00    +0.000 C 
BRANCH  13  16
ATOM     16  C   UNL     1      45.363   3.714   9.162  0.00  0.00    +0.000 A 
ATOM     17  C   UNL     1      45.997   4.363   8.089  0.00  0.00    +0.000 A 
ATOM     18  C   UNL     1      46.667   3.649   7.091  0.00  0.00    +0.000 A 
ATOM     19  C   UNL     1      46.696   2.260   7.131  0.00  0.00    +0.000 A 
ATOM     20  C   UNL     1      46.042   1.601   8.163  0.00  0.00    +0.000 A 
ATOM     21  F   UNL     1      46.055   0.261   8.204  0.00  0.00    +0.000 F 
ATOM     22  C   UNL     1      45.387   2.307   9.166  0.00  0.00    +0.000 A 
ENDBRANCH  13  16
ENDBRANCH  12  13
ENDBRANCH   4  12
TORSDOF 4
ENDMDL
MODEL 9
REMARK VINA RESULT:    -5.677      2.807      4.416
REMARK INTER + INTRA:          -7.465
REMARK INTER:                  -7.022
REMARK INTRA:                  -0.443
REMARK UNBOUND:                -0.461
REMARK  Name = 
REMARK  4 active torsions:
REMARK  status: ('A' for Active; 'I' for Inactive)
REMARK    1  A    between atoms: C_2  and  C_4
REMARK    2  A    between atoms: C_7  and  C_8
REMARK    3  A    between atoms: C_8  and  C_9
REMARK    4  A    between atoms: C_9  and  C_10
REMARK                            x       y       z     vdW  Elec       q    Type
REMARK                         _______ _______ _______ _____ _____    ______ ____
ROOT
ATOM      1  C   UNL     1      45.054   3.774   9.917  0.00  0.00    +0.000 A 
ATOM      2  N   UNL     1      45.367   5.046   9.575  0.00  0.00    +0.000 NA
ATOM      3  C   UNL     1      45.581   5.886  10.607  0.00  0.00    +0.000 A 
ATOM      4  C   UNL     1      45.472   5.532  11.940  0.00  0.00    +0.000 A 
ATOM      5  C   UNL     1      45.151   4.202  12.152  0.00  0.00    +0.000 A 
ATOM      6  N   UNL     1      44.939   3.305  11.172  0.00  0.00    +0.000 NA
ENDROOT
BRANCH   1   8
ATOM      7  N   UNL     1      44.758   1.470   9.150  0.00  0.00    +0.000 N 
ATOM      8  C   UNL     1      44.874   2.793   8.778  0.00  0.00    +0.000 C 
ATOM      9  O   UNL     1      44.818   3.110   7.598  0.00  0.00    +0.000 OA
ATOM     10  H   UNL     1      44.589   0.776   8.436  0.00  0.00    +0.000 HD
ATOM     11  H   UNL     1      44.774   1.216  10.129  0.00  0.00    +0.000 HD
ENDBRANCH   1   8
BRANCH   4  12
ATOM     12  C   UNL     1      45.776   6.447  13.094  0.00  0.00    +0.000 C 
BRANCH  12  13
ATOM     13  C   UNL     1      47.121   7.169  13.004  0.00  0.00    +0.000 C 
ATOM     14  C   UNL     1      48.365   6.319  12.800  0.00  0.00    +0.000 C 
ATOM     15  C   UNL     1      48.113   6.931  14.142  0.00  0.00    +0.000 C 
BRANCH  13  16
ATOM     16  C   UNL     1      47.062   8.601  12.471  0.00  0.00    +0.000 A 
ATOM     17  C   UNL     1      48.196   9.257  11.964  0.00  0.00    +0.000 A 
ATOM     18  C   UNL     1      48.114  10.532  11.394  0.00  0.00    +0.000 A 
ATOM     19  C   UNL     1      46.892  11.192  11.342  0.00  0.00    +0.000 A 
ATOM     20  C   UNL     1      45.768  10.574  11.873  0.00  0.00    +0.000 A 
ATOM     21  F   UNL     1      44.587  11.207  11.837  0.00  0.00    +0.000 F 
ATOM     22  C   UNL     1      45.842   9.300  12.427  0.00  0.00    +0.000 A 
ENDBRANCH  13  16
ENDBRANCH  12  13
ENDBRANCH   4  12
TORSDOF 4
ENDMDL
