MODEL 1
REMARK VINA RESULT:    -8.112      0.000      0.000
REMARK INTER + INTRA:         -12.061
REMARK INTER:                 -10.957
REMARK INTRA:                  -1.104
REMARK UNBOUND:                -1.104
REMARK  Name = 
REMARK  7 active torsions:
REMARK  status: ('A' for Active; 'I' for Inactive)
REMARK    1  A    between atoms: C_1  and  C_2
REMARK    2  A    between atoms: C_6  and  C_7
REMARK    3  A    between atoms: N_9  and  C_10
REMARK    4  A    between atoms: C_10  and  C_11
REMARK    5  A    between atoms: C_14  and  C_15
REMARK    6  A    between atoms: C_15  and  N_16
REMARK    7  A    between atoms: C_17  and  C_19
REMARK                            x       y       z     vdW  Elec       q    Type
REMARK                         _______ _______ _______ _____ _____    ______ ____
ROOT
ATOM      1  C   UNL     1      45.310   6.625  11.511  0.00  0.00    +0.000 A 
ATOM      2  C   UNL     1      46.612   6.186  11.793  0.00  0.00    +0.000 A 
ATOM      3  C   UNL     1      47.455   6.920  12.643  0.00  0.00    +0.000 A 
ATOM      4  C   UNL     1      47.013   8.102  13.252  0.00  0.00    +0.000 A 
ATOM      5  C   UNL     1      45.721   8.555  12.951  0.00  0.00    +0.000 A 
ATOM      6  C   UNL     1      44.875   7.818  12.106  0.00  0.00    +0.000 A 
ENDROOT
BRANCH   1   7
ATOM      7  C   UNL     1      44.419   5.849  10.567  0.00  0.00    +0.000 C 
BRANCH   7  10
ATOM      8  C   UNL     1      44.837   3.725   9.363  0.00  0.00    +0.000 C 
ATOM      9  O   UNL     1      43.947   3.117   9.943  0.00  0.00    +0.000 OA
ATOM     10  N   UNL     1      45.147   5.053   9.607  0.00  0.00    +0.000 N 
ATOM     11  H   UNL     1      45.890   5.460   9.048  0.00  0.00    +0.000 HD
BRANCH   8  17
ATOM     12  C   UNL     1      46.743  -0.396   7.648  0.00  0.00    +0.000 C 
ATOM     13  C   UNL     1      46.592   1.087   7.496  0.00  0.00    +0.000 A 
ATOM     14  C   UNL     1      47.206   1.764   6.445  0.00  0.00    +0.000 A 
ATOM     15  C   UNL     1      47.044   3.144   6.346  0.00  0.00    +0.000 A 
ATOM     16  C   UNL     1      46.273   3.808   7.294  0.00  0.00    +0.000 A 
ATOM     17  C   UNL     1      45.689   3.062   8.311  0.00  0.00    +0.000 A 
ATOM     18  N   UNL     1      45.837   1.713   8.432  0.00  0.00    +0.000 NA
ENDBRANCH   8  17
ENDBRANCH   7  10
ENDBRANCH   1   7
BRANCH   4  19
ATOM     19  C   UNL     1      47.900   8.853  14.218  0.00  0.00    +0.000 C 
BRANCH  19  20
ATOM     20  N   UNL     1      48.163   8.107  15.424  0.00  0.00    +0.000 N 
ATOM     21  C   UNL     1      49.414   7.604  15.699  0.00  0.00    +0.000 C 
ATOM     22  O   UNL     1      50.379   7.812  14.969  0.00  0.00    +0.000 OA
ATOM     23  H   UNL     1      47.359   7.729  15.913  0.00  0.00    +0.000 HD
BRANCH  21  24
ATOM     24  C   UNL     1      49.552   6.846  16.950  0.00  0.00    +0.000 A 
ATOM     25  C   UNL     1      50.304   7.359  18.000  0.00  0.00    +0.000 A 
ATOM     26  S   UNL     1      50.328   6.352  19.378  0.00  0.00    +0.000 S 
ATOM     27  C   UNL     1      49.368   5.178  18.607  0.00  0.00    +0.000 A 
ATOM     28  N   UNL     1      49.030   4.022  19.240  0.00  0.00    +0.000 NA
ATOM     29  C   UNL     1      48.309   3.218  18.529  0.00  0.00    +0.000 A 
ATOM     30  N   UNL     1      47.894   3.466  17.249  0.00  0.00    +0.000 N 
ATOM     31  C   UNL     1      48.193   4.627  16.578  0.00  0.00    +0.000 A 
ATOM     32  O   UNL     1      47.768   4.837  15.448  0.00  0.00    +0.000 OA
ATOM     33  C   UNL     1      49.014   5.561  17.325  0.00  0.00    +0.000 A 
ATOM     34  H   UNL     1      47.315   2.806  16.751  0.00  0.00    +0.000 HD
ENDBRANCH  21  24
ENDBRANCH  19  20
ENDBRANCH   4  19
TORSDOF 6
ENDMDL
MODEL 2
REMARK VINA RESULT:    -7.720      1.944      2.105
REMARK INTER + INTRA:         -11.531
REMARK INTER:                 -10.611
REMARK INTRA:                  -0.921
REMARK UNBOUND:                -1.104
REMARK  Name = 
REMARK  7 active torsions:
REMARK  status: ('A' for Active; 'I' for Inactive)
REMARK    1  A    between atoms: C_1  and  C_2
REMARK    2  A    between atoms: C_6  and  C_7
REMARK    3  A    between atoms: N_9  and  C_10
REMARK    4  A    between atoms: C_10  and  C_11
REMARK    5  A    between atoms: C_14  and  C_15
REMARK    6  A    between atoms: C_15  and  N_16
REMARK    7  A    between atoms: C_17  and  C_19
REMARK                            x       y       z     vdW  Elec       q    Type
REMARK                         _______ _______ _______ _____ _____    ______ ____
ROOT
ATOM      1  C   UNL     1      45.406   6.692  11.502  0.00  0.00    +0.000 A 
ATOM      2  C   UNL     1      46.792   6.478  11.502  0.00  0.00    +0.000 A 
ATOM      3  C   UNL     1      47.646   7.262  12.295  0.00  0.00    +0.000 A 
ATOM      4  C   UNL     1      47.135   8.268  13.126  0.00  0.00    +0.000 A 
ATOM      5  C   UNL     1      45.752   8.500  13.108  0.00  0.00    +0.000 A 
ATOM      6  C   UNL     1      44.898   7.711  12.319  0.00  0.00    +0.000 A 
ENDROOT
BRANCH   1   7
ATOM      7  C   UNL     1      44.496   5.867  10.620  0.00  0.00    +0.000 C 
BRANCH   7  10
ATOM      8  C   UNL     1      44.829   3.758   9.363  0.00  0.00    +0.000 C 
ATOM      9  O   UNL     1      43.896   3.182   9.906  0.00  0.00    +0.000 OA
ATOM     10  N   UNL     1      45.202   5.061   9.652  0.00  0.00    +0.000 N 
ATOM     11  H   UNL     1      45.978   5.443   9.120  0.00  0.00    +0.000 HD
BRANCH   8  17
ATOM     12  C   UNL     1      46.724  -0.384   7.687  0.00  0.00    +0.000 C 
ATOM     13  C   UNL     1      46.567   1.096   7.514  0.00  0.00    +0.000 A 
ATOM     14  C   UNL     1      47.164   1.757   6.444  0.00  0.00    +0.000 A 
ATOM     15  C   UNL     1      46.996   3.135   6.325  0.00  0.00    +0.000 A 
ATOM     16  C   UNL     1      46.236   3.812   7.273  0.00  0.00    +0.000 A 
ATOM     17  C   UNL     1      45.669   3.081   8.310  0.00  0.00    +0.000 A 
ATOM     18  N   UNL     1      45.823   1.734   8.450  0.00  0.00    +0.000 NA
ENDBRANCH   8  17
ENDBRANCH   7  10
ENDBRANCH   1   7
BRANCH   4  19
ATOM     19  C   UNL     1      48.049   9.065  14.028  0.00  0.00    +0.000 C 
BRANCH  19  20
ATOM     20  N   UNL     1      47.740   8.891  15.426  0.00  0.00    +0.000 N 
ATOM     21  C   UNL     1      48.399   9.602  16.401  0.00  0.00    +0.000 C 
ATOM     22  O   UNL     1      49.238  10.459  16.135  0.00  0.00    +0.000 OA
ATOM     23  H   UNL     1      47.239   8.047  15.681  0.00  0.00    +0.000 HD
BRANCH  21  24
ATOM     24  C   UNL     1      48.008   9.322  17.789  0.00  0.00    +0.000 A 
ATOM     25  C   UNL     1      47.571  10.352  18.615  0.00  0.00    +0.000 A 
ATOM     26  S   UNL     1      47.135   9.833  20.181  0.00  0.00    +0.000 S 
ATOM     27  C   UNL     1      47.552   8.223  19.826  0.00  0.00    +0.000 A 
ATOM     28  N   UNL     1      47.439   7.244  20.764  0.00  0.00    +0.000 NA
ATOM     29  C   UNL     1      47.803   6.072  20.358  0.00  0.00    +0.000 A 
ATOM     30  N   UNL     1      48.265   5.790  19.101  0.00  0.00    +0.000 N 
ATOM     31  C   UNL     1      48.376   6.741  18.115  0.00  0.00    +0.000 A 
ATOM     32  O   UNL     1      48.751   6.445  16.986  0.00  0.00    +0.000 OA
ATOM     33  C   UNL     1      47.993   8.079  18.521  0.00  0.00    +0.000 A 
ATOM     34  H   UNL     1      48.516   4.850  18.837  0.00  0.00    +0.000 HD
ENDBRANCH  21  24
ENDBRANCH  19  20
ENDBRANCH   4  19
TORSDOF 6
ENDMDL
MODEL 3
REMARK VINA RESULT:    -7.182      3.576      4.908
REMARK INTER + INTRA:         -10.805
REMARK INTER:                  -9.648
REMARK INTRA:                  -1.157
REMARK UNBOUND:                -1.104
REMARK  Name = 
REMARK  7 active torsions:
REMARK  status: ('A' for Active; 'I' for Inactive)
REMARK    1  A    between atoms: C_1  and  C_2
REMARK    2  A    between atoms: C_6  and  C_7
REMARK    3  A    between atoms: N_9  and  C_10
REMARK    4  A    between atoms: C_10  and  C_11
REMARK    5  A    between atoms: C_14  and  C_15
REMARK    6  A    between atoms: C_15  and  N_16
REMARK    7  A    between atoms: C_17  and  C_19
REMARK                            x       y       z     vdW  Elec       q    Type
REMARK                         _______ _______ _______ _____ _____    ______ ____
ROOT
ATOM      1  C   UNL     1      45.230   6.523  11.619  0.00  0.00    +0.000 A 
ATOM      2  C   UNL     1      44.940   7.871  11.871  0.00  0.00    +0.000 A 
ATOM      3  C   UNL     1      45.739   8.634  12.738  0.00  0.00    +0.000 A 
ATOM      4  C   UNL     1      46.864   8.076  13.360  0.00  0.00    +0.000 A 
ATOM      5  C   UNL     1      47.140   6.721  13.129  0.00  0.00    +0.000 A 
ATOM      6  C   UNL     1      46.344   5.960  12.257  0.00  0.00    +0.000 A 
ENDROOT
BRANCH   1   7
ATOM      7  C   UNL     1      44.346   5.697  10.712  0.00  0.00    +0.000 C 
BRANCH   7  10
ATOM      8  C   UNL     1      44.762   3.628   9.415  0.00  0.00    +0.000 C 
ATOM      9  O   UNL     1      43.865   2.999   9.960  0.00  0.00    +0.000 OA
ATOM     10  N   UNL     1      45.077   4.942   9.722  0.00  0.00    +0.000 N 
ATOM     11  H   UNL     1      45.826   5.370   9.187  0.00  0.00    +0.000 HD
BRANCH   8  17
ATOM     12  C   UNL     1      46.801  -0.396   7.625  0.00  0.00    +0.000 C 
ATOM     13  C   UNL     1      46.586   1.080   7.489  0.00  0.00    +0.000 A 
ATOM     14  C   UNL     1      47.149   1.790   6.431  0.00  0.00    +0.000 A 
ATOM     15  C   UNL     1      46.928   3.163   6.348  0.00  0.00    +0.000 A 
ATOM     16  C   UNL     1      46.150   3.787   7.318  0.00  0.00    +0.000 A 
ATOM     17  C   UNL     1      45.619   3.009   8.340  0.00  0.00    +0.000 A 
ATOM     18  N   UNL     1      45.825   1.667   8.446  0.00  0.00    +0.000 NA
ENDBRANCH   8  17
ENDBRANCH   7  10
ENDBRANCH   1   7
BRANCH   4  19
ATOM     19  C   UNL     1      47.759   8.918  14.240  0.00  0.00    +0.000 C 
BRANCH  19  20
ATOM     20  N   UNL     1      49.088   9.066  13.699  0.00  0.00    +0.000 N 
ATOM     21  C   UNL     1      49.427  10.139  12.909  0.00  0.00    +0.000 C 
ATOM     22  O   UNL     1      48.642  11.053  12.672  0.00  0.00    +0.000 OA
ATOM     23  H   UNL     1      49.669   8.234  13.681  0.00  0.00    +0.000 HD
BRANCH  21  24
ATOM     24  C   UNL     1      50.806  10.167  12.403  0.00  0.00    +0.000 A 
ATOM     25  C   UNL     1      51.601  11.290  12.599  0.00  0.00    +0.000 A 
ATOM     26  S   UNL     1      53.178  11.129  11.966  0.00  0.00    +0.000 S 
ATOM     27  C   UNL     1      52.843   9.571  11.373  0.00  0.00    +0.000 A 
ATOM     28  N   UNL     1      53.782   8.862  10.689  0.00  0.00    +0.000 NA
ATOM     29  C   UNL     1      53.383   7.700  10.288  0.00  0.00    +0.000 A 
ATOM     30  N   UNL     1      52.137   7.182  10.511  0.00  0.00    +0.000 N 
ATOM     31  C   UNL     1      51.164   7.851  11.214  0.00  0.00    +0.000 A 
ATOM     32  O   UNL     1      50.072   7.339  11.434  0.00  0.00    +0.000 OA
ATOM     33  C   UNL     1      51.553   9.169  11.677  0.00  0.00    +0.000 A 
ATOM     34  H   UNL     1      51.891   6.258  10.189  0.00  0.00    +0.000 HD
ENDBRANCH  21  24
ENDBRANCH  19  20
ENDBRANCH   4  19
TORSDOF 6
ENDMDL
MODEL 4
REMARK VINA RESULT:    -6.777      4.291      8.800
REMARK INTER + INTRA:         -10.258
REMARK INTER:                  -9.383
REMARK INTRA:                  -0.876
REMARK UNBOUND:                -1.104
REMARK  Name = 
REMARK  7 active torsions:
REMARK  status: ('A' for Active; 'I' for Inactive)
REMARK    1  A    between atoms: C_1  and  C_2
REMARK    2  A    between atoms: C_6  and  C_7
REMARK    3  A    between atoms: N_9  and  C_10
REMARK    4  A    between atoms: C_10  and  C_11
REMARK    5  A    between atoms: C_14  and  C_15
REMARK    6  A    between atoms: C_15  and  N_16
REMARK    7  A    between atoms: C_17  and  C_19
REMARK                            x       y       z     vdW  Elec       q    Type
REMARK                         _______ _______ _______ _____ _____    ______ ____
ROOT
ATOM      1  C   UNL     1      49.758   4.662  17.648  0.00  0.00    +0.000 A 
ATOM      2  C   UNL     1      48.472   4.627  17.091  0.00  0.00    +0.000 A 
ATOM      3  C   UNL     1      48.058   5.597  16.163  0.00  0.00    +0.000 A 
ATOM      4  C   UNL     1      48.928   6.615  15.750  0.00  0.00    +0.000 A 
ATOM      5  C   UNL     1      50.205   6.666  16.325  0.00  0.00    +0.000 A 
ATOM      6  C   UNL     1      50.621   5.692  17.249  0.00  0.00    +0.000 A 
ENDROOT
BRANCH   1   7
ATOM      7  C   UNL     1      50.186   3.635  18.673  0.00  0.00    +0.000 C 
BRANCH   7  10
ATOM      8  C   UNL     1      51.734   2.007  17.629  0.00  0.00    +0.000 C 
ATOM      9  O   UNL     1      50.844   1.391  17.058  0.00  0.00    +0.000 OA
ATOM     10  N   UNL     1      51.510   3.105  18.444  0.00  0.00    +0.000 N 
ATOM     11  H   UNL     1      52.328   3.551  18.847  0.00  0.00    +0.000 HD
BRANCH   8  17
ATOM     12  C   UNL     1      54.931  -1.402  16.320  0.00  0.00    +0.000 C 
ATOM     13  C   UNL     1      54.703  -0.023  16.858  0.00  0.00    +0.000 A 
ATOM     14  C   UNL     1      55.775   0.803  17.187  0.00  0.00    +0.000 A 
ATOM     15  C   UNL     1      55.516   2.075  17.690  0.00  0.00    +0.000 A 
ATOM     16  C   UNL     1      54.197   2.490  17.846  0.00  0.00    +0.000 A 
ATOM     17  C   UNL     1      53.182   1.611  17.490  0.00  0.00    +0.000 A 
ATOM     18  N   UNL     1      53.410   0.359  17.002  0.00  0.00    +0.000 NA
ENDBRANCH   8  17
ENDBRANCH   7  10
ENDBRANCH   1   7
BRANCH   4  19
ATOM     19  C   UNL     1      48.502   7.617  14.702  0.00  0.00    +0.000 C 
BRANCH  19  20
ATOM     20  N   UNL     1      47.266   7.251  14.054  0.00  0.00    +0.000 N 
ATOM     21  C   UNL     1      47.248   6.420  12.958  0.00  0.00    +0.000 C 
ATOM     22  O   UNL     1      48.268   5.901  12.512  0.00  0.00    +0.000 OA
ATOM     23  H   UNL     1      46.459   7.834  14.246  0.00  0.00    +0.000 HD
BRANCH  21  24
ATOM     24  C   UNL     1      45.930   6.136  12.376  0.00  0.00    +0.000 A 
ATOM     25  C   UNL     1      45.181   7.158  11.805  0.00  0.00    +0.000 A 
ATOM     26  S   UNL     1      43.691   6.634  11.158  0.00  0.00    +0.000 S 
ATOM     27  C   UNL     1      43.974   5.032  11.654  0.00  0.00    +0.000 A 
ATOM     28  N   UNL     1      43.056   4.054  11.426  0.00  0.00    +0.000 NA
ATOM     29  C   UNL     1      43.400   2.889  11.868  0.00  0.00    +0.000 A 
ATOM     30  N   UNL     1      44.576   2.613  12.512  0.00  0.00    +0.000 N 
ATOM     31  C   UNL     1      45.541   3.563  12.745  0.00  0.00    +0.000 A 
ATOM     32  O   UNL     1      46.602   3.273  13.285  0.00  0.00    +0.000 OA
ATOM     33  C   UNL     1      45.201   4.895  12.281  0.00  0.00    +0.000 A 
ATOM     34  H   UNL     1      44.796   1.677  12.817  0.00  0.00    +0.000 HD
ENDBRANCH  21  24
ENDBRANCH  19  20
ENDBRANCH   4  19
TORSDOF 6
ENDMDL
MODEL 5
REMARK VINA RESULT:    -6.645      5.091      7.955
REMARK INTER + INTRA:         -10.080
REMARK INTER:                  -9.171
REMARK INTRA:                  -0.909
REMARK UNBOUND:                -1.104
REMARK  Name = 
REMARK  7 active torsions:
REMARK  status: ('A' for Active; 'I' for Inactive)
REMARK    1  A    between atoms: C_1  and  C_2
REMARK    2  A    between atoms: C_6  and  C_7
REMARK    3  A    between atoms: N_9  and  C_10
REMARK    4  A    between atoms: C_10  and  C_11
REMARK    5  A    between atoms: C_14  and  C_15
REMARK    6  A    between atoms: C_15  and  N_16
REMARK    7  A    between atoms: C_17  and  C_19
REMARK                            x       y       z     vdW  Elec       q    Type
REMARK                         _______ _______ _______ _____ _____    ______ ____
ROOT
ATOM      1  C   UNL     1      50.486   9.066  11.412  0.00  0.00    +0.000 A 
ATOM      2  C   UNL     1      49.584  10.098  11.706  0.00  0.00    +0.000 A 
ATOM      3  C   UNL     1      48.267   9.817  12.105  0.00  0.00    +0.000 A 
ATOM      4  C   UNL     1      47.823   8.495  12.242  0.00  0.00    +0.000 A 
ATOM      5  C   UNL     1      48.716   7.462  11.924  0.00  0.00    +0.000 A 
ATOM      6  C   UNL     1      50.035   7.744  11.531  0.00  0.00    +0.000 A 
ENDROOT
BRANCH   1   7
ATOM      7  C   UNL     1      51.893   9.376  10.950  0.00  0.00    +0.000 C 
BRANCH   7  10
ATOM      8  C   UNL     1      53.261   7.578   9.934  0.00  0.00    +0.000 C 
ATOM      9  O   UNL     1      53.821   7.288  10.982  0.00  0.00    +0.000 OA
ATOM     10  N   UNL     1      52.317   8.585   9.818  0.00  0.00    +0.000 N 
ATOM     11  H   UNL     1      51.901   8.720   8.902  0.00  0.00    +0.000 HD
BRANCH   8  17
ATOM     12  C   UNL     1      53.928   7.847   5.134  0.00  0.00    +0.000 C 
ATOM     13  C   UNL     1      53.882   6.984   6.358  0.00  0.00    +0.000 A 
ATOM     14  C   UNL     1      54.112   5.613   6.274  0.00  0.00    +0.000 A 
ATOM     15  C   UNL     1      54.054   4.848   7.437  0.00  0.00    +0.000 A 
ATOM     16  C   UNL     1      53.774   5.472   8.648  0.00  0.00    +0.000 A 
ATOM     17  C   UNL     1      53.561   6.845   8.651  0.00  0.00    +0.000 A 
ATOM     18  N   UNL     1      53.607   7.614   7.526  0.00  0.00    +0.000 NA
ENDBRANCH   8  17
ENDBRANCH   7  10
ENDBRANCH   1   7
BRANCH   4  19
ATOM     19  C   UNL     1      46.425   8.196  12.735  0.00  0.00    +0.000 C 
BRANCH  19  20
ATOM     20  N   UNL     1      45.996   6.858  12.408  0.00  0.00    +0.000 N 
ATOM     21  C   UNL     1      44.860   6.629  11.668  0.00  0.00    +0.000 C 
ATOM     22  O   UNL     1      44.187   7.543  11.198  0.00  0.00    +0.000 OA
ATOM     23  H   UNL     1      46.385   6.104  12.964  0.00  0.00    +0.000 HD
BRANCH  21  24
ATOM     24  C   UNL     1      44.518   5.222  11.417  0.00  0.00    +0.000 A 
ATOM     25  C   UNL     1      43.764   4.509  12.341  0.00  0.00    +0.000 A 
ATOM     26  S   UNL     1      43.444   2.901  11.865  0.00  0.00    +0.000 S 
ATOM     27  C   UNL     1      44.335   3.088  10.429  0.00  0.00    +0.000 A 
ATOM     28  N   UNL     1      44.484   2.056   9.555  0.00  0.00    +0.000 NA
ATOM     29  C   UNL     1      45.196   2.338   8.514  0.00  0.00    +0.000 A 
ATOM     30  N   UNL     1      45.767   3.557   8.266  0.00  0.00    +0.000 N 
ATOM     31  C   UNL     1      45.627   4.634   9.108  0.00  0.00    +0.000 A 
ATOM     32  O   UNL     1      46.115   5.724   8.833  0.00  0.00    +0.000 OA
ATOM     33  C   UNL     1      44.847   4.368  10.302  0.00  0.00    +0.000 A 
ATOM     34  H   UNL     1      46.297   3.722   7.424  0.00  0.00    +0.000 HD
ENDBRANCH  21  24
ENDBRANCH  19  20
ENDBRANCH   4  19
TORSDOF 6
ENDMDL
MODEL 6
REMARK VINA RESULT:    -6.573      2.712      4.098
REMARK INTER + INTRA:          -9.983
REMARK INTER:                  -9.144
REMARK INTRA:                  -0.838
REMARK UNBOUND:                -1.104
REMARK  Name = 
REMARK  7 active torsions:
REMARK  status: ('A' for Active; 'I' for Inactive)
REMARK    1  A    between atoms: C_1  and  C_2
REMARK    2  A    between atoms: C_6  and  C_7
REMARK    3  A    between atoms: N_9  and  C_10
REMARK    4  A    between atoms: C_10  and  C_11
REMARK    5  A    between atoms: C_14  and  C_15
REMARK    6  A    between atoms: C_15  and  N_16
REMARK    7  A    between atoms: C_17  and  C_19
REMARK                            x       y       z     vdW  Elec       q    Type
REMARK                         _______ _______ _______ _____ _____    ______ ____
ROOT
ATOM      1  C   UNL     1      47.949   7.785  13.694  0.00  0.00    +0.000 A 
ATOM      2  C   UNL     1      48.079   8.925  14.500  0.00  0.00    +0.000 A 
ATOM      3  C   UNL     1      48.454   8.820  15.849  0.00  0.00    +0.000 A 
ATOM      4  C   UNL     1      48.733   7.573  16.424  0.00  0.00    +0.000 A 
ATOM      5  C   UNL     1      48.579   6.430  15.627  0.00  0.00    +0.000 A 
ATOM      6  C   UNL     1      48.209   6.536  14.276  0.00  0.00    +0.000 A 
ENDROOT
BRANCH   1   7
ATOM      7  C   UNL     1      47.510   7.902  12.252  0.00  0.00    +0.000 C 
BRANCH   7  10
ATOM      8  C   UNL     1      45.601   6.652  11.288  0.00  0.00    +0.000 C 
ATOM      9  O   UNL     1      44.841   7.610  11.321  0.00  0.00    +0.000 OA
ATOM     10  N   UNL     1      46.914   6.696  11.728  0.00  0.00    +0.000 N 
ATOM     11  H   UNL     1      47.459   5.844  11.630  0.00  0.00    +0.000 HD
BRANCH   8  17
ATOM     12  C   UNL     1      45.661   3.506   7.593  0.00  0.00    +0.000 C 
ATOM     13  C   UNL     1      45.198   3.814   8.984  0.00  0.00    +0.000 A 
ATOM     14  C   UNL     1      44.425   2.902   9.698  0.00  0.00    +0.000 A 
ATOM     15  C   UNL     1      44.011   3.232  10.986  0.00  0.00    +0.000 A 
ATOM     16  C   UNL     1      44.384   4.458  11.527  0.00  0.00    +0.000 A 
ATOM     17  C   UNL     1      45.161   5.313  10.754  0.00  0.00    +0.000 A 
ATOM     18  N   UNL     1      45.572   5.014   9.490  0.00  0.00    +0.000 NA
ENDBRANCH   8  17
ENDBRANCH   7  10
ENDBRANCH   1   7
BRANCH   4  19
ATOM     19  C   UNL     1      49.201   7.469  17.858  0.00  0.00    +0.000 C 
BRANCH  19  20
ATOM     20  N   UNL     1      50.288   6.534  18.020  0.00  0.00    +0.000 N 
ATOM     21  C   UNL     1      50.115   5.338  18.675  0.00  0.00    +0.000 C 
ATOM     22  O   UNL     1      49.021   4.976  19.102  0.00  0.00    +0.000 OA
ATOM     23  H   UNL     1      51.226   6.898  17.892  0.00  0.00    +0.000 HD
BRANCH  21  24
ATOM     24  C   UNL     1      51.302   4.480  18.791  0.00  0.00    +0.000 A 
ATOM     25  C   UNL     1      52.387   4.887  19.558  0.00  0.00    +0.000 A 
ATOM     26  S   UNL     1      53.660   3.750  19.596  0.00  0.00    +0.000 S 
ATOM     27  C   UNL     1      52.824   2.693  18.559  0.00  0.00    +0.000 A 
ATOM     28  N   UNL     1      53.377   1.515  18.161  0.00  0.00    +0.000 NA
ATOM     29  C   UNL     1      52.634   0.821  17.363  0.00  0.00    +0.000 A 
ATOM     30  N   UNL     1      51.390   1.194  16.932  0.00  0.00    +0.000 N 
ATOM     31  C   UNL     1      50.783   2.363  17.323  0.00  0.00    +0.000 A 
ATOM     32  O   UNL     1      49.649   2.646  16.952  0.00  0.00    +0.000 OA
ATOM     33  C   UNL     1      51.580   3.189  18.209  0.00  0.00    +0.000 A 
ATOM     34  H   UNL     1      50.849   0.598  16.324  0.00  0.00    +0.000 HD
ENDBRANCH  21  24
ENDBRANCH  19  20
ENDBRANCH   4  19
TORSDOF 6
ENDMDL
MODEL 7
REMARK VINA RESULT:    -6.555      2.301      2.859
REMARK INTER + INTRA:          -9.958
REMARK INTER:                  -8.989
REMARK INTRA:                  -0.969
REMARK UNBOUND:                -1.104
REMARK  Name = 
REMARK  7 active torsions:
REMARK  status: ('A' for Active; 'I' for Inactive)
REMARK    1  A    between atoms: C_1  and  C_2
REMARK    2  A    between atoms: C_6  and  C_7
REMARK    3  A    between atoms: N_9  and  C_10
REMARK    4  A    between atoms: C_10  and  C_11
REMARK    5  A    between atoms: C_14  and  C_15
REMARK    6  A    between atoms: C_15  and  N_16
REMARK    7  A    between atoms: C_17  and  C_19
REMARK                            x       y       z     vdW  Elec       q    Type
REMARK                         _______ _______ _______ _____ _____    ______ ____
ROOT
ATOM      1  C   UNL     1      46.275   6.592  11.628  0.00  0.00    +0.000 A 
ATOM      2  C   UNL     1      47.503   7.046  11.125  0.00  0.00    +0.000 A 
ATOM      3  C   UNL     1      48.464   7.622  11.972  0.00  0.00    +0.000 A 
ATOM      4  C   UNL     1      48.233   7.739  13.349  0.00  0.00    +0.000 A 
ATOM      5  C   UNL     1      46.996   7.309  13.849  0.00  0.00    +0.000 A 
ATOM      6  C   UNL     1      46.037   6.728  13.003  0.00  0.00    +0.000 A 
ENDROOT
BRANCH   1   7
ATOM      7  C   UNL     1      45.230   6.005  10.706  0.00  0.00    +0.000 C 
BRANCH   7  10
ATOM      8  C   UNL     1      45.136   3.996   9.259  0.00  0.00    +0.000 C 
ATOM      9  O   UNL     1      44.077   3.599   9.726  0.00  0.00    +0.000 OA
ATOM     10  N   UNL     1      45.778   5.150   9.680  0.00  0.00    +0.000 N 
ATOM     11  H   UNL     1      46.641   5.394   9.203  0.00  0.00    +0.000 HD
BRANCH   8  17
ATOM     12  C   UNL     1      46.733  -0.280   7.610  0.00  0.00    +0.000 C 
ATOM     13  C   UNL     1      46.603   1.195   7.381  0.00  0.00    +0.000 A 
ATOM     14  C   UNL     1      47.109   1.787   6.226  0.00  0.00    +0.000 A 
ATOM     15  C   UNL     1      46.971   3.162   6.057  0.00  0.00    +0.000 A 
ATOM     16  C   UNL     1      46.329   3.907   7.041  0.00  0.00    +0.000 A 
ATOM     17  C   UNL     1      45.847   3.244   8.163  0.00  0.00    +0.000 A 
ATOM     18  N   UNL     1      45.975   1.900   8.353  0.00  0.00    +0.000 NA
ENDBRANCH   8  17
ENDBRANCH   7  10
ENDBRANCH   1   7
BRANCH   4  19
ATOM     19  C   UNL     1      49.296   8.298  14.267  0.00  0.00    +0.000 C 
BRANCH  19  20
ATOM     20  N   UNL     1      50.035   7.267  14.952  0.00  0.00    +0.000 N 
ATOM     21  C   UNL     1      49.852   7.022  16.293  0.00  0.00    +0.000 C 
ATOM     22  O   UNL     1      49.014   7.622  16.961  0.00  0.00    +0.000 OA
ATOM     23  H   UNL     1      50.876   6.928  14.498  0.00  0.00    +0.000 HD
BRANCH  21  24
ATOM     24  C   UNL     1      50.677   5.958  16.881  0.00  0.00    +0.000 A 
ATOM     25  C   UNL     1      50.077   4.881  17.523  0.00  0.00    +0.000 A 
ATOM     26  S   UNL     1      51.192   3.733  18.118  0.00  0.00    +0.000 S 
ATOM     27  C   UNL     1      52.516   4.654  17.576  0.00  0.00    +0.000 A 
ATOM     28  N   UNL     1      53.794   4.241  17.792  0.00  0.00    +0.000 NA
ATOM     29  C   UNL     1      54.697   5.046  17.337  0.00  0.00    +0.000 A 
ATOM     30  N   UNL     1      54.439   6.221  16.684  0.00  0.00    +0.000 N 
ATOM     31  C   UNL     1      53.166   6.668  16.424  0.00  0.00    +0.000 A 
ATOM     32  O   UNL     1      52.970   7.703  15.798  0.00  0.00    +0.000 OA
ATOM     33  C   UNL     1      52.111   5.808  16.927  0.00  0.00    +0.000 A 
ATOM     34  H   UNL     1      55.188   6.798  16.334  0.00  0.00    +0.000 HD
ENDBRANCH  21  24
ENDBRANCH  19  20
ENDBRANCH   4  19
TORSDOF 6
ENDMDL
MODEL 8
REMARK VINA RESULT:    -6.057      4.566      9.175
REMARK INTER + INTRA:          -9.285
REMARK INTER:                  -8.368
REMARK INTRA:                  -0.917
REMARK UNBOUND:                -1.104
REMARK  Name = 
REMARK  7 active torsions:
REMARK  status: ('A' for Active; 'I' for Inactive)
REMARK    1  A    between atoms: C_1  and  C_2
REMARK    2  A    between atoms: C_6  and  C_7
REMARK    3  A    between atoms: N_9  and  C_10
REMARK    4  A    between atoms: C_10  and  C_11
REMARK    5  A    between atoms: C_14  and  C_15
REMARK    6  A    between atoms: C_15  and  N_16
REMARK    7  A    between atoms: C_17  and  C_19
REMARK                            x       y       z     vdW  Elec       q    Type
REMARK                         _______ _______ _______ _____ _____    ______ ____
ROOT
ATOM      1  C   UNL     1      51.384   5.007  17.924  0.00  0.00    +0.000 A 
ATOM      2  C   UNL     1      50.031   5.237  17.638  0.00  0.00    +0.000 A 
ATOM      3  C   UNL     1      49.646   6.151  16.644  0.00  0.00    +0.000 A 
ATOM      4  C   UNL     1      50.605   6.845  15.893  0.00  0.00    +0.000 A 
ATOM      5  C   UNL     1      51.958   6.635  16.196  0.00  0.00    +0.000 A 
ATOM      6  C   UNL     1      52.342   5.716  17.186  0.00  0.00    +0.000 A 
ENDROOT
BRANCH   1   7
ATOM      7  C   UNL     1      51.792   4.047  19.020  0.00  0.00    +0.000 C 
BRANCH   7  10
ATOM      8  C   UNL     1      53.723   2.538  18.659  0.00  0.00    +0.000 C 
ATOM      9  O   UNL     1      54.529   3.299  19.178  0.00  0.00    +0.000 OA
ATOM     10  N   UNL     1      52.373   2.820  18.528  0.00  0.00    +0.000 N 
ATOM     11  H   UNL     1      51.795   2.103  18.101  0.00  0.00    +0.000 HD
BRANCH   8  17
ATOM     12  C   UNL     1      53.924  -2.268  19.301  0.00  0.00    +0.000 C 
ATOM     13  C   UNL     1      54.232  -1.096  18.420  0.00  0.00    +0.000 A 
ATOM     14  C   UNL     1      54.856  -1.273  17.187  0.00  0.00    +0.000 A 
ATOM     15  C   UNL     1      55.129  -0.154  16.404  0.00  0.00    +0.000 A 
ATOM     16  C   UNL     1      54.768   1.107  16.868  0.00  0.00    +0.000 A 
ATOM     17  C   UNL     1      54.144   1.201  18.107  0.00  0.00    +0.000 A 
ATOM     18  N   UNL     1      53.872   0.122  18.893  0.00  0.00    +0.000 NA
ENDBRANCH   8  17
ENDBRANCH   7  10
ENDBRANCH   1   7
BRANCH   4  19
ATOM     19  C   UNL     1      50.188   7.778  14.779  0.00  0.00    +0.000 C 
BRANCH  19  20
ATOM     20  N   UNL     1      49.109   7.246  13.984  0.00  0.00    +0.000 N 
ATOM     21  C   UNL     1      47.858   7.817  13.998  0.00  0.00    +0.000 C 
ATOM     22  O   UNL     1      47.609   8.837  14.634  0.00  0.00    +0.000 OA
ATOM     23  H   UNL     1      49.216   6.296  13.645  0.00  0.00    +0.000 HD
BRANCH  21  24
ATOM     24  C   UNL     1      46.837   7.172  13.160  0.00  0.00    +0.000 A 
ATOM     25  C   UNL     1      46.055   7.933  12.299  0.00  0.00    +0.000 A 
ATOM     26  S   UNL     1      44.945   7.009  11.389  0.00  0.00    +0.000 S 
ATOM     27  C   UNL     1      45.442   5.566  12.141  0.00  0.00    +0.000 A 
ATOM     28  N   UNL     1      44.861   4.376  11.830  0.00  0.00    +0.000 NA
ATOM     29  C   UNL     1      45.329   3.367  12.488  0.00  0.00    +0.000 A 
ATOM     30  N   UNL     1      46.325   3.440  13.423  0.00  0.00    +0.000 N 
ATOM     31  C   UNL     1      46.955   4.615  13.755  0.00  0.00    +0.000 A 
ATOM     32  O   UNL     1      47.875   4.637  14.565  0.00  0.00    +0.000 OA
ATOM     33  C   UNL     1      46.458   5.784  13.055  0.00  0.00    +0.000 A 
ATOM     34  H   UNL     1      46.663   2.612  13.891  0.00  0.00    +0.000 HD
ENDBRANCH  21  24
ENDBRANCH  19  20
ENDBRANCH   4  19
TORSDOF 6
ENDMDL
MODEL 9
REMARK VINA RESULT:    -5.968      5.753      8.316
REMARK INTER + INTRA:          -9.166
REMARK INTER:                  -8.276
REMARK INTRA:                  -0.890
REMARK UNBOUND:                -1.104
REMARK  Name = 
REMARK  7 active torsions:
REMARK  status: ('A' for Active; 'I' for Inactive)
REMARK    1  A    between atoms: C_1  and  C_2
REMARK    2  A    between atoms: C_6  and  C_7
REMARK    3  A    between atoms: N_9  and  C_10
REMARK    4  A    between atoms: C_10  and  C_11
REMARK    5  A    between atoms: C_14  and  C_15
REMARK    6  A    between atoms: C_15  and  N_16
REMARK    7  A    between atoms: C_17  and  C_19
REMARK                            x       y       z     vdW  Elec       q    Type
REMARK                         _______ _______ _______ _____ _____    ______ ____
ROOT
ATOM      1  C   UNL     1      50.967   8.619  11.283  0.00  0.00    +0.000 A 
ATOM      2  C   UNL     1      50.422   7.410  11.739  0.00  0.00    +0.000 A 
ATOM      3  C   UNL     1      49.092   7.337  12.183  0.00  0.00    +0.000 A 
ATOM      4  C   UNL     1      48.263   8.466  12.163  0.00  0.00    +0.000 A 
ATOM      5  C   UNL     1      48.813   9.681  11.732  0.00  0.00    +0.000 A 
ATOM      6  C   UNL     1      50.142   9.753  11.282  0.00  0.00    +0.000 A 
ENDROOT
BRANCH   1   7
ATOM      7  C   UNL     1      52.411   8.699  10.839  0.00  0.00    +0.000 C 
BRANCH   7  10
ATOM      8  C   UNL     1      52.994   8.456   8.444  0.00  0.00    +0.000 C 
ATOM      9  O   UNL     1      53.267   7.267   8.539  0.00  0.00    +0.000 OA
ATOM     10  N   UNL     1      52.578   9.237   9.510  0.00  0.00    +0.000 N 
ATOM     11  H   UNL     1      52.355  10.207   9.307  0.00  0.00    +0.000 HD
BRANCH   8  17
ATOM     12  C   UNL     1      54.832   8.557   3.953  0.00  0.00    +0.000 C 
ATOM     13  C   UNL     1      53.969   9.222   4.982  0.00  0.00    +0.000 A 
ATOM     14  C   UNL     1      53.317  10.420   4.701  0.00  0.00    +0.000 A 
ATOM     15  C   UNL     1      52.529  11.006   5.689  0.00  0.00    +0.000 A 
ATOM     16  C   UNL     1      52.411  10.380   6.926  0.00  0.00    +0.000 A 
ATOM     17  C   UNL     1      53.089   9.184   7.128  0.00  0.00    +0.000 A 
ATOM     18  N   UNL     1      53.869   8.594   6.179  0.00  0.00    +0.000 NA
ENDBRANCH   8  17
ENDBRANCH   7  10
ENDBRANCH   1   7
BRANCH   4  19
ATOM     19  C   UNL     1      46.813   8.368  12.579  0.00  0.00    +0.000 C 
BRANCH  19  20
ATOM     20  N   UNL     1      46.266   7.049  12.378  0.00  0.00    +0.000 N 
ATOM     21  C   UNL     1      45.117   6.850  11.649  0.00  0.00    +0.000 C 
ATOM     22  O   UNL     1      44.532   7.770  11.084  0.00  0.00    +0.000 OA
ATOM     23  H   UNL     1      46.583   6.322  13.011  0.00  0.00    +0.000 HD
BRANCH  21  24
ATOM     24  C   UNL     1      44.650   5.462  11.532  0.00  0.00    +0.000 A 
ATOM     25  C   UNL     1      43.938   4.873  12.570  0.00  0.00    +0.000 A 
ATOM     26  S   UNL     1      43.456   3.268  12.243  0.00  0.00    +0.000 S 
ATOM     27  C   UNL     1      44.217   3.290  10.721  0.00  0.00    +0.000 A 
ATOM     28  N   UNL     1      44.205   2.194   9.914  0.00  0.00    +0.000 NA
ATOM     29  C   UNL     1      44.833   2.351   8.795  0.00  0.00    +0.000 A 
ATOM     30  N   UNL     1      45.465   3.501   8.409  0.00  0.00    +0.000 N 
ATOM     31  C   UNL     1      45.486   4.638   9.181  0.00  0.00    +0.000 A 
ATOM     32  O   UNL     1      46.024   5.666   8.785  0.00  0.00    +0.000 OA
ATOM     33  C   UNL     1      44.807   4.514  10.456  0.00  0.00    +0.000 A 
ATOM     34  H   UNL     1      45.923   3.569   7.513  0.00  0.00    +0.000 HD
ENDBRANCH  21  24
ENDBRANCH  19  20
ENDBRANCH   4  19
TORSDOF 6
ENDMDL
