MODEL 1
REMARK VINA RESULT:    -8.442      0.000      0.000
REMARK INTER + INTRA:         -11.900
REMARK INTER:                 -11.156
REMARK INTRA:                  -0.744
REMARK UNBOUND:                -0.744
REMARK  Name = 
REMARK  6 active torsions:
REMARK  status: ('A' for Active; 'I' for Inactive)
REMARK    1  A    between atoms: C_2  and  C_19
REMARK    2  A    between atoms: N_3  and  C_4
REMARK    3  A    between atoms: C_4  and  C_5
REMARK    4  A    between atoms: C_8  and  C_9
REMARK    5  A    between atoms: C_9  and  O_10
REMARK    6  A    between atoms: C_9  and  C_11
REMARK                            x       y       z     vdW  Elec       q    Type
REMARK                         _______ _______ _______ _____ _____    ______ ____
ROOT
ATOM      1  C   UNL     1      47.163   7.545  13.258  0.00  0.00    +0.000 C 
ENDROOT
BRANCH   1   2
ATOM      2  C   UNL     1      46.493   6.571  12.329  0.00  0.00    +0.000 A 
ATOM      3  C   UNL     1      45.788   5.473  12.837  0.00  0.00    +0.000 A 
ATOM      4  C   UNL     1      45.141   4.584  11.974  0.00  0.00    +0.000 A 
ATOM      5  C   UNL     1      45.194   4.769  10.584  0.00  0.00    +0.000 A 
ATOM      6  C   UNL     1      45.950   5.841  10.082  0.00  0.00    +0.000 A 
ATOM      7  C   UNL     1      46.591   6.731  10.943  0.00  0.00    +0.000 A 
BRANCH   5   8
ATOM      8  C   UNL     1      44.496   3.797   9.650  0.00  0.00    +0.000 C 
BRANCH   8   9
ATOM      9  C   UNL     1      45.464   3.106   8.700  0.00  0.00    +0.000 A 
ATOM     10  C   UNL     1      46.077   3.818   7.670  0.00  0.00    +0.000 A 
ATOM     11  C   UNL     1      46.906   3.136   6.785  0.00  0.00    +0.000 A 
ATOM     12  C   UNL     1      47.100   1.768   6.949  0.00  0.00    +0.000 A 
ATOM     13  C   UNL     1      46.473   1.139   8.010  0.00  0.00    +0.000 A 
ATOM     14  N   UNL     1      45.676   1.773   8.897  0.00  0.00    +0.000 NA
ENDBRANCH   8   9
BRANCH   8  15
ATOM     15  O   UNL     1      43.494   4.492   8.892  0.00  0.00    +0.000 OA
ATOM     16  H   UNL     1      43.448   5.374   9.312  0.00  0.00    +0.000 HD
ENDBRANCH   8  15
ENDBRANCH   5   8
ENDBRANCH   1   2
BRANCH   1  19
ATOM     17  O   UNL     1      49.750   6.976  14.196  0.00  0.00    +0.000 OA
ATOM     18  C   UNL     1      48.788   6.727  14.916  0.00  0.00    +0.000 C 
ATOM     19  N   UNL     1      47.494   6.920  14.512  0.00  0.00    +0.000 N 
ATOM     20  H   UNL     1      46.748   6.882  15.198  0.00  0.00    +0.000 HD
BRANCH  18  21
ATOM     21  C   UNL     1      48.967   6.149  16.253  0.00  0.00    +0.000 A 
ATOM     22  C   UNL     1      49.688   6.845  17.216  0.00  0.00    +0.000 A 
ATOM     23  S   UNL     1      49.790   6.030  18.712  0.00  0.00    +0.000 S 
ATOM     24  C   UNL     1      48.840   4.743  18.134  0.00  0.00    +0.000 A 
ATOM     25  N   UNL     1      48.493   3.698  18.926  0.00  0.00    +0.000 NA
ATOM     26  N   UNL     1      47.758   2.791  18.461  0.00  0.00    +0.000 NA
ATOM     27  N   UNL     1      47.357   2.858  17.156  0.00  0.00    +0.000 N 
ATOM     28  C   UNL     1      47.703   3.836  16.254  0.00  0.00    +0.000 A 
ATOM     29  O   UNL     1      47.376   3.773  15.073  0.00  0.00    +0.000 OA
ATOM     30  C   UNL     1      48.492   4.908  16.814  0.00  0.00    +0.000 A 
ATOM     31  H   UNL     1      46.791   2.087  16.828  0.00  0.00    +0.000 HD
ENDBRANCH  18  21
ENDBRANCH   1  19
TORSDOF 6
ENDMDL
MODEL 2
REMARK VINA RESULT:    -8.332      1.736      2.524
REMARK INTER + INTRA:         -11.756
REMARK INTER:                 -10.996
REMARK INTRA:                  -0.760
REMARK UNBOUND:                -0.744
REMARK  Name = 
REMARK  6 active torsions:
REMARK  status: ('A' for Active; 'I' for Inactive)
REMARK    1  A    between atoms: C_2  and  C_19
REMARK    2  A    between atoms: N_3  and  C_4
REMARK    3  A    between atoms: C_4  and  C_5
REMARK    4  A    between atoms: C_8  and  C_9
REMARK    5  A    between atoms: C_9  and  O_10
REMARK    6  A    between atoms: C_9  and  C_11
REMARK                            x       y       z     vdW  Elec       q    Type
REMARK                         _______ _______ _______ _____ _____    ______ ____
ROOT
ATOM      1  C   UNL     1      47.527   6.886  13.635  0.00  0.00    +0.000 C 
ENDROOT
BRANCH   1   2
ATOM      2  C   UNL     1      46.716   6.112  12.632  0.00  0.00    +0.000 A 
ATOM      3  C   UNL     1      46.453   6.647  11.364  0.00  0.00    +0.000 A 
ATOM      4  C   UNL     1      45.724   5.915  10.422  0.00  0.00    +0.000 A 
ATOM      5  C   UNL     1      45.234   4.638  10.732  0.00  0.00    +0.000 A 
ATOM      6  C   UNL     1      45.453   4.134  12.024  0.00  0.00    +0.000 A 
ATOM      7  C   UNL     1      46.186   4.861  12.962  0.00  0.00    +0.000 A 
BRANCH   5   8
ATOM      8  C   UNL     1      44.435   3.851   9.709  0.00  0.00    +0.000 C 
BRANCH   8   9
ATOM      9  C   UNL     1      45.321   3.192   8.661  0.00  0.00    +0.000 A 
ATOM     10  C   UNL     1      45.671   1.847   8.772  0.00  0.00    +0.000 A 
ATOM     11  C   UNL     1      46.534   1.300   7.828  0.00  0.00    +0.000 A 
ATOM     12  C   UNL     1      47.025   2.104   6.805  0.00  0.00    +0.000 A 
ATOM     13  C   UNL     1      46.613   3.424   6.753  0.00  0.00    +0.000 A 
ATOM     14  N   UNL     1      45.763   3.983   7.642  0.00  0.00    +0.000 NA
ENDBRANCH   8   9
BRANCH   8  15
ATOM     15  O   UNL     1      43.492   4.720   9.062  0.00  0.00    +0.000 OA
ATOM     16  H   UNL     1      44.032   5.483   8.773  0.00  0.00    +0.000 HD
ENDBRANCH   8  15
ENDBRANCH   5   8
ENDBRANCH   1   2
BRANCH   1  19
ATOM     17  O   UNL     1      49.783   6.611  15.288  0.00  0.00    +0.000 OA
ATOM     18  C   UNL     1      48.707   6.160  15.669  0.00  0.00    +0.000 C 
ATOM     19  N   UNL     1      47.574   6.201  14.901  0.00  0.00    +0.000 N 
ATOM     20  H   UNL     1      46.677   5.992  15.325  0.00  0.00    +0.000 HD
BRANCH  18  21
ATOM     21  C   UNL     1      48.579   5.492  16.970  0.00  0.00    +0.000 A 
ATOM     22  C   UNL     1      48.725   4.114  17.057  0.00  0.00    +0.000 A 
ATOM     23  S   UNL     1      48.552   3.508  18.643  0.00  0.00    +0.000 S 
ATOM     24  C   UNL     1      48.321   5.072  19.269  0.00  0.00    +0.000 A 
ATOM     25  N   UNL     1      48.154   5.294  20.597  0.00  0.00    +0.000 NA
ATOM     26  N   UNL     1      48.024   6.473  21.013  0.00  0.00    +0.000 NA
ATOM     27  N   UNL     1      48.014   7.502  20.113  0.00  0.00    +0.000 N 
ATOM     28  C   UNL     1      48.110   7.382  18.747  0.00  0.00    +0.000 A 
ATOM     29  O   UNL     1      47.999   8.350  18.003  0.00  0.00    +0.000 OA
ATOM     30  C   UNL     1      48.327   6.031  18.284  0.00  0.00    +0.000 A 
ATOM     31  H   UNL     1      47.877   8.426  20.501  0.00  0.00    +0.000 HD
ENDBRANCH  18  21
ENDBRANCH   1  19
TORSDOF 6
ENDMDL
MODEL 3
REMARK VINA RESULT:    -8.133      2.500      4.369
REMARK INTER + INTRA:         -11.492
REMARK INTER:                 -10.418
REMARK INTRA:                  -1.075
REMARK UNBOUND:                -0.744
REMARK  Name = 
REMARK  6 active torsions:
REMARK  status: ('A' for Active; 'I' for Inactive)
REMARK    1  A    between atoms: C_2  and  C_19
REMARK    2  A    between atoms: N_3  and  C_4
REMARK    3  A    between atoms: C_4  and  C_5
REMARK    4  A    between atoms: C_8  and  C_9
REMARK    5  A    between atoms: C_9  and  O_10
REMARK    6  A    between atoms: C_9  and  C_11
REMARK                            x       y       z     vdW  Elec       q    Type
REMARK                         _______ _______ _______ _____ _____    ______ ____
ROOT
ATOM      1  C   UNL     1      46.778   4.977  14.408  0.00  0.00    +0.000 C 
ENDROOT
BRANCH   1   2
ATOM      2  C   UNL     1      46.157   4.569  13.099  0.00  0.00    +0.000 A 
ATOM      3  C   UNL     1      46.012   5.497  12.061  0.00  0.00    +0.000 A 
ATOM      4  C   UNL     1      45.461   5.110  10.835  0.00  0.00    +0.000 A 
ATOM      5  C   UNL     1      45.035   3.790  10.628  0.00  0.00    +0.000 A 
ATOM      6  C   UNL     1      45.132   2.881  11.694  0.00  0.00    +0.000 A 
ATOM      7  C   UNL     1      45.687   3.265  12.914  0.00  0.00    +0.000 A 
BRANCH   5   8
ATOM      8  C   UNL     1      44.429   3.377   9.298  0.00  0.00    +0.000 C 
BRANCH   8   9
ATOM      9  C   UNL     1      45.463   2.796   8.344  0.00  0.00    +0.000 A 
ATOM     10  C   UNL     1      45.940   3.549   7.271  0.00  0.00    +0.000 A 
ATOM     11  C   UNL     1      46.837   2.959   6.386  0.00  0.00    +0.000 A 
ATOM     12  C   UNL     1      47.231   1.641   6.591  0.00  0.00    +0.000 A 
ATOM     13  C   UNL     1      46.728   0.969   7.691  0.00  0.00    +0.000 A 
ATOM     14  N   UNL     1      45.870   1.516   8.580  0.00  0.00    +0.000 NA
ENDBRANCH   8   9
BRANCH   8  15
ATOM     15  O   UNL     1      43.794   4.510   8.686  0.00  0.00    +0.000 OA
ATOM     16  H   UNL     1      44.094   5.270   9.223  0.00  0.00    +0.000 HD
ENDBRANCH   8  15
ENDBRANCH   5   8
ENDBRANCH   1   2
BRANCH   1  19
ATOM     17  O   UNL     1      49.160   5.989  15.501  0.00  0.00    +0.000 OA
ATOM     18  C   UNL     1      48.421   6.748  14.881  0.00  0.00    +0.000 C 
ATOM     19  N   UNL     1      47.216   6.348  14.367  0.00  0.00    +0.000 N 
ATOM     20  H   UNL     1      46.733   6.947  13.707  0.00  0.00    +0.000 HD
BRANCH  18  21
ATOM     21  C   UNL     1      48.764   8.162  14.695  0.00  0.00    +0.000 A 
ATOM     22  C   UNL     1      48.898   8.992  15.802  0.00  0.00    +0.000 A 
ATOM     23  S   UNL     1      49.305  10.600  15.402  0.00  0.00    +0.000 S 
ATOM     24  C   UNL     1      49.357  10.229  13.744  0.00  0.00    +0.000 A 
ATOM     25  N   UNL     1      49.695  11.156  12.813  0.00  0.00    +0.000 NA
ATOM     26  N   UNL     1      49.755  10.821  11.603  0.00  0.00    +0.000 NA
ATOM     27  N   UNL     1      49.440   9.539  11.248  0.00  0.00    +0.000 N 
ATOM     28  C   UNL     1      49.025   8.543  12.100  0.00  0.00    +0.000 A 
ATOM     29  O   UNL     1      48.672   7.444  11.688  0.00  0.00    +0.000 OA
ATOM     30  C   UNL     1      49.024   8.918  13.495  0.00  0.00    +0.000 A 
ATOM     31  H   UNL     1      49.478   9.333  10.258  0.00  0.00    +0.000 HD
ENDBRANCH  18  21
ENDBRANCH   1  19
TORSDOF 6
ENDMDL
MODEL 4
REMARK VINA RESULT:    -7.385      2.849      3.733
REMARK INTER + INTRA:         -10.504
REMARK INTER:                  -9.546
REMARK INTRA:                  -0.958
REMARK UNBOUND:                -0.744
REMARK  Name = 
REMARK  6 active torsions:
REMARK  status: ('A' for Active; 'I' for Inactive)
REMARK    1  A    between atoms: C_2  and  C_19
REMARK    2  A    between atoms: N_3  and  C_4
REMARK    3  A    between atoms: C_4  and  C_5
REMARK    4  A    between atoms: C_8  and  C_9
REMARK    5  A    between atoms: C_9  and  O_10
REMARK    6  A    between atoms: C_9  and  C_11
REMARK                            x       y       z     vdW  Elec       q    Type
REMARK                         _______ _______ _______ _____ _____    ______ ____
ROOT
ATOM      1  C   UNL     1      47.809   4.840  15.184  0.00  0.00    +0.000 C 
ENDROOT
BRANCH   1   2
ATOM      2  C   UNL     1      46.947   4.667  13.963  0.00  0.00    +0.000 A 
ATOM      3  C   UNL     1      46.456   3.404  13.611  0.00  0.00    +0.000 A 
ATOM      4  C   UNL     1      45.632   3.249  12.492  0.00  0.00    +0.000 A 
ATOM      5  C   UNL     1      45.291   4.353  11.696  0.00  0.00    +0.000 A 
ATOM      6  C   UNL     1      45.834   5.606  12.024  0.00  0.00    +0.000 A 
ATOM      7  C   UNL     1      46.651   5.762  13.143  0.00  0.00    +0.000 A 
BRANCH   5   8
ATOM      8  C   UNL     1      44.402   4.178  10.478  0.00  0.00    +0.000 C 
BRANCH   8   9
ATOM      9  C   UNL     1      45.151   3.590   9.291  0.00  0.00    +0.000 A 
ATOM     10  C   UNL     1      45.290   2.209   9.154  0.00  0.00    +0.000 A 
ATOM     11  C   UNL     1      46.037   1.714   8.089  0.00  0.00    +0.000 A 
ATOM     12  C   UNL     1      46.623   2.603   7.195  0.00  0.00    +0.000 A 
ATOM     13  C   UNL     1      46.420   3.958   7.389  0.00  0.00    +0.000 A 
ATOM     14  N   UNL     1      45.688   4.473   8.400  0.00  0.00    +0.000 NA
ENDBRANCH   8   9
BRANCH   8  15
ATOM     15  O   UNL     1      43.837   5.446  10.108  0.00  0.00    +0.000 OA
ATOM     16  H   UNL     1      44.233   5.637   9.234  0.00  0.00    +0.000 HD
ENDBRANCH   8  15
ENDBRANCH   5   8
ENDBRANCH   1   2
BRANCH   1  19
ATOM     17  O   UNL     1      50.128   6.284  15.841  0.00  0.00    +0.000 OA
ATOM     18  C   UNL     1      49.046   6.864  15.839  0.00  0.00    +0.000 C 
ATOM     19  N   UNL     1      47.863   6.221  15.587  0.00  0.00    +0.000 N 
ATOM     20  H   UNL     1      47.028   6.767  15.410  0.00  0.00    +0.000 HD
BRANCH  18  21
ATOM     21  C   UNL     1      48.947   8.292  16.164  0.00  0.00    +0.000 A 
ATOM     22  C   UNL     1      49.467   9.236  15.288  0.00  0.00    +0.000 A 
ATOM     23  S   UNL     1      49.259  10.845  15.820  0.00  0.00    +0.000 S 
ATOM     24  C   UNL     1      48.431  10.331  17.213  0.00  0.00    +0.000 A 
ATOM     25  N   UNL     1      47.922  11.213  18.109  0.00  0.00    +0.000 NA
ATOM     26  N   UNL     1      47.286  10.783  19.104  0.00  0.00    +0.000 NA
ATOM     27  N   UNL     1      47.156   9.434  19.282  0.00  0.00    +0.000 N 
ATOM     28  C   UNL     1      47.686   8.458  18.472  0.00  0.00    +0.000 A 
ATOM     29  O   UNL     1      47.602   7.267  18.754  0.00  0.00    +0.000 OA
ATOM     30  C   UNL     1      48.357   8.961  17.296  0.00  0.00    +0.000 A 
ATOM     31  H   UNL     1      46.659   9.144  20.114  0.00  0.00    +0.000 HD
ENDBRANCH  18  21
ENDBRANCH   1  19
TORSDOF 6
ENDMDL
MODEL 5
REMARK VINA RESULT:    -7.321      3.363      8.199
REMARK INTER + INTRA:         -10.420
REMARK INTER:                  -9.336
REMARK INTRA:                  -1.084
REMARK UNBOUND:                -0.744
REMARK  Name = 
REMARK  6 active torsions:
REMARK  status: ('A' for Active; 'I' for Inactive)
REMARK    1  A    between atoms: C_2  and  C_19
REMARK    2  A    between atoms: N_3  and  C_4
REMARK    3  A    between atoms: C_4  and  C_5
REMARK    4  A    between atoms: C_8  and  C_9
REMARK    5  A    between atoms: C_9  and  O_10
REMARK    6  A    between atoms: C_9  and  C_11
REMARK                            x       y       z     vdW  Elec       q    Type
REMARK                         _______ _______ _______ _____ _____    ______ ____
ROOT
ATOM      1  C   UNL     1      47.867   6.979  13.391  0.00  0.00    +0.000 C 
ENDROOT
BRANCH   1   2
ATOM      2  C   UNL     1      48.285   6.350  14.692  0.00  0.00    +0.000 A 
ATOM      3  C   UNL     1      47.552   5.288  15.237  0.00  0.00    +0.000 A 
ATOM      4  C   UNL     1      47.958   4.684  16.431  0.00  0.00    +0.000 A 
ATOM      5  C   UNL     1      49.099   5.138  17.110  0.00  0.00    +0.000 A 
ATOM      6  C   UNL     1      49.795   6.239  16.586  0.00  0.00    +0.000 A 
ATOM      7  C   UNL     1      49.394   6.838  15.392  0.00  0.00    +0.000 A 
BRANCH   5   8
ATOM      8  C   UNL     1      49.531   4.484  18.411  0.00  0.00    +0.000 C 
BRANCH   8   9
ATOM      9  C   UNL     1      50.677   3.502  18.216  0.00  0.00    +0.000 A 
ATOM     10  C   UNL     1      51.967   3.826  18.633  0.00  0.00    +0.000 A 
ATOM     11  C   UNL     1      52.998   2.927  18.379  0.00  0.00    +0.000 A 
ATOM     12  C   UNL     1      52.717   1.736  17.718  0.00  0.00    +0.000 A 
ATOM     13  C   UNL     1      51.407   1.480  17.355  0.00  0.00    +0.000 A 
ATOM     14  N   UNL     1      50.380   2.321  17.601  0.00  0.00    +0.000 NA
ENDBRANCH   8   9
BRANCH   8  15
ATOM     15  O   UNL     1      48.412   3.806  19.003  0.00  0.00    +0.000 OA
ATOM     16  H   UNL     1      47.748   4.512  19.135  0.00  0.00    +0.000 HD
ENDBRANCH   8  15
ENDBRANCH   5   8
ENDBRANCH   1   2
BRANCH   1  19
ATOM     17  O   UNL     1      45.790   7.634  11.616  0.00  0.00    +0.000 OA
ATOM     18  C   UNL     1      46.149   6.464  11.705  0.00  0.00    +0.000 C 
ATOM     19  N   UNL     1      47.113   6.053  12.587  0.00  0.00    +0.000 N 
ATOM     20  H   UNL     1      47.509   5.124  12.494  0.00  0.00    +0.000 HD
BRANCH  18  21
ATOM     21  C   UNL     1      45.522   5.411  10.898  0.00  0.00    +0.000 A 
ATOM     22  C   UNL     1      45.682   5.411   9.518  0.00  0.00    +0.000 A 
ATOM     23  S   UNL     1      44.891   4.114   8.741  0.00  0.00    +0.000 S 
ATOM     24  C   UNL     1      44.348   3.488  10.226  0.00  0.00    +0.000 A 
ATOM     25  N   UNL     1      43.634   2.338  10.300  0.00  0.00    +0.000 NA
ATOM     26  N   UNL     1      43.288   1.898  11.425  0.00  0.00    +0.000 NA
ATOM     27  N   UNL     1      43.606   2.610  12.548  0.00  0.00    +0.000 N 
ATOM     28  C   UNL     1      44.269   3.814  12.580  0.00  0.00    +0.000 A 
ATOM     29  O   UNL     1      44.434   4.435  13.624  0.00  0.00    +0.000 OA
ATOM     30  C   UNL     1      44.721   4.278  11.288  0.00  0.00    +0.000 A 
ATOM     31  H   UNL     1      43.278   2.224  13.423  0.00  0.00    +0.000 HD
ENDBRANCH  18  21
ENDBRANCH   1  19
TORSDOF 6
ENDMDL
MODEL 6
REMARK VINA RESULT:    -7.320      1.768      2.190
REMARK INTER + INTRA:         -10.418
REMARK INTER:                  -9.221
REMARK INTRA:                  -1.197
REMARK UNBOUND:                -0.744
REMARK  Name = 
REMARK  6 active torsions:
REMARK  status: ('A' for Active; 'I' for Inactive)
REMARK    1  A    between atoms: C_2  and  C_19
REMARK    2  A    between atoms: N_3  and  C_4
REMARK    3  A    between atoms: C_4  and  C_5
REMARK    4  A    between atoms: C_8  and  C_9
REMARK    5  A    between atoms: C_9  and  O_10
REMARK    6  A    between atoms: C_9  and  C_11
REMARK                            x       y       z     vdW  Elec       q    Type
REMARK                         _______ _______ _______ _____ _____    ______ ____
ROOT
ATOM      1  C   UNL     1      47.974   8.234  13.961  0.00  0.00    +0.000 C 
ENDROOT
BRANCH   1   2
ATOM      2  C   UNL     1      46.959   7.397  13.232  0.00  0.00    +0.000 A 
ATOM      3  C   UNL     1      45.931   8.003  12.498  0.00  0.00    +0.000 A 
ATOM      4  C   UNL     1      45.006   7.224  11.797  0.00  0.00    +0.000 A 
ATOM      5  C   UNL     1      45.083   5.823  11.824  0.00  0.00    +0.000 A 
ATOM      6  C   UNL     1      46.082   5.225  12.608  0.00  0.00    +0.000 A 
ATOM      7  C   UNL     1      47.009   6.001  13.303  0.00  0.00    +0.000 A 
BRANCH   5   8
ATOM      8  C   UNL     1      44.070   4.982  11.068  0.00  0.00    +0.000 C 
BRANCH   8   9
ATOM      9  C   UNL     1      44.715   4.129   9.985  0.00  0.00    +0.000 A 
ATOM     10  C   UNL     1      45.485   4.719   8.983  0.00  0.00    +0.000 A 
ATOM     11  C   UNL     1      46.004   3.911   7.976  0.00  0.00    +0.000 A 
ATOM     12  C   UNL     1      45.743   2.545   7.994  0.00  0.00    +0.000 A 
ATOM     13  C   UNL     1      44.988   2.035   9.036  0.00  0.00    +0.000 A 
ATOM     14  N   UNL     1      44.483   2.786  10.037  0.00  0.00    +0.000 NA
ENDBRANCH   8   9
BRANCH   8  15
ATOM     15  O   UNL     1      43.078   5.838  10.478  0.00  0.00    +0.000 OA
ATOM     16  H   UNL     1      43.488   6.726  10.499  0.00  0.00    +0.000 HD
ENDBRANCH   8  15
ENDBRANCH   5   8
ENDBRANCH   1   2
BRANCH   1  19
ATOM     17  O   UNL     1      49.507   8.926  16.212  0.00  0.00    +0.000 OA
ATOM     18  C   UNL     1      49.628   7.803  15.731  0.00  0.00    +0.000 C 
ATOM     19  N   UNL     1      48.962   7.407  14.603  0.00  0.00    +0.000 N 
ATOM     20  H   UNL     1      48.946   6.424  14.354  0.00  0.00    +0.000 HD
BRANCH  18  21
ATOM     21  C   UNL     1      50.549   6.821  16.316  0.00  0.00    +0.000 A 
ATOM     22  C   UNL     1      51.901   7.121  16.426  0.00  0.00    +0.000 A 
ATOM     23  S   UNL     1      52.821   5.869  17.133  0.00  0.00    +0.000 S 
ATOM     24  C   UNL     1      51.437   4.907  17.354  0.00  0.00    +0.000 A 
ATOM     25  N   UNL     1      51.497   3.694  17.958  0.00  0.00    +0.000 NA
ATOM     26  N   UNL     1      50.439   3.038  18.130  0.00  0.00    +0.000 NA
ATOM     27  N   UNL     1      49.256   3.544  17.668  0.00  0.00    +0.000 N 
ATOM     28  C   UNL     1      49.094   4.728  16.988  0.00  0.00    +0.000 A 
ATOM     29  O   UNL     1      48.010   5.066  16.526  0.00  0.00    +0.000 OA
ATOM     30  C   UNL     1      50.304   5.506  16.855  0.00  0.00    +0.000 A 
ATOM     31  H   UNL     1      48.441   2.961  17.809  0.00  0.00    +0.000 HD
ENDBRANCH  18  21
ENDBRANCH   1  19
TORSDOF 6
ENDMDL
MODEL 7
REMARK VINA RESULT:    -7.266      3.982      8.864
REMARK INTER + INTRA:         -10.347
REMARK INTER:                  -9.399
REMARK INTRA:                  -0.948
REMARK UNBOUND:                -0.744
REMARK  Name = 
REMARK  6 active torsions:
REMARK  status: ('A' for Active; 'I' for Inactive)
REMARK    1  A    between atoms: C_2  and  C_19
REMARK    2  A    between atoms: N_3  and  C_4
REMARK    3  A    between atoms: C_4  and  C_5
REMARK    4  A    between atoms: C_8  and  C_9
REMARK    5  A    between atoms: C_9  and  O_10
REMARK    6  A    between atoms: C_9  and  C_11
REMARK                            x       y       z     vdW  Elec       q    Type
REMARK                         _______ _______ _______ _____ _____    ______ ____
ROOT
ATOM      1  C   UNL     1      47.147   3.360  16.888  0.00  0.00    +0.000 C 
ENDROOT
BRANCH   1   2
ATOM      2  C   UNL     1      48.550   3.557  17.392  0.00  0.00    +0.000 A 
ATOM      3  C   UNL     1      48.870   4.658  18.196  0.00  0.00    +0.000 A 
ATOM      4  C   UNL     1      50.168   4.825  18.688  0.00  0.00    +0.000 A 
ATOM      5  C   UNL     1      51.176   3.900  18.377  0.00  0.00    +0.000 A 
ATOM      6  C   UNL     1      50.859   2.830  17.524  0.00  0.00    +0.000 A 
ATOM      7  C   UNL     1      49.563   2.660  17.038  0.00  0.00    +0.000 A 
BRANCH   5   8
ATOM      8  C   UNL     1      52.586   4.090  18.906  0.00  0.00    +0.000 C 
BRANCH   8   9
ATOM      9  C   UNL     1      53.573   4.465  17.811  0.00  0.00    +0.000 A 
ATOM     10  C   UNL     1      54.666   3.647  17.531  0.00  0.00    +0.000 A 
ATOM     11  C   UNL     1      55.580   4.058  16.565  0.00  0.00    +0.000 A 
ATOM     12  C   UNL     1      55.381   5.267  15.908  0.00  0.00    +0.000 A 
ATOM     13  C   UNL     1      54.259   6.012  16.228  0.00  0.00    +0.000 A 
ATOM     14  N   UNL     1      53.344   5.635  17.148  0.00  0.00    +0.000 NA
ENDBRANCH   8   9
BRANCH   8  15
ATOM     15  O   UNL     1      53.023   2.886  19.555  0.00  0.00    +0.000 OA
ATOM     16  H   UNL     1      52.567   2.903  20.421  0.00  0.00    +0.000 HD
ENDBRANCH   8  15
ENDBRANCH   5   8
ENDBRANCH   1   2
BRANCH   1  19
ATOM     17  O   UNL     1      47.310   3.082  14.097  0.00  0.00    +0.000 OA
ATOM     18  C   UNL     1      46.861   4.124  14.566  0.00  0.00    +0.000 C 
ATOM     19  N   UNL     1      46.802   4.362  15.914  0.00  0.00    +0.000 N 
ATOM     20  H   UNL     1      46.256   5.144  16.257  0.00  0.00    +0.000 HD
BRANCH  18  21
ATOM     21  C   UNL     1      46.403   5.215  13.698  0.00  0.00    +0.000 A 
ATOM     22  C   UNL     1      47.243   6.291  13.439  0.00  0.00    +0.000 A 
ATOM     23  S   UNL     1      46.553   7.462  12.407  0.00  0.00    +0.000 S 
ATOM     24  C   UNL     1      45.129   6.548  12.239  0.00  0.00    +0.000 A 
ATOM     25  N   UNL     1      44.109   6.951  11.441  0.00  0.00    +0.000 NA
ATOM     26  N   UNL     1      43.093   6.221  11.322  0.00  0.00    +0.000 NA
ATOM     27  N   UNL     1      43.022   5.055  12.031  0.00  0.00    +0.000 N 
ATOM     28  C   UNL     1      43.967   4.586  12.913  0.00  0.00    +0.000 A 
ATOM     29  O   UNL     1      43.784   3.574  13.581  0.00  0.00    +0.000 OA
ATOM     30  C   UNL     1      45.159   5.397  12.992  0.00  0.00    +0.000 A 
ATOM     31  H   UNL     1      42.170   4.521  11.920  0.00  0.00    +0.000 HD
ENDBRANCH  18  21
ENDBRANCH   1  19
TORSDOF 6
ENDMDL
MODEL 8
REMARK VINA RESULT:    -7.255      2.989      3.964
REMARK INTER + INTRA:         -10.332
REMARK INTER:                  -9.457
REMARK INTRA:                  -0.875
REMARK UNBOUND:                -0.744
REMARK  Name = 
REMARK  6 active torsions:
REMARK  status: ('A' for Active; 'I' for Inactive)
REMARK    1  A    between atoms: C_2  and  C_19
REMARK    2  A    between atoms: N_3  and  C_4
REMARK    3  A    between atoms: C_4  and  C_5
REMARK    4  A    between atoms: C_8  and  C_9
REMARK    5  A    between atoms: C_9  and  O_10
REMARK    6  A    between atoms: C_9  and  C_11
REMARK                            x       y       z     vdW  Elec       q    Type
REMARK                         _______ _______ _______ _____ _____    ______ ____
ROOT
ATOM      1  C   UNL     1      46.509   5.881  13.791  0.00  0.00    +0.000 C 
ENDROOT
BRANCH   1   2
ATOM      2  C   UNL     1      45.984   5.213  12.550  0.00  0.00    +0.000 A 
ATOM      3  C   UNL     1      45.963   5.898  11.328  0.00  0.00    +0.000 A 
ATOM      4  C   UNL     1      45.502   5.268  10.169  0.00  0.00    +0.000 A 
ATOM      5  C   UNL     1      45.040   3.943  10.210  0.00  0.00    +0.000 A 
ATOM      6  C   UNL     1      45.011   3.284  11.450  0.00  0.00    +0.000 A 
ATOM      7  C   UNL     1      45.477   3.911  12.605  0.00  0.00    +0.000 A 
BRANCH   5   8
ATOM      8  C   UNL     1      44.532   3.266   8.950  0.00  0.00    +0.000 C 
BRANCH   8   9
ATOM      9  C   UNL     1      45.656   2.661   8.121  0.00  0.00    +0.000 A 
ATOM     10  C   UNL     1      46.215   3.370   7.059  0.00  0.00    +0.000 A 
ATOM     11  C   UNL     1      47.197   2.756   6.287  0.00  0.00    +0.000 A 
ATOM     12  C   UNL     1      47.591   1.458   6.592  0.00  0.00    +0.000 A 
ATOM     13  C   UNL     1      47.002   0.829   7.675  0.00  0.00    +0.000 A 
ATOM     14  N   UNL     1      46.060   1.401   8.456  0.00  0.00    +0.000 NA
ENDBRANCH   8   9
BRANCH   8  15
ATOM     15  O   UNL     1      43.805   4.214   8.153  0.00  0.00    +0.000 OA
ATOM     16  H   UNL     1      44.301   5.050   8.268  0.00  0.00    +0.000 HD
ENDBRANCH   8  15
ENDBRANCH   5   8
ENDBRANCH   1   2
BRANCH   1  19
ATOM     17  O   UNL     1      47.333   8.566  13.721  0.00  0.00    +0.000 OA
ATOM     18  C   UNL     1      48.179   7.682  13.628  0.00  0.00    +0.000 C 
ATOM     19  N   UNL     1      47.856   6.351  13.595  0.00  0.00    +0.000 N 
ATOM     20  H   UNL     1      48.588   5.659  13.708  0.00  0.00    +0.000 HD
BRANCH  18  21
ATOM     21  C   UNL     1      49.604   8.003  13.490  0.00  0.00    +0.000 A 
ATOM     22  C   UNL     1      50.154   8.179  12.226  0.00  0.00    +0.000 A 
ATOM     23  S   UNL     1      51.819   8.553  12.254  0.00  0.00    +0.000 S 
ATOM     24  C   UNL     1      51.847   8.535  13.954  0.00  0.00    +0.000 A 
ATOM     25  N   UNL     1      52.972   8.822  14.654  0.00  0.00    +0.000 NA
ATOM     26  N   UNL     1      52.931   8.831  15.910  0.00  0.00    +0.000 NA
ATOM     27  N   UNL     1      51.762   8.512  16.543  0.00  0.00    +0.000 N 
ATOM     28  C   UNL     1      50.587   8.145  15.932  0.00  0.00    +0.000 A 
ATOM     29  O   UNL     1      49.608   7.783  16.576  0.00  0.00    +0.000 OA
ATOM     30  C   UNL     1      50.624   8.203  14.489  0.00  0.00    +0.000 A 
ATOM     31  H   UNL     1      51.794   8.507  17.554  0.00  0.00    +0.000 HD
ENDBRANCH  18  21
ENDBRANCH   1  19
TORSDOF 6
ENDMDL
MODEL 9
REMARK VINA RESULT:    -7.069      3.814      8.114
REMARK INTER + INTRA:         -10.086
REMARK INTER:                  -8.905
REMARK INTRA:                  -1.181
REMARK UNBOUND:                -0.744
REMARK  Name = 
REMARK  6 active torsions:
REMARK  status: ('A' for Active; 'I' for Inactive)
REMARK    1  A    between atoms: C_2  and  C_19
REMARK    2  A    between atoms: N_3  and  C_4
REMARK    3  A    between atoms: C_4  and  C_5
REMARK    4  A    between atoms: C_8  and  C_9
REMARK    5  A    between atoms: C_9  and  O_10
REMARK    6  A    between atoms: C_9  and  C_11
REMARK                            x       y       z     vdW  Elec       q    Type
REMARK                         _______ _______ _______ _____ _____    ______ ____
ROOT
ATOM      1  C   UNL     1      48.971   7.798  14.347  0.00  0.00    +0.000 C 
ENDROOT
BRANCH   1   2
ATOM      2  C   UNL     1      49.496   6.981  15.495  0.00  0.00    +0.000 A 
ATOM      3  C   UNL     1      48.622   6.234  16.295  0.00  0.00    +0.000 A 
ATOM      4  C   UNL     1      49.114   5.451  17.344  0.00  0.00    +0.000 A 
ATOM      5  C   UNL     1      50.489   5.409  17.622  0.00  0.00    +0.000 A 
ATOM      6  C   UNL     1      51.351   6.206  16.851  0.00  0.00    +0.000 A 
ATOM      7  C   UNL     1      50.861   6.982  15.800  0.00  0.00    +0.000 A 
BRANCH   5   8
ATOM      8  C   UNL     1      51.018   4.565  18.768  0.00  0.00    +0.000 C 
BRANCH   8   9
ATOM      9  C   UNL     1      51.737   3.314  18.285  0.00  0.00    +0.000 A 
ATOM     10  C   UNL     1      51.054   2.336  17.563  0.00  0.00    +0.000 A 
ATOM     11  C   UNL     1      51.733   1.179  17.195  0.00  0.00    +0.000 A 
ATOM     12  C   UNL     1      53.067   1.027  17.555  0.00  0.00    +0.000 A 
ATOM     13  C   UNL     1      53.680   2.053  18.253  0.00  0.00    +0.000 A 
ATOM     14  N   UNL     1      53.057   3.196  18.611  0.00  0.00    +0.000 NA
ENDBRANCH   8   9
BRANCH   8  15
ATOM     15  O   UNL     1      49.932   4.191  19.631  0.00  0.00    +0.000 OA
ATOM     16  H   UNL     1      49.138   4.543  19.180  0.00  0.00    +0.000 HD
ENDBRANCH   8  15
ENDBRANCH   5   8
ENDBRANCH   1   2
BRANCH   1  19
ATOM     17  O   UNL     1      48.199   7.470  11.665  0.00  0.00    +0.000 OA
ATOM     18  C   UNL     1      47.433   7.109  12.553  0.00  0.00    +0.000 C 
ATOM     19  N   UNL     1      47.707   7.286  13.883  0.00  0.00    +0.000 N 
ATOM     20  H   UNL     1      47.142   6.807  14.575  0.00  0.00    +0.000 HD
BRANCH  18  21
ATOM     21  C   UNL     1      46.133   6.504  12.238  0.00  0.00    +0.000 A 
ATOM     22  C   UNL     1      45.147   7.267  11.624  0.00  0.00    +0.000 A 
ATOM     23  S   UNL     1      43.705   6.404  11.326  0.00  0.00    +0.000 S 
ATOM     24  C   UNL     1      44.368   4.975  11.967  0.00  0.00    +0.000 A 
ATOM     25  N   UNL     1      43.675   3.809  11.983  0.00  0.00    +0.000 NA
ATOM     26  N   UNL     1      44.224   2.772  12.435  0.00  0.00    +0.000 NA
ATOM     27  N   UNL     1      45.493   2.852  12.935  0.00  0.00    +0.000 N 
ATOM     28  C   UNL     1      46.257   3.992  13.024  0.00  0.00    +0.000 A 
ATOM     29  O   UNL     1      47.353   3.995  13.573  0.00  0.00    +0.000 OA
ATOM     30  C   UNL     1      45.644   5.163  12.443  0.00  0.00    +0.000 A 
ATOM     31  H   UNL     1      45.875   1.994  13.311  0.00  0.00    +0.000 HD
ENDBRANCH  18  21
ENDBRANCH   1  19
TORSDOF 6
ENDMDL
