MODEL 1
REMARK VINA RESULT:    -7.950      0.000      0.000
REMARK INTER + INTRA:         -13.288
REMARK INTER:                 -12.365
REMARK INTRA:                  -0.924
REMARK UNBOUND:                -0.924
REMARK  Name = 
REMARK  10 active torsions:
REMARK  status: ('A' for Active; 'I' for Inactive)
REMARK    1  A    between atoms: N_1  and  C_2
REMARK    2  A    between atoms: C_2  and  C_3
REMARK    3  A    between atoms: C_3  and  N_4
REMARK    4  A    between atoms: C_3  and  C_20
REMARK    5  A    between atoms: N_4  and  C_5
REMARK    6  A    between atoms: C_5  and  C_6
REMARK    7  A    between atoms: C_9  and  C_10
REMARK    8  A    between atoms: C_10  and  N_11
REMARK    9  A    between atoms: N_11  and  C_12
REMARK   10  A    between atoms: C_12  and  C_13
REMARK                            x       y       z     vdW  Elec       q    Type
REMARK                         _______ _______ _______ _____ _____    ______ ____
ROOT
ATOM      1  N   UNL     1      48.409   4.743  15.790  0.00  0.00    +0.000 NA
ATOM      2  H   UNL     1      49.358   4.486  15.526  0.00  0.00    +0.000 HD
ENDROOT
BRANCH   1   3
ATOM      3  C   UNL     1      48.410   5.210  17.189  0.00  0.00    +0.000 C 
BRANCH   3   4
ATOM      4  C   UNL     1      49.771   4.847  17.785  0.00  0.00    +0.000 A 
ATOM      5  C   UNL     1      50.602   5.731  18.463  0.00  0.00    +0.000 A 
ATOM      6  S   UNL     1      52.113   5.061  18.886  0.00  0.00    +0.000 S 
ATOM      7  C   UNL     1      51.723   3.574  18.164  0.00  0.00    +0.000 A 
ATOM      8  N   UNL     1      52.628   2.561  18.103  0.00  0.00    +0.000 NA
ATOM      9  C   UNL     1      52.200   1.501  17.502  0.00  0.00    +0.000 A 
ATOM     10  N   UNL     1      50.933   1.343  16.995  0.00  0.00    +0.000 N 
ATOM     11  C   UNL     1      49.965   2.323  17.077  0.00  0.00    +0.000 A 
ATOM     12  O   UNL     1      48.816   2.125  16.692  0.00  0.00    +0.000 OA
ATOM     13  C   UNL     1      50.429   3.564  17.672  0.00  0.00    +0.000 A 
ATOM     14  H   UNL     1      50.652   0.475  16.573  0.00  0.00    +0.000 HD
ENDBRANCH   3   4
BRANCH   3  15
ATOM     15  C   UNL     1      47.252   4.606  18.058  0.00  0.00    +0.000 C 
BRANCH  15  16
ATOM     16  N   UNL     1      46.513   3.501  17.432  0.00  0.00    +0.000 NA
ATOM     17  H   UNL     1      45.542   3.783  17.302  0.00  0.00    +0.000 HD
ATOM     18  H   UNL     1      46.497   2.698  18.068  0.00  0.00    +0.000 HD
ENDBRANCH  15  16
ENDBRANCH   3  15
ENDBRANCH   1   3
BRANCH   1  19
ATOM     19  C   UNL     1      47.862   5.689  14.815  0.00  0.00    +0.000 C 
BRANCH  19  20
ATOM     20  C   UNL     1      46.894   5.035  13.849  0.00  0.00    +0.000 A 
ATOM     21  C   UNL     1      46.808   3.651  13.747  0.00  0.00    +0.000 A 
ATOM     22  N   UNL     1      45.981   3.024  12.876  0.00  0.00    +0.000 NA
ATOM     23  C   UNL     1      45.232   3.839  12.083  0.00  0.00    +0.000 A 
ATOM     24  C   UNL     1      45.325   5.221  12.178  0.00  0.00    +0.000 A 
ATOM     25  N   UNL     1      46.151   5.842  13.048  0.00  0.00    +0.000 NA
BRANCH  23  26
ATOM     26  C   UNL     1      44.243   3.205  11.131  0.00  0.00    +0.000 C 
BRANCH  26  27
ATOM     27  N   UNL     1      44.871   2.519   9.991  0.00  0.00    +0.000 NA
ATOM     28  H   UNL     1      44.171   1.865   9.629  0.00  0.00    +0.000 HD
BRANCH  27  29
ATOM     29  C   UNL     1      45.250   3.447   8.920  0.00  0.00    +0.000 C 
BRANCH  29  30
ATOM     30  C   UNL     1      45.727   2.682   7.685  0.00  0.00    +0.000 C 
ATOM     31  C   UNL     1      46.794   3.404   6.873  0.00  0.00    +0.000 C 
ATOM     32  C   UNL     1      47.465   2.260   6.145  0.00  0.00    +0.000 C 
ATOM     33  N   UNL     1      47.568   1.205   7.158  0.00  0.00    +0.000 NA
ATOM     34  C   UNL     1      46.389   1.346   8.032  0.00  0.00    +0.000 C 
ATOM     35  H   UNL     1      48.403   1.381   7.720  0.00  0.00    +0.000 HD
ENDBRANCH  29  30
ENDBRANCH  27  29
ENDBRANCH  26  27
ENDBRANCH  23  26
ENDBRANCH  19  20
ENDBRANCH   1  19
TORSDOF 10
ENDMDL
MODEL 2
REMARK VINA RESULT:    -7.089      2.042      2.621
REMARK INTER + INTRA:         -11.951
REMARK INTER:                 -10.980
REMARK INTRA:                  -0.971
REMARK UNBOUND:                -0.924
REMARK  Name = 
REMARK  10 active torsions:
REMARK  status: ('A' for Active; 'I' for Inactive)
REMARK    1  A    between atoms: N_1  and  C_2
REMARK    2  A    between atoms: C_2  and  C_3
REMARK    3  A    between atoms: C_3  and  N_4
REMARK    4  A    between atoms: C_3  and  C_20
REMARK    5  A    between atoms: N_4  and  C_5
REMARK    6  A    between atoms: C_5  and  C_6
REMARK    7  A    between atoms: C_9  and  C_10
REMARK    8  A    between atoms: C_10  and  N_11
REMARK    9  A    between atoms: N_11  and  C_12
REMARK   10  A    between atoms: C_12  and  C_13
REMARK                            x       y       z     vdW  Elec       q    Type
REMARK                         _______ _______ _______ _____ _____    ______ ____
ROOT
ATOM      1  N   UNL     1      47.993   5.464  15.559  0.00  0.00    +0.000 NA
ATOM      2  H   UNL     1      47.577   6.349  15.276  0.00  0.00    +0.000 HD
ENDROOT
BRANCH   1   3
ATOM      3  C   UNL     1      48.282   5.510  17.004  0.00  0.00    +0.000 C 
BRANCH   3   4
ATOM      4  C   UNL     1      49.714   5.010  17.195  0.00  0.00    +0.000 A 
ATOM      5  C   UNL     1      50.065   3.835  17.849  0.00  0.00    +0.000 A 
ATOM      6  S   UNL     1      51.749   3.624  18.019  0.00  0.00    +0.000 S 
ATOM      7  C   UNL     1      52.074   5.101  17.245  0.00  0.00    +0.000 A 
ATOM      8  N   UNL     1      53.344   5.571  17.126  0.00  0.00    +0.000 NA
ATOM      9  C   UNL     1      53.433   6.718  16.539  0.00  0.00    +0.000 A 
ATOM     10  N   UNL     1      52.373   7.418  16.018  0.00  0.00    +0.000 N 
ATOM     11  C   UNL     1      51.073   6.960  16.071  0.00  0.00    +0.000 A 
ATOM     12  O   UNL     1      50.155   7.565  15.522  0.00  0.00    +0.000 OA
ATOM     13  C   UNL     1      50.915   5.712  16.796  0.00  0.00    +0.000 A 
ATOM     14  H   UNL     1      52.518   8.290  15.537  0.00  0.00    +0.000 HD
ENDBRANCH   3   4
BRANCH   3  15
ATOM     15  C   UNL     1      47.287   4.666  17.875  0.00  0.00    +0.000 C 
BRANCH  15  16
ATOM     16  N   UNL     1      46.431   5.448  18.779  0.00  0.00    +0.000 NA
ATOM     17  H   UNL     1      46.022   6.224  18.259  0.00  0.00    +0.000 HD
ATOM     18  H   UNL     1      47.007   5.868  19.515  0.00  0.00    +0.000 HD
ENDBRANCH  15  16
ENDBRANCH   3  15
ENDBRANCH   1   3
BRANCH   1  19
ATOM     19  C   UNL     1      47.141   4.354  15.126  0.00  0.00    +0.000 C 
BRANCH  19  20
ATOM     20  C   UNL     1      46.551   4.577  13.748  0.00  0.00    +0.000 A 
ATOM     21  C   UNL     1      46.859   5.716  13.012  0.00  0.00    +0.000 A 
ATOM     22  N   UNL     1      46.330   5.973  11.790  0.00  0.00    +0.000 NA
ATOM     23  C   UNL     1      45.456   5.041  11.318  0.00  0.00    +0.000 A 
ATOM     24  C   UNL     1      45.140   3.909  12.058  0.00  0.00    +0.000 A 
ATOM     25  N   UNL     1      45.671   3.657  13.275  0.00  0.00    +0.000 NA
BRANCH  23  26
ATOM     26  C   UNL     1      44.876   5.235   9.935  0.00  0.00    +0.000 C 
BRANCH  26  27
ATOM     27  N   UNL     1      45.652   4.582   8.868  0.00  0.00    +0.000 NA
ATOM     28  H   UNL     1      46.570   4.373   9.268  0.00  0.00    +0.000 HD
BRANCH  27  29
ATOM     29  C   UNL     1      45.035   3.330   8.415  0.00  0.00    +0.000 C 
BRANCH  29  30
ATOM     30  C   UNL     1      45.879   2.678   7.319  0.00  0.00    +0.000 C 
ATOM     31  C   UNL     1      47.114   3.474   6.919  0.00  0.00    +0.000 C 
ATOM     32  C   UNL     1      48.005   2.402   6.334  0.00  0.00    +0.000 C 
ATOM     33  N   UNL     1      47.840   1.264   7.245  0.00  0.00    +0.000 NA
ATOM     34  C   UNL     1      46.452   1.321   7.740  0.00  0.00    +0.000 C 
ATOM     35  H   UNL     1      48.467   1.398   8.041  0.00  0.00    +0.000 HD
ENDBRANCH  29  30
ENDBRANCH  27  29
ENDBRANCH  26  27
ENDBRANCH  23  26
ENDBRANCH  19  20
ENDBRANCH   1  19
TORSDOF 10
ENDMDL
MODEL 3
REMARK VINA RESULT:    -7.086      2.195      3.099
REMARK INTER + INTRA:         -11.945
REMARK INTER:                 -10.809
REMARK INTRA:                  -1.136
REMARK UNBOUND:                -0.924
REMARK  Name = 
REMARK  10 active torsions:
REMARK  status: ('A' for Active; 'I' for Inactive)
REMARK    1  A    between atoms: N_1  and  C_2
REMARK    2  A    between atoms: C_2  and  C_3
REMARK    3  A    between atoms: C_3  and  N_4
REMARK    4  A    between atoms: C_3  and  C_20
REMARK    5  A    between atoms: N_4  and  C_5
REMARK    6  A    between atoms: C_5  and  C_6
REMARK    7  A    between atoms: C_9  and  C_10
REMARK    8  A    between atoms: C_10  and  N_11
REMARK    9  A    between atoms: N_11  and  C_12
REMARK   10  A    between atoms: C_12  and  C_13
REMARK                            x       y       z     vdW  Elec       q    Type
REMARK                         _______ _______ _______ _____ _____    ______ ____
ROOT
ATOM      1  N   UNL     1      47.800   6.854  14.469  0.00  0.00    +0.000 NA
ATOM      2  H   UNL     1      47.335   6.002  14.775  0.00  0.00    +0.000 HD
ENDROOT
BRANCH   1   3
ATOM      3  C   UNL     1      49.175   6.868  15.004  0.00  0.00    +0.000 C 
BRANCH   3   4
ATOM      4  C   UNL     1      49.066   6.906  16.528  0.00  0.00    +0.000 A 
ATOM      5  C   UNL     1      49.276   8.035  17.312  0.00  0.00    +0.000 A 
ATOM      6  S   UNL     1      49.217   7.724  18.988  0.00  0.00    +0.000 S 
ATOM      7  C   UNL     1      48.928   6.069  18.733  0.00  0.00    +0.000 A 
ATOM      8  N   UNL     1      48.851   5.198  19.773  0.00  0.00    +0.000 NA
ATOM      9  C   UNL     1      48.656   3.970  19.424  0.00  0.00    +0.000 A 
ATOM     10  N   UNL     1      48.484   3.538  18.132  0.00  0.00    +0.000 N 
ATOM     11  C   UNL     1      48.504   4.391  17.048  0.00  0.00    +0.000 A 
ATOM     12  O   UNL     1      48.263   3.992  15.911  0.00  0.00    +0.000 OA
ATOM     13  C   UNL     1      48.805   5.771  17.386  0.00  0.00    +0.000 A 
ATOM     14  H   UNL     1      48.295   2.570  17.933  0.00  0.00    +0.000 HD
ENDBRANCH   3   4
BRANCH   3  15
ATOM     15  C   UNL     1      50.042   8.068  14.487  0.00  0.00    +0.000 C 
BRANCH  15  16
ATOM     16  N   UNL     1      51.467   7.767  14.287  0.00  0.00    +0.000 NA
ATOM     17  H   UNL     1      52.024   8.417  14.840  0.00  0.00    +0.000 HD
ATOM     18  H   UNL     1      51.717   7.935  13.308  0.00  0.00    +0.000 HD
ENDBRANCH  15  16
ENDBRANCH   3  15
ENDBRANCH   1   3
BRANCH   1  19
ATOM     19  C   UNL     1      47.694   6.981  13.014  0.00  0.00    +0.000 C 
BRANCH  19  20
ATOM     20  C   UNL     1      46.693   6.012  12.417  0.00  0.00    +0.000 A 
ATOM     21  C   UNL     1      45.993   6.329  11.258  0.00  0.00    +0.000 A 
ATOM     22  N   UNL     1      45.066   5.508  10.706  0.00  0.00    +0.000 NA
ATOM     23  C   UNL     1      44.845   4.339  11.367  0.00  0.00    +0.000 A 
ATOM     24  C   UNL     1      45.537   4.027  12.531  0.00  0.00    +0.000 A 
ATOM     25  N   UNL     1      46.461   4.848  13.076  0.00  0.00    +0.000 NA
BRANCH  23  26
ATOM     26  C   UNL     1      43.868   3.350  10.773  0.00  0.00    +0.000 C 
BRANCH  26  27
ATOM     27  N   UNL     1      44.495   2.107  10.296  0.00  0.00    +0.000 NA
ATOM     28  H   UNL     1      43.886   1.343  10.600  0.00  0.00    +0.000 HD
BRANCH  27  29
ATOM     29  C   UNL     1      44.614   2.066   8.835  0.00  0.00    +0.000 C 
BRANCH  29  30
ATOM     30  C   UNL     1      46.040   2.403   8.398  0.00  0.00    +0.000 C 
ATOM     31  C   UNL     1      46.752   1.279   7.657  0.00  0.00    +0.000 C 
ATOM     32  C   UNL     1      47.800   2.034   6.870  0.00  0.00    +0.000 C 
ATOM     33  N   UNL     1      47.092   3.221   6.379  0.00  0.00    +0.000 NA
ATOM     34  C   UNL     1      46.097   3.571   7.409  0.00  0.00    +0.000 C 
ATOM     35  H   UNL     1      46.590   2.963   5.527  0.00  0.00    +0.000 HD
ENDBRANCH  29  30
ENDBRANCH  27  29
ENDBRANCH  26  27
ENDBRANCH  23  26
ENDBRANCH  19  20
ENDBRANCH   1  19
TORSDOF 10
ENDMDL
MODEL 4
REMARK VINA RESULT:    -6.549      2.135      2.763
REMARK INTER + INTRA:         -11.110
REMARK INTER:                 -10.364
REMARK INTRA:                  -0.746
REMARK UNBOUND:                -0.924
REMARK  Name = 
REMARK  10 active torsions:
REMARK  status: ('A' for Active; 'I' for Inactive)
REMARK    1  A    between atoms: N_1  and  C_2
REMARK    2  A    between atoms: C_2  and  C_3
REMARK    3  A    between atoms: C_3  and  N_4
REMARK    4  A    between atoms: C_3  and  C_20
REMARK    5  A    between atoms: N_4  and  C_5
REMARK    6  A    between atoms: C_5  and  C_6
REMARK    7  A    between atoms: C_9  and  C_10
REMARK    8  A    between atoms: C_10  and  N_11
REMARK    9  A    between atoms: N_11  and  C_12
REMARK   10  A    between atoms: C_12  and  C_13
REMARK                            x       y       z     vdW  Elec       q    Type
REMARK                         _______ _______ _______ _____ _____    ______ ____
ROOT
ATOM      1  N   UNL     1      47.919   6.331  15.013  0.00  0.00    +0.000 NA
ATOM      2  H   UNL     1      47.816   5.338  15.210  0.00  0.00    +0.000 HD
ENDROOT
BRANCH   1   3
ATOM      3  C   UNL     1      48.985   6.883  15.870  0.00  0.00    +0.000 C 
BRANCH   3   4
ATOM      4  C   UNL     1      49.406   5.775  16.835  0.00  0.00    +0.000 A 
ATOM      5  C   UNL     1      48.530   4.929  17.506  0.00  0.00    +0.000 A 
ATOM      6  S   UNL     1      49.299   3.890  18.618  0.00  0.00    +0.000 S 
ATOM      7  C   UNL     1      50.827   4.541  18.263  0.00  0.00    +0.000 A 
ATOM      8  N   UNL     1      51.938   4.141  18.936  0.00  0.00    +0.000 NA
ATOM      9  C   UNL     1      53.023   4.743  18.576  0.00  0.00    +0.000 A 
ATOM     10  N   UNL     1      53.107   5.676  17.573  0.00  0.00    +0.000 N 
ATOM     11  C   UNL     1      52.017   6.078  16.828  0.00  0.00    +0.000 A 
ATOM     12  O   UNL     1      52.135   6.851  15.881  0.00  0.00    +0.000 OA
ATOM     13  C   UNL     1      50.761   5.488  17.255  0.00  0.00    +0.000 A 
ATOM     14  H   UNL     1      53.993   6.078  17.316  0.00  0.00    +0.000 HD
ENDBRANCH   3   4
BRANCH   3  15
ATOM     15  C   UNL     1      48.558   8.168  16.662  0.00  0.00    +0.000 C 
BRANCH  15  16
ATOM     16  N   UNL     1      47.700   9.102  15.919  0.00  0.00    +0.000 NA
ATOM     17  H   UNL     1      46.971   9.448  16.541  0.00  0.00    +0.000 HD
ATOM     18  H   UNL     1      47.222   8.600  15.166  0.00  0.00    +0.000 HD
ENDBRANCH  15  16
ENDBRANCH   3  15
ENDBRANCH   1   3
BRANCH   1  19
ATOM     19  C   UNL     1      48.105   6.533  13.574  0.00  0.00    +0.000 C 
BRANCH  19  20
ATOM     20  C   UNL     1      46.927   6.039  12.759  0.00  0.00    +0.000 A 
ATOM     21  C   UNL     1      46.621   6.604  11.526  0.00  0.00    +0.000 A 
ATOM     22  N   UNL     1      45.559   6.216  10.778  0.00  0.00    +0.000 NA
ATOM     23  C   UNL     1      44.788   5.231  11.315  0.00  0.00    +0.000 A 
ATOM     24  C   UNL     1      45.087   4.674  12.552  0.00  0.00    +0.000 A 
ATOM     25  N   UNL     1      46.147   5.063  13.293  0.00  0.00    +0.000 NA
BRANCH  23  26
ATOM     26  C   UNL     1      43.623   4.708  10.506  0.00  0.00    +0.000 C 
BRANCH  26  27
ATOM     27  N   UNL     1      44.000   4.205   9.175  0.00  0.00    +0.000 NA
ATOM     28  H   UNL     1      44.664   4.882   8.790  0.00  0.00    +0.000 HD
BRANCH  27  29
ATOM     29  C   UNL     1      44.647   2.890   9.238  0.00  0.00    +0.000 C 
BRANCH  29  30
ATOM     30  C   UNL     1      45.374   2.581   7.929  0.00  0.00    +0.000 C 
ATOM     31  C   UNL     1      46.300   3.690   7.447  0.00  0.00    +0.000 C 
ATOM     32  C   UNL     1      47.267   2.934   6.564  0.00  0.00    +0.000 C 
ATOM     33  N   UNL     1      47.539   1.700   7.309  0.00  0.00    +0.000 NA
ATOM     34  C   UNL     1      46.301   1.367   8.037  0.00  0.00    +0.000 C 
ATOM     35  H   UNL     1      48.269   1.897   7.997  0.00  0.00    +0.000 HD
ENDBRANCH  29  30
ENDBRANCH  27  29
ENDBRANCH  26  27
ENDBRANCH  23  26
ENDBRANCH  19  20
ENDBRANCH   1  19
TORSDOF 10
ENDMDL
MODEL 5
REMARK VINA RESULT:    -6.533      3.436      8.848
REMARK INTER + INTRA:         -11.085
REMARK INTER:                  -9.987
REMARK INTRA:                  -1.098
REMARK UNBOUND:                -0.924
REMARK  Name = 
REMARK  10 active torsions:
REMARK  status: ('A' for Active; 'I' for Inactive)
REMARK    1  A    between atoms: N_1  and  C_2
REMARK    2  A    between atoms: C_2  and  C_3
REMARK    3  A    between atoms: C_3  and  N_4
REMARK    4  A    between atoms: C_3  and  C_20
REMARK    5  A    between atoms: N_4  and  C_5
REMARK    6  A    between atoms: C_5  and  C_6
REMARK    7  A    between atoms: C_9  and  C_10
REMARK    8  A    between atoms: C_10  and  N_11
REMARK    9  A    between atoms: N_11  and  C_12
REMARK   10  A    between atoms: C_12  and  C_13
REMARK                            x       y       z     vdW  Elec       q    Type
REMARK                         _______ _______ _______ _____ _____    ______ ____
ROOT
ATOM      1  N   UNL     1      46.802   6.256  11.906  0.00  0.00    +0.000 NA
ATOM      2  H   UNL     1      47.166   5.491  12.471  0.00  0.00    +0.000 HD
ENDROOT
BRANCH   1   3
ATOM      3  C   UNL     1      45.356   6.394  12.161  0.00  0.00    +0.000 C 
BRANCH   3   4
ATOM      4  C   UNL     1      44.696   5.078  11.749  0.00  0.00    +0.000 A 
ATOM      5  C   UNL     1      43.875   4.311  12.567  0.00  0.00    +0.000 A 
ATOM      6  S   UNL     1      43.405   2.828  11.867  0.00  0.00    +0.000 S 
ATOM      7  C   UNL     1      44.295   3.144  10.455  0.00  0.00    +0.000 A 
ATOM      8  N   UNL     1      44.385   2.225   9.457  0.00  0.00    +0.000 NA
ATOM      9  C   UNL     1      45.117   2.594   8.459  0.00  0.00    +0.000 A 
ATOM     10  N   UNL     1      45.731   3.817   8.345  0.00  0.00    +0.000 N 
ATOM     11  C   UNL     1      45.628   4.800   9.307  0.00  0.00    +0.000 A 
ATOM     12  O   UNL     1      46.116   5.915   9.142  0.00  0.00    +0.000 OA
ATOM     13  C   UNL     1      44.883   4.397  10.487  0.00  0.00    +0.000 A 
ATOM     14  H   UNL     1      46.255   4.055   7.520  0.00  0.00    +0.000 HD
ENDBRANCH   3   4
BRANCH   3  15
ATOM     15  C   UNL     1      44.693   7.600  11.407  0.00  0.00    +0.000 C 
BRANCH  15  16
ATOM     16  N   UNL     1      43.260   7.442  11.117  0.00  0.00    +0.000 NA
ATOM     17  H   UNL     1      43.136   7.340  10.110  0.00  0.00    +0.000 HD
ATOM     18  H   UNL     1      42.762   8.296  11.383  0.00  0.00    +0.000 HD
ENDBRANCH  15  16
ENDBRANCH   3  15
ENDBRANCH   1   3
BRANCH   1  19
ATOM     19  C   UNL     1      47.596   7.464  12.137  0.00  0.00    +0.000 C 
BRANCH  19  20
ATOM     20  C   UNL     1      48.080   7.578  13.569  0.00  0.00    +0.000 A 
ATOM     21  C   UNL     1      47.792   8.702  14.336  0.00  0.00    +0.000 A 
ATOM     22  N   UNL     1      48.230   8.860  15.609  0.00  0.00    +0.000 NA
ATOM     23  C   UNL     1      48.991   7.844  16.102  0.00  0.00    +0.000 A 
ATOM     24  C   UNL     1      49.286   6.726  15.333  0.00  0.00    +0.000 A 
ATOM     25  N   UNL     1      48.847   6.572  14.065  0.00  0.00    +0.000 NA
BRANCH  23  26
ATOM     26  C   UNL     1      49.461   7.929  17.537  0.00  0.00    +0.000 C 
BRANCH  26  27
ATOM     27  N   UNL     1      49.862   6.634  18.109  0.00  0.00    +0.000 NA
ATOM     28  H   UNL     1      50.704   6.813  18.661  0.00  0.00    +0.000 HD
BRANCH  27  29
ATOM     29  C   UNL     1      48.831   6.067  18.986  0.00  0.00    +0.000 C 
BRANCH  29  30
ATOM     30  C   UNL     1      48.495   4.634  18.570  0.00  0.00    +0.000 C 
ATOM     31  C   UNL     1      47.292   4.515  17.644  0.00  0.00    +0.000 C 
ATOM     32  C   UNL     1      47.552   3.192  16.958  0.00  0.00    +0.000 C 
ATOM     33  N   UNL     1      48.991   3.212  16.678  0.00  0.00    +0.000 NA
ATOM     34  C   UNL     1      49.622   3.967  17.776  0.00  0.00    +0.000 C 
ATOM     35  H   UNL     1      49.141   3.729  15.810  0.00  0.00    +0.000 HD
ENDBRANCH  29  30
ENDBRANCH  27  29
ENDBRANCH  26  27
ENDBRANCH  23  26
ENDBRANCH  19  20
ENDBRANCH   1  19
TORSDOF 10
ENDMDL
MODEL 6
REMARK VINA RESULT:    -6.493      3.641      8.614
REMARK INTER + INTRA:         -11.023
REMARK INTER:                 -10.020
REMARK INTRA:                  -1.002
REMARK UNBOUND:                -0.924
REMARK  Name = 
REMARK  10 active torsions:
REMARK  status: ('A' for Active; 'I' for Inactive)
REMARK    1  A    between atoms: N_1  and  C_2
REMARK    2  A    between atoms: C_2  and  C_3
REMARK    3  A    between atoms: C_3  and  N_4
REMARK    4  A    between atoms: C_3  and  C_20
REMARK    5  A    between atoms: N_4  and  C_5
REMARK    6  A    between atoms: C_5  and  C_6
REMARK    7  A    between atoms: C_9  and  C_10
REMARK    8  A    between atoms: C_10  and  N_11
REMARK    9  A    between atoms: N_11  and  C_12
REMARK   10  A    between atoms: C_12  and  C_13
REMARK                            x       y       z     vdW  Elec       q    Type
REMARK                         _______ _______ _______ _____ _____    ______ ____
ROOT
ATOM      1  N   UNL     1      47.762   7.140  11.525  0.00  0.00    +0.000 NA
ATOM      2  H   UNL     1      48.319   6.309  11.716  0.00  0.00    +0.000 HD
ENDROOT
BRANCH   1   3
ATOM      3  C   UNL     1      46.367   6.886  11.927  0.00  0.00    +0.000 C 
BRANCH   3   4
ATOM      4  C   UNL     1      45.840   5.757  11.041  0.00  0.00    +0.000 A 
ATOM      5  C   UNL     1      45.963   5.711   9.656  0.00  0.00    +0.000 A 
ATOM      6  S   UNL     1      45.151   4.392   8.942  0.00  0.00    +0.000 S 
ATOM      7  C   UNL     1      44.589   3.844  10.448  0.00  0.00    +0.000 A 
ATOM      8  N   UNL     1      43.754   2.775  10.543  0.00  0.00    +0.000 NA
ATOM      9  C   UNL     1      43.388   2.492  11.749  0.00  0.00    +0.000 A 
ATOM     10  N   UNL     1      43.817   3.150  12.875  0.00  0.00    +0.000 N 
ATOM     11  C   UNL     1      44.703   4.208  12.834  0.00  0.00    +0.000 A 
ATOM     12  O   UNL     1      45.136   4.724  13.860  0.00  0.00    +0.000 OA
ATOM     13  C   UNL     1      45.075   4.615  11.490  0.00  0.00    +0.000 A 
ATOM     14  H   UNL     1      43.524   2.852  13.789  0.00  0.00    +0.000 HD
ENDBRANCH   3   4
BRANCH   3  15
ATOM     15  C   UNL     1      45.438   8.146  11.820  0.00  0.00    +0.000 C 
BRANCH  15  16
ATOM     16  N   UNL     1      44.044   7.863  11.450  0.00  0.00    +0.000 NA
ATOM     17  H   UNL     1      43.615   7.296  12.181  0.00  0.00    +0.000 HD
ATOM     18  H   UNL     1      44.025   7.295  10.598  0.00  0.00    +0.000 HD
ENDBRANCH  15  16
ENDBRANCH   3  15
ENDBRANCH   1   3
BRANCH   1  19
ATOM     19  C   UNL     1      48.389   8.309  12.146  0.00  0.00    +0.000 C 
BRANCH  19  20
ATOM     20  C   UNL     1      48.630   8.121  13.630  0.00  0.00    +0.000 A 
ATOM     21  C   UNL     1      48.116   9.019  14.559  0.00  0.00    +0.000 A 
ATOM     22  N   UNL     1      48.332   8.909  15.893  0.00  0.00    +0.000 NA
ATOM     23  C   UNL     1      49.103   7.856  16.280  0.00  0.00    +0.000 A 
ATOM     24  C   UNL     1      49.625   6.964  15.351  0.00  0.00    +0.000 A 
ATOM     25  N   UNL     1      49.406   7.078  14.023  0.00  0.00    +0.000 NA
BRANCH  23  26
ATOM     26  C   UNL     1      49.333   7.638  17.758  0.00  0.00    +0.000 C 
BRANCH  26  27
ATOM     27  N   UNL     1      50.203   6.490  18.063  0.00  0.00    +0.000 NA
ATOM     28  H   UNL     1      50.920   6.836  18.705  0.00  0.00    +0.000 HD
BRANCH  27  29
ATOM     29  C   UNL     1      49.474   5.394  18.711  0.00  0.00    +0.000 C 
BRANCH  29  30
ATOM     30  C   UNL     1      48.762   4.528  17.670  0.00  0.00    +0.000 C 
ATOM     31  C   UNL     1      49.083   3.042  17.764  0.00  0.00    +0.000 C 
ATOM     32  C   UNL     1      47.878   2.417  17.097  0.00  0.00    +0.000 C 
ATOM     33  N   UNL     1      46.744   3.196  17.605  0.00  0.00    +0.000 NA
ATOM     34  C   UNL     1      47.237   4.571  17.807  0.00  0.00    +0.000 C 
ATOM     35  H   UNL     1      46.479   2.818  18.517  0.00  0.00    +0.000 HD
ENDBRANCH  29  30
ENDBRANCH  27  29
ENDBRANCH  26  27
ENDBRANCH  23  26
ENDBRANCH  19  20
ENDBRANCH   1  19
TORSDOF 10
ENDMDL
MODEL 7
REMARK VINA RESULT:    -6.275      2.170      2.751
REMARK INTER + INTRA:         -10.685
REMARK INTER:                  -9.716
REMARK INTRA:                  -0.969
REMARK UNBOUND:                -0.924
REMARK  Name = 
REMARK  10 active torsions:
REMARK  status: ('A' for Active; 'I' for Inactive)
REMARK    1  A    between atoms: N_1  and  C_2
REMARK    2  A    between atoms: C_2  and  C_3
REMARK    3  A    between atoms: C_3  and  N_4
REMARK    4  A    between atoms: C_3  and  C_20
REMARK    5  A    between atoms: N_4  and  C_5
REMARK    6  A    between atoms: C_5  and  C_6
REMARK    7  A    between atoms: C_9  and  C_10
REMARK    8  A    between atoms: C_10  and  N_11
REMARK    9  A    between atoms: N_11  and  C_12
REMARK   10  A    between atoms: C_12  and  C_13
REMARK                            x       y       z     vdW  Elec       q    Type
REMARK                         _______ _______ _______ _____ _____    ______ ____
ROOT
ATOM      1  N   UNL     1      48.961   6.716  15.167  0.00  0.00    +0.000 NA
ATOM      2  H   UNL     1      49.411   5.808  15.268  0.00  0.00    +0.000 HD
ENDROOT
BRANCH   1   3
ATOM      3  C   UNL     1      49.898   7.767  15.604  0.00  0.00    +0.000 C 
BRANCH   3   4
ATOM      4  C   UNL     1      51.171   7.067  16.080  0.00  0.00    +0.000 A 
ATOM      5  C   UNL     1      52.458   7.389  15.661  0.00  0.00    +0.000 A 
ATOM      6  S   UNL     1      53.656   6.336  16.266  0.00  0.00    +0.000 S 
ATOM      7  C   UNL     1      52.504   5.401  17.093  0.00  0.00    +0.000 A 
ATOM      8  N   UNL     1      52.860   4.275  17.766  0.00  0.00    +0.000 NA
ATOM      9  C   UNL     1      51.874   3.654  18.322  0.00  0.00    +0.000 A 
ATOM     10  N   UNL     1      50.569   4.080  18.307  0.00  0.00    +0.000 N 
ATOM     11  C   UNL     1      50.166   5.241  17.680  0.00  0.00    +0.000 A 
ATOM     12  O   UNL     1      49.008   5.643  17.754  0.00  0.00    +0.000 OA
ATOM     13  C   UNL     1      51.229   5.929  16.970  0.00  0.00    +0.000 A 
ATOM     14  H   UNL     1      49.854   3.568  18.796  0.00  0.00    +0.000 HD
ENDBRANCH   3   4
BRANCH   3  15
ATOM     15  C   UNL     1      49.327   8.693  16.734  0.00  0.00    +0.000 C 
BRANCH  15  16
ATOM     16  N   UNL     1      47.915   8.464  17.074  0.00  0.00    +0.000 NA
ATOM     17  H   UNL     1      47.807   7.509  17.414  0.00  0.00    +0.000 HD
ATOM     18  H   UNL     1      47.344   8.534  16.227  0.00  0.00    +0.000 HD
ENDBRANCH  15  16
ENDBRANCH   3  15
ENDBRANCH   1   3
BRANCH   1  19
ATOM     19  C   UNL     1      48.447   6.864  13.803  0.00  0.00    +0.000 C 
BRANCH  19  20
ATOM     20  C   UNL     1      47.180   6.066  13.569  0.00  0.00    +0.000 A 
ATOM     21  C   UNL     1      47.101   4.725  13.926  0.00  0.00    +0.000 A 
ATOM     22  N   UNL     1      46.001   3.964  13.707  0.00  0.00    +0.000 NA
ATOM     23  C   UNL     1      44.960   4.595  13.097  0.00  0.00    +0.000 A 
ATOM     24  C   UNL     1      45.042   5.932  12.731  0.00  0.00    +0.000 A 
ATOM     25  N   UNL     1      46.141   6.686  12.952  0.00  0.00    +0.000 NA
BRANCH  23  26
ATOM     26  C   UNL     1      43.679   3.822  12.878  0.00  0.00    +0.000 C 
BRANCH  26  27
ATOM     27  N   UNL     1      43.847   2.612  12.056  0.00  0.00    +0.000 NA
ATOM     28  H   UNL     1      43.148   1.942  12.386  0.00  0.00    +0.000 HD
BRANCH  27  29
ATOM     29  C   UNL     1      43.622   2.870  10.630  0.00  0.00    +0.000 C 
BRANCH  29  30
ATOM     30  C   UNL     1      44.953   2.990   9.885  0.00  0.00    +0.000 C 
ATOM     31  C   UNL     1      45.181   1.914   8.831  0.00  0.00    +0.000 C 
ATOM     32  C   UNL     1      46.180   2.580   7.911  0.00  0.00    +0.000 C 
ATOM     33  N   UNL     1      45.695   3.960   7.797  0.00  0.00    +0.000 NA
ATOM     34  C   UNL     1      45.074   4.294   9.092  0.00  0.00    +0.000 C 
ATOM     35  H   UNL     1      44.967   3.984   7.080  0.00  0.00    +0.000 HD
ENDBRANCH  29  30
ENDBRANCH  27  29
ENDBRANCH  26  27
ENDBRANCH  23  26
ENDBRANCH  19  20
ENDBRANCH   1  19
TORSDOF 10
ENDMDL
MODEL 8
REMARK VINA RESULT:    -6.231      4.529      5.654
REMARK INTER + INTRA:         -10.615
REMARK INTER:                  -9.909
REMARK INTRA:                  -0.706
REMARK UNBOUND:                -0.924
REMARK  Name = 
REMARK  10 active torsions:
REMARK  status: ('A' for Active; 'I' for Inactive)
REMARK    1  A    between atoms: N_1  and  C_2
REMARK    2  A    between atoms: C_2  and  C_3
REMARK    3  A    between atoms: C_3  and  N_4
REMARK    4  A    between atoms: C_3  and  C_20
REMARK    5  A    between atoms: N_4  and  C_5
REMARK    6  A    between atoms: C_5  and  C_6
REMARK    7  A    between atoms: C_9  and  C_10
REMARK    8  A    between atoms: C_10  and  N_11
REMARK    9  A    between atoms: N_11  and  C_12
REMARK   10  A    between atoms: C_12  and  C_13
REMARK                            x       y       z     vdW  Elec       q    Type
REMARK                         _______ _______ _______ _____ _____    ______ ____
ROOT
ATOM      1  N   UNL     1      46.425   8.302  13.623  0.00  0.00    +0.000 NA
ATOM      2  H   UNL     1      46.700   8.906  14.394  0.00  0.00    +0.000 HD
ENDROOT
BRANCH   1   3
ATOM      3  C   UNL     1      46.842   8.925  12.353  0.00  0.00    +0.000 C 
BRANCH   3   4
ATOM      4  C   UNL     1      48.162   9.649  12.617  0.00  0.00    +0.000 A 
ATOM      5  C   UNL     1      48.273  10.935  13.133  0.00  0.00    +0.000 A 
ATOM      6  S   UNL     1      49.877  11.516  13.182  0.00  0.00    +0.000 S 
ATOM      7  C   UNL     1      50.481  10.082  12.499  0.00  0.00    +0.000 A 
ATOM      8  N   UNL     1      51.799   9.947  12.195  0.00  0.00    +0.000 NA
ATOM      9  C   UNL     1      52.106   8.813  11.657  0.00  0.00    +0.000 A 
ATOM     10  N   UNL     1      51.225   7.784  11.437  0.00  0.00    +0.000 N 
ATOM     11  C   UNL     1      49.888   7.855  11.773  0.00  0.00    +0.000 A 
ATOM     12  O   UNL     1      49.140   6.890  11.644  0.00  0.00    +0.000 OA
ATOM     13  C   UNL     1      49.481   9.144  12.305  0.00  0.00    +0.000 A 
ATOM     14  H   UNL     1      51.539   6.910  11.049  0.00  0.00    +0.000 HD
ENDBRANCH   3   4
BRANCH   3  15
ATOM     15  C   UNL     1      45.782   9.917  11.757  0.00  0.00    +0.000 C 
BRANCH  15  16
ATOM     16  N   UNL     1      44.524  10.012  12.511  0.00  0.00    +0.000 NA
ATOM     17  H   UNL     1      44.282  10.995  12.628  0.00  0.00    +0.000 HD
ATOM     18  H   UNL     1      44.662   9.635  13.453  0.00  0.00    +0.000 HD
ENDBRANCH  15  16
ENDBRANCH   3  15
ENDBRANCH   1   3
BRANCH   1  19
ATOM     19  C   UNL     1      46.931   6.947  13.850  0.00  0.00    +0.000 C 
BRANCH  19  20
ATOM     20  C   UNL     1      46.026   5.881  13.266  0.00  0.00    +0.000 A 
ATOM     21  C   UNL     1      44.721   6.178  12.888  0.00  0.00    +0.000 A 
ATOM     22  N   UNL     1      43.866   5.251  12.391  0.00  0.00    +0.000 NA
ATOM     23  C   UNL     1      44.360   3.986  12.291  0.00  0.00    +0.000 A 
ATOM     24  C   UNL     1      45.660   3.687  12.678  0.00  0.00    +0.000 A 
ATOM     25  N   UNL     1      46.509   4.615  13.172  0.00  0.00    +0.000 NA
BRANCH  23  26
ATOM     26  C   UNL     1      43.480   2.916  11.687  0.00  0.00    +0.000 C 
BRANCH  26  27
ATOM     27  N   UNL     1      43.962   2.409  10.392  0.00  0.00    +0.000 NA
ATOM     28  H   UNL     1      43.162   1.948   9.949  0.00  0.00    +0.000 HD
BRANCH  27  29
ATOM     29  C   UNL     1      44.437   3.482   9.514  0.00  0.00    +0.000 C 
BRANCH  29  30
ATOM     30  C   UNL     1      45.028   2.906   8.226  0.00  0.00    +0.000 C 
ATOM     31  C   UNL     1      46.150   3.741   7.622  0.00  0.00    +0.000 C 
ATOM     32  C   UNL     1      46.897   2.717   6.797  0.00  0.00    +0.000 C 
ATOM     33  N   UNL     1      46.930   1.526   7.653  0.00  0.00    +0.000 NA
ATOM     34  C   UNL     1      45.679   1.535   8.433  0.00  0.00    +0.000 C 
ATOM     35  H   UNL     1      47.711   1.621   8.304  0.00  0.00    +0.000 HD
ENDBRANCH  29  30
ENDBRANCH  27  29
ENDBRANCH  26  27
ENDBRANCH  23  26
ENDBRANCH  19  20
ENDBRANCH   1  19
TORSDOF 10
ENDMDL
MODEL 9
REMARK VINA RESULT:    -6.226      3.051      4.382
REMARK INTER + INTRA:         -10.608
REMARK INTER:                  -9.155
REMARK INTRA:                  -1.452
REMARK UNBOUND:                -0.924
REMARK  Name = 
REMARK  10 active torsions:
REMARK  status: ('A' for Active; 'I' for Inactive)
REMARK    1  A    between atoms: N_1  and  C_2
REMARK    2  A    between atoms: C_2  and  C_3
REMARK    3  A    between atoms: C_3  and  N_4
REMARK    4  A    between atoms: C_3  and  C_20
REMARK    5  A    between atoms: N_4  and  C_5
REMARK    6  A    between atoms: C_5  and  C_6
REMARK    7  A    between atoms: C_9  and  C_10
REMARK    8  A    between atoms: C_10  and  N_11
REMARK    9  A    between atoms: N_11  and  C_12
REMARK   10  A    between atoms: C_12  and  C_13
REMARK                            x       y       z     vdW  Elec       q    Type
REMARK                         _______ _______ _______ _____ _____    ______ ____
ROOT
ATOM      1  N   UNL     1      48.545   7.299  18.586  0.00  0.00    +0.000 NA
ATOM      2  H   UNL     1      47.652   7.191  18.110  0.00  0.00    +0.000 HD
ENDROOT
BRANCH   1   3
ATOM      3  C   UNL     1      48.894   6.030  19.249  0.00  0.00    +0.000 C 
BRANCH   3   4
ATOM      4  C   UNL     1      48.687   4.913  18.226  0.00  0.00    +0.000 A 
ATOM      5  C   UNL     1      47.490   4.652  17.567  0.00  0.00    +0.000 A 
ATOM      6  S   UNL     1      47.539   3.255  16.590  0.00  0.00    +0.000 S 
ATOM      7  C   UNL     1      49.150   2.934  17.024  0.00  0.00    +0.000 A 
ATOM      8  N   UNL     1      49.788   1.815  16.589  0.00  0.00    +0.000 NA
ATOM      9  C   UNL     1      50.998   1.692  17.022  0.00  0.00    +0.000 A 
ATOM     10  N   UNL     1      51.647   2.607  17.814  0.00  0.00    +0.000 N 
ATOM     11  C   UNL     1      51.058   3.780  18.240  0.00  0.00    +0.000 A 
ATOM     12  O   UNL     1      51.688   4.621  18.876  0.00  0.00    +0.000 OA
ATOM     13  C   UNL     1      49.668   3.921  17.845  0.00  0.00    +0.000 A 
ATOM     14  H   UNL     1      52.606   2.468  18.083  0.00  0.00    +0.000 HD
ENDBRANCH   3   4
BRANCH   3  15
ATOM     15  C   UNL     1      48.061   5.745  20.548  0.00  0.00    +0.000 C 
BRANCH  15  16
ATOM     16  N   UNL     1      48.263   4.414  21.139  0.00  0.00    +0.000 NA
ATOM     17  H   UNL     1      49.212   4.356  21.508  0.00  0.00    +0.000 HD
ATOM     18  H   UNL     1      48.195   3.702  20.406  0.00  0.00    +0.000 HD
ENDBRANCH  15  16
ENDBRANCH   3  15
ENDBRANCH   1   3
BRANCH   1  19
ATOM     19  C   UNL     1      49.546   7.810  17.646  0.00  0.00    +0.000 C 
BRANCH  19  20
ATOM     20  C   UNL     1      49.053   7.811  16.213  0.00  0.00    +0.000 A 
ATOM     21  C   UNL     1      49.420   6.803  15.328  0.00  0.00    +0.000 A 
ATOM     22  N   UNL     1      49.029   6.780  14.030  0.00  0.00    +0.000 NA
ATOM     23  C   UNL     1      48.250   7.822  13.630  0.00  0.00    +0.000 A 
ATOM     24  C   UNL     1      47.891   8.834  14.512  0.00  0.00    +0.000 A 
ATOM     25  N   UNL     1      48.283   8.853  15.804  0.00  0.00    +0.000 NA
BRANCH  23  26
ATOM     26  C   UNL     1      47.728   7.827  12.211  0.00  0.00    +0.000 C 
BRANCH  26  27
ATOM     27  N   UNL     1      46.898   6.658  11.879  0.00  0.00    +0.000 NA
ATOM     28  H   UNL     1      47.298   5.867  12.390  0.00  0.00    +0.000 HD
BRANCH  27  29
ATOM     29  C   UNL     1      45.500   6.830  12.289  0.00  0.00    +0.000 C 
BRANCH  29  30
ATOM     30  C   UNL     1      44.879   5.487  12.672  0.00  0.00    +0.000 C 
ATOM     31  C   UNL     1      44.434   4.640  11.487  0.00  0.00    +0.000 C 
ATOM     32  C   UNL     1      44.442   3.246  12.074  0.00  0.00    +0.000 C 
ATOM     33  N   UNL     1      45.661   3.208  12.888  0.00  0.00    +0.000 NA
ATOM     34  C   UNL     1      45.856   4.571  13.416  0.00  0.00    +0.000 C 
ATOM     35  H   UNL     1      46.448   2.990  12.274  0.00  0.00    +0.000 HD
ENDBRANCH  29  30
ENDBRANCH  27  29
ENDBRANCH  26  27
ENDBRANCH  23  26
ENDBRANCH  19  20
ENDBRANCH   1  19
TORSDOF 10
ENDMDL
