MODEL 1
REMARK VINA RESULT:    -8.248      0.000      0.000
REMARK INTER + INTRA:         -13.426
REMARK INTER:                 -12.106
REMARK INTRA:                  -1.320
REMARK UNBOUND:                -1.320
REMARK  Name = 
REMARK  10 active torsions:
REMARK  status: ('A' for Active; 'I' for Inactive)
REMARK    1  A    between atoms: C_1  and  O_2
REMARK    2  A    between atoms: O_2  and  C_3
REMARK    3  A    between atoms: C_10  and  C_11
REMARK    4  A    between atoms: N_13  and  C_14
REMARK    5  A    between atoms: C_14  and  C_15
REMARK    6  A    between atoms: C_18  and  C_19
REMARK    7  A    between atoms: C_19  and  N_20
REMARK    8  A    between atoms: N_20  and  C_21
REMARK    9  A    between atoms: C_21  and  C_22
REMARK   10  A    between atoms: C_21  and  C_23
REMARK                            x       y       z     vdW  Elec       q    Type
REMARK                         _______ _______ _______ _____ _____    ______ ____
ROOT
ATOM      1  C   UNL     1      46.174   7.219  12.501  0.00  0.00    +0.000 A 
ATOM      2  C   UNL     1      46.663   6.668  11.309  0.00  0.00    +0.000 A 
ATOM      3  C   UNL     1      45.847   5.859  10.512  0.00  0.00    +0.000 A 
ATOM      4  C   UNL     1      44.522   5.584  10.884  0.00  0.00    +0.000 A 
ATOM      5  C   UNL     1      44.026   6.159  12.062  0.00  0.00    +0.000 A 
ATOM      6  C   UNL     1      44.842   6.971  12.859  0.00  0.00    +0.000 A 
ENDROOT
BRANCH   1   7
ATOM      7  C   UNL     1      47.045   8.107  13.352  0.00  0.00    +0.000 C 
BRANCH   7  10
ATOM      8  C   UNL     1      48.722   6.796  14.592  0.00  0.00    +0.000 C 
ATOM      9  O   UNL     1      49.495   6.811  13.635  0.00  0.00    +0.000 OA
ATOM     10  N   UNL     1      47.501   7.405  14.528  0.00  0.00    +0.000 N 
ATOM     11  H   UNL     1      46.859   7.342  15.305  0.00  0.00    +0.000 HD
BRANCH   8  19
ATOM     12  C   UNL     1      47.326   4.185  16.355  0.00  0.00    +0.000 A 
ATOM     13  N   UNL     1      46.992   3.218  17.233  0.00  0.00    +0.000 NA
ATOM     14  C   UNL     1      47.752   3.067  18.320  0.00  0.00    +0.000 A 
ATOM     15  N   UNL     1      48.828   3.777  18.650  0.00  0.00    +0.000 NA
ATOM     16  C   UNL     1      49.127   4.727  17.748  0.00  0.00    +0.000 A 
ATOM     17  S   UNL     1      50.471   5.732  18.006  0.00  0.00    +0.000 S 
ATOM     18  C   UNL     1      50.182   6.575  16.560  0.00  0.00    +0.000 A 
ATOM     19  C   UNL     1      49.074   6.121  15.854  0.00  0.00    +0.000 A 
ATOM     20  C   UNL     1      48.445   5.009  16.568  0.00  0.00    +0.000 A 
BRANCH  12  22
ATOM     21  C   UNL     1      47.084   3.569  14.108  0.00  0.00    +0.000 C 
ATOM     22  O   UNL     1      46.568   4.311  15.210  0.00  0.00    +0.000 OA
ENDBRANCH  12  22
ENDBRANCH   8  19
ENDBRANCH   7  10
ENDBRANCH   1   7
BRANCH   4  23
ATOM     23  C   UNL     1      43.639   4.715  10.011  0.00  0.00    +0.000 C 
BRANCH  23  24
ATOM     24  N   UNL     1      44.370   4.228   8.841  0.00  0.00    +0.000 NA
ATOM     25  H   UNL     1      45.036   4.952   8.566  0.00  0.00    +0.000 HD
BRANCH  24  26
ATOM     26  C   UNL     1      45.147   2.998   9.099  0.00  0.00    +0.000 C 
ATOM     27  C   UNL     1      44.266   1.781   9.414  0.00  0.00    +0.000 C 
BRANCH  26  28
ATOM     28  C   UNL     1      46.051   2.669   7.908  0.00  0.00    +0.000 A 
ATOM     29  C   UNL     1      46.207   3.577   6.859  0.00  0.00    +0.000 A 
ATOM     30  C   UNL     1      47.029   3.243   5.787  0.00  0.00    +0.000 A 
ATOM     31  C   UNL     1      47.678   2.016   5.787  0.00  0.00    +0.000 A 
ATOM     32  C   UNL     1      47.478   1.171   6.866  0.00  0.00    +0.000 A 
ATOM     33  N   UNL     1      46.684   1.467   7.921  0.00  0.00    +0.000 NA
ENDBRANCH  26  28
ENDBRANCH  24  26
ENDBRANCH  23  24
ENDBRANCH   4  23
TORSDOF 8
ENDMDL
MODEL 2
REMARK VINA RESULT:    -7.894      2.697      3.457
REMARK INTER + INTRA:         -12.906
REMARK INTER:                 -11.627
REMARK INTRA:                  -1.279
REMARK UNBOUND:                -1.320
REMARK  Name = 
REMARK  10 active torsions:
REMARK  status: ('A' for Active; 'I' for Inactive)
REMARK    1  A    between atoms: C_1  and  O_2
REMARK    2  A    between atoms: O_2  and  C_3
REMARK    3  A    between atoms: C_10  and  C_11
REMARK    4  A    between atoms: N_13  and  C_14
REMARK    5  A    between atoms: C_14  and  C_15
REMARK    6  A    between atoms: C_18  and  C_19
REMARK    7  A    between atoms: C_19  and  N_20
REMARK    8  A    between atoms: N_20  and  C_21
REMARK    9  A    between atoms: C_21  and  C_22
REMARK   10  A    between atoms: C_21  and  C_23
REMARK                            x       y       z     vdW  Elec       q    Type
REMARK                         _______ _______ _______ _____ _____    ______ ____
ROOT
ATOM      1  C   UNL     1      47.393   5.956  13.600  0.00  0.00    +0.000 A 
ATOM      2  C   UNL     1      47.116   4.640  13.991  0.00  0.00    +0.000 A 
ATOM      3  C   UNL     1      46.130   3.895  13.336  0.00  0.00    +0.000 A 
ATOM      4  C   UNL     1      45.400   4.446  12.272  0.00  0.00    +0.000 A 
ATOM      5  C   UNL     1      45.698   5.753  11.863  0.00  0.00    +0.000 A 
ATOM      6  C   UNL     1      46.686   6.498  12.517  0.00  0.00    +0.000 A 
ENDROOT
BRANCH   1   7
ATOM      7  C   UNL     1      48.468   6.755  14.291  0.00  0.00    +0.000 C 
BRANCH   7  10
ATOM      8  C   UNL     1      48.934   6.267  16.660  0.00  0.00    +0.000 C 
ATOM      9  O   UNL     1      49.891   5.554  16.363  0.00  0.00    +0.000 OA
ATOM     10  N   UNL     1      48.185   6.886  15.700  0.00  0.00    +0.000 N 
ATOM     11  H   UNL     1      47.374   7.430  15.958  0.00  0.00    +0.000 HD
BRANCH   8  19
ATOM     12  C   UNL     1      47.722   8.995  18.382  0.00  0.00    +0.000 A 
ATOM     13  N   UNL     1      47.259   9.884  19.283  0.00  0.00    +0.000 NA
ATOM     14  C   UNL     1      47.113   9.479  20.547  0.00  0.00    +0.000 A 
ATOM     15  N   UNL     1      47.379   8.271  21.037  0.00  0.00    +0.000 NA
ATOM     16  C   UNL     1      47.834   7.415  20.106  0.00  0.00    +0.000 A 
ATOM     17  S   UNL     1      48.226   5.825  20.552  0.00  0.00    +0.000 S 
ATOM     18  C   UNL     1      48.681   5.437  18.962  0.00  0.00    +0.000 A 
ATOM     19  C   UNL     1      48.549   6.491  18.065  0.00  0.00    +0.000 A 
ATOM     20  C   UNL     1      48.037   7.675  18.754  0.00  0.00    +0.000 A 
BRANCH  12  22
ATOM     21  C   UNL     1      48.908  10.303  16.843  0.00  0.00    +0.000 C 
ATOM     22  O   UNL     1      47.829   9.399  17.068  0.00  0.00    +0.000 OA
ENDBRANCH  12  22
ENDBRANCH   8  19
ENDBRANCH   7  10
ENDBRANCH   1   7
BRANCH   4  23
ATOM     23  C   UNL     1      44.340   3.631  11.559  0.00  0.00    +0.000 C 
BRANCH  23  24
ATOM     24  N   UNL     1      44.945   2.660  10.647  0.00  0.00    +0.000 NA
ATOM     25  H   UNL     1      44.622   1.731  10.922  0.00  0.00    +0.000 HD
BRANCH  24  26
ATOM     26  C   UNL     1      44.558   2.855   9.234  0.00  0.00    +0.000 C 
ATOM     27  C   UNL     1      44.164   4.302   8.908  0.00  0.00    +0.000 C 
BRANCH  26  28
ATOM     28  C   UNL     1      45.689   2.420   8.299  0.00  0.00    +0.000 A 
ATOM     29  C   UNL     1      46.297   3.337   7.439  0.00  0.00    +0.000 A 
ATOM     30  C   UNL     1      47.316   2.904   6.595  0.00  0.00    +0.000 A 
ATOM     31  C   UNL     1      47.707   1.574   6.630  0.00  0.00    +0.000 A 
ATOM     32  C   UNL     1      47.060   0.726   7.513  0.00  0.00    +0.000 A 
ATOM     33  N   UNL     1      46.066   1.115   8.345  0.00  0.00    +0.000 NA
ENDBRANCH  26  28
ENDBRANCH  24  26
ENDBRANCH  23  24
ENDBRANCH   4  23
TORSDOF 8
ENDMDL
MODEL 3
REMARK VINA RESULT:    -7.829      1.814      2.259
REMARK INTER + INTRA:         -12.811
REMARK INTER:                 -11.812
REMARK INTRA:                  -1.000
REMARK UNBOUND:                -1.320
REMARK  Name = 
REMARK  10 active torsions:
REMARK  status: ('A' for Active; 'I' for Inactive)
REMARK    1  A    between atoms: C_1  and  O_2
REMARK    2  A    between atoms: O_2  and  C_3
REMARK    3  A    between atoms: C_10  and  C_11
REMARK    4  A    between atoms: N_13  and  C_14
REMARK    5  A    between atoms: C_14  and  C_15
REMARK    6  A    between atoms: C_18  and  C_19
REMARK    7  A    between atoms: C_19  and  N_20
REMARK    8  A    between atoms: N_20  and  C_21
REMARK    9  A    between atoms: C_21  and  C_22
REMARK   10  A    between atoms: C_21  and  C_23
REMARK                            x       y       z     vdW  Elec       q    Type
REMARK                         _______ _______ _______ _____ _____    ______ ____
ROOT
ATOM      1  C   UNL     1      47.271   6.301  13.303  0.00  0.00    +0.000 A 
ATOM      2  C   UNL     1      47.155   5.016  13.850  0.00  0.00    +0.000 A 
ATOM      3  C   UNL     1      46.223   4.107  13.339  0.00  0.00    +0.000 A 
ATOM      4  C   UNL     1      45.388   4.457  12.268  0.00  0.00    +0.000 A 
ATOM      5  C   UNL     1      45.524   5.732  11.704  0.00  0.00    +0.000 A 
ATOM      6  C   UNL     1      46.458   6.642  12.212  0.00  0.00    +0.000 A 
ENDROOT
BRANCH   1   7
ATOM      7  C   UNL     1      48.287   7.277  13.837  0.00  0.00    +0.000 C 
BRANCH   7  10
ATOM      8  C   UNL     1      49.330   6.982  16.049  0.00  0.00    +0.000 C 
ATOM      9  O   UNL     1      50.390   6.619  15.542  0.00  0.00    +0.000 OA
ATOM     10  N   UNL     1      48.252   7.316  15.280  0.00  0.00    +0.000 N 
ATOM     11  H   UNL     1      47.375   7.566  15.713  0.00  0.00    +0.000 HD
BRANCH   8  19
ATOM     12  C   UNL     1      48.905   4.641  18.542  0.00  0.00    +0.000 A 
ATOM     13  N   UNL     1      48.723   3.956  19.688  0.00  0.00    +0.000 NA
ATOM     14  C   UNL     1      48.620   4.651  20.824  0.00  0.00    +0.000 A 
ATOM     15  N   UNL     1      48.673   5.973  20.963  0.00  0.00    +0.000 NA
ATOM     16  C   UNL     1      48.857   6.616  19.797  0.00  0.00    +0.000 A 
ATOM     17  S   UNL     1      48.950   8.311  19.783  0.00  0.00    +0.000 S 
ATOM     18  C   UNL     1      49.163   8.335  18.098  0.00  0.00    +0.000 A 
ATOM     19  C   UNL     1      49.170   7.074  17.511  0.00  0.00    +0.000 A 
ATOM     20  C   UNL     1      48.990   6.044  18.535  0.00  0.00    +0.000 A 
BRANCH  12  22
ATOM     21  C   UNL     1      47.905   3.157  17.028  0.00  0.00    +0.000 C 
ATOM     22  O   UNL     1      49.058   3.922  17.375  0.00  0.00    +0.000 OA
ENDBRANCH  12  22
ENDBRANCH   8  19
ENDBRANCH   7  10
ENDBRANCH   1   7
BRANCH   4  23
ATOM     23  C   UNL     1      44.387   3.464  11.712  0.00  0.00    +0.000 C 
BRANCH  23  24
ATOM     24  N   UNL     1      45.014   2.572  10.737  0.00  0.00    +0.000 NA
ATOM     25  H   UNL     1      44.787   1.612  11.002  0.00  0.00    +0.000 HD
BRANCH  24  26
ATOM     26  C   UNL     1      44.527   2.769   9.356  0.00  0.00    +0.000 C 
ATOM     27  C   UNL     1      44.066   4.206   9.076  0.00  0.00    +0.000 C 
BRANCH  26  28
ATOM     28  C   UNL     1      45.606   2.381   8.342  0.00  0.00    +0.000 A 
ATOM     29  C   UNL     1      46.083   3.311   7.416  0.00  0.00    +0.000 A 
ATOM     30  C   UNL     1      47.058   2.921   6.501  0.00  0.00    +0.000 A 
ATOM     31  C   UNL     1      47.536   1.619   6.533  0.00  0.00    +0.000 A 
ATOM     32  C   UNL     1      47.018   0.756   7.485  0.00  0.00    +0.000 A 
ATOM     33  N   UNL     1      46.069   1.105   8.385  0.00  0.00    +0.000 NA
ENDBRANCH  26  28
ENDBRANCH  24  26
ENDBRANCH  23  24
ENDBRANCH   4  23
TORSDOF 8
ENDMDL
MODEL 4
REMARK VINA RESULT:    -7.813      2.189      2.715
REMARK INTER + INTRA:         -12.787
REMARK INTER:                 -11.711
REMARK INTRA:                  -1.076
REMARK UNBOUND:                -1.320
REMARK  Name = 
REMARK  10 active torsions:
REMARK  status: ('A' for Active; 'I' for Inactive)
REMARK    1  A    between atoms: C_1  and  O_2
REMARK    2  A    between atoms: O_2  and  C_3
REMARK    3  A    between atoms: C_10  and  C_11
REMARK    4  A    between atoms: N_13  and  C_14
REMARK    5  A    between atoms: C_14  and  C_15
REMARK    6  A    between atoms: C_18  and  C_19
REMARK    7  A    between atoms: C_19  and  N_20
REMARK    8  A    between atoms: N_20  and  C_21
REMARK    9  A    between atoms: C_21  and  C_22
REMARK   10  A    between atoms: C_21  and  C_23
REMARK                            x       y       z     vdW  Elec       q    Type
REMARK                         _______ _______ _______ _____ _____    ______ ____
ROOT
ATOM      1  C   UNL     1      47.578   6.262  14.143  0.00  0.00    +0.000 A 
ATOM      2  C   UNL     1      46.956   6.696  12.965  0.00  0.00    +0.000 A 
ATOM      3  C   UNL     1      46.022   5.883  12.313  0.00  0.00    +0.000 A 
ATOM      4  C   UNL     1      45.685   4.621  12.823  0.00  0.00    +0.000 A 
ATOM      5  C   UNL     1      46.288   4.200  14.016  0.00  0.00    +0.000 A 
ATOM      6  C   UNL     1      47.221   5.013  14.671  0.00  0.00    +0.000 A 
ENDROOT
BRANCH   1   7
ATOM      7  C   UNL     1      48.570   7.142  14.859  0.00  0.00    +0.000 C 
BRANCH   7  10
ATOM      8  C   UNL     1      49.643   6.038  16.781  0.00  0.00    +0.000 C 
ATOM      9  O   UNL     1      48.759   6.424  17.544  0.00  0.00    +0.000 OA
ATOM     10  N   UNL     1      49.623   6.353  15.452  0.00  0.00    +0.000 N 
ATOM     11  H   UNL     1      50.381   6.068  14.849  0.00  0.00    +0.000 HD
BRANCH   8  19
ATOM     12  C   UNL     1      50.175   2.640  16.999  0.00  0.00    +0.000 A 
ATOM     13  N   UNL     1      50.634   1.390  17.202  0.00  0.00    +0.000 NA
ATOM     14  C   UNL     1      51.847   1.246  17.742  0.00  0.00    +0.000 A 
ATOM     15  N   UNL     1      52.678   2.217  18.116  0.00  0.00    +0.000 NA
ATOM     16  C   UNL     1      52.183   3.446  17.893  0.00  0.00    +0.000 A 
ATOM     17  S   UNL     1      53.108   4.808  18.309  0.00  0.00    +0.000 S 
ATOM     18  C   UNL     1      51.891   5.862  17.767  0.00  0.00    +0.000 A 
ATOM     19  C   UNL     1      50.768   5.216  17.263  0.00  0.00    +0.000 A 
ATOM     20  C   UNL     1      50.948   3.766  17.337  0.00  0.00    +0.000 A 
BRANCH  12  22
ATOM     21  C   UNL     1      47.862   2.806  17.329  0.00  0.00    +0.000 C 
ATOM     22  O   UNL     1      48.942   2.789  16.399  0.00  0.00    +0.000 OA
ENDBRANCH  12  22
ENDBRANCH   8  19
ENDBRANCH   7  10
ENDBRANCH   1   7
BRANCH   4  23
ATOM     23  C   UNL     1      44.665   3.750  12.118  0.00  0.00    +0.000 C 
BRANCH  23  24
ATOM     24  N   UNL     1      45.297   2.932  11.082  0.00  0.00    +0.000 NA
ATOM     25  H   UNL     1      45.270   1.959  11.394  0.00  0.00    +0.000 HD
BRANCH  24  26
ATOM     26  C   UNL     1      44.603   2.990   9.778  0.00  0.00    +0.000 C 
ATOM     27  C   UNL     1      43.995   4.366   9.478  0.00  0.00    +0.000 C 
BRANCH  26  28
ATOM     28  C   UNL     1      45.555   2.602   8.643  0.00  0.00    +0.000 A 
ATOM     29  C   UNL     1      45.972   3.550   7.706  0.00  0.00    +0.000 A 
ATOM     30  C   UNL     1      46.830   3.161   6.681  0.00  0.00    +0.000 A 
ATOM     31  C   UNL     1      47.254   1.842   6.616  0.00  0.00    +0.000 A 
ATOM     32  C   UNL     1      46.801   0.961   7.584  0.00  0.00    +0.000 A 
ATOM     33  N   UNL     1      45.966   1.309   8.591  0.00  0.00    +0.000 NA
ENDBRANCH  26  28
ENDBRANCH  24  26
ENDBRANCH  23  24
ENDBRANCH   4  23
TORSDOF 8
ENDMDL
MODEL 5
REMARK VINA RESULT:    -7.420      1.911      2.508
REMARK INTER + INTRA:         -12.211
REMARK INTER:                 -10.984
REMARK INTRA:                  -1.226
REMARK UNBOUND:                -1.320
REMARK  Name = 
REMARK  10 active torsions:
REMARK  status: ('A' for Active; 'I' for Inactive)
REMARK    1  A    between atoms: C_1  and  O_2
REMARK    2  A    between atoms: O_2  and  C_3
REMARK    3  A    between atoms: C_10  and  C_11
REMARK    4  A    between atoms: N_13  and  C_14
REMARK    5  A    between atoms: C_14  and  C_15
REMARK    6  A    between atoms: C_18  and  C_19
REMARK    7  A    between atoms: C_19  and  N_20
REMARK    8  A    between atoms: N_20  and  C_21
REMARK    9  A    between atoms: C_21  and  C_22
REMARK   10  A    between atoms: C_21  and  C_23
REMARK                            x       y       z     vdW  Elec       q    Type
REMARK                         _______ _______ _______ _____ _____    ______ ____
ROOT
ATOM      1  C   UNL     1      47.092   6.661  13.361  0.00  0.00    +0.000 A 
ATOM      2  C   UNL     1      46.198   6.996  12.336  0.00  0.00    +0.000 A 
ATOM      3  C   UNL     1      45.331   6.035  11.806  0.00  0.00    +0.000 A 
ATOM      4  C   UNL     1      45.333   4.719  12.290  0.00  0.00    +0.000 A 
ATOM      5  C   UNL     1      46.208   4.392  13.334  0.00  0.00    +0.000 A 
ATOM      6  C   UNL     1      47.075   5.353  13.867  0.00  0.00    +0.000 A 
ENDROOT
BRANCH   1   7
ATOM      7  C   UNL     1      48.015   7.698  13.948  0.00  0.00    +0.000 C 
BRANCH   7  10
ATOM      8  C   UNL     1      50.183   7.780  15.114  0.00  0.00    +0.000 C 
ATOM      9  O   UNL     1      50.270   8.995  14.944  0.00  0.00    +0.000 OA
ATOM     10  N   UNL     1      49.110   7.073  14.650  0.00  0.00    +0.000 N 
ATOM     11  H   UNL     1      49.077   6.069  14.756  0.00  0.00    +0.000 HD
BRANCH   8  19
ATOM     12  C   UNL     1      50.117   5.158  17.348  0.00  0.00    +0.000 A 
ATOM     13  N   UNL     1      50.377   4.167  18.224  0.00  0.00    +0.000 NA
ATOM     14  C   UNL     1      51.652   3.924  18.536  0.00  0.00    +0.000 A 
ATOM     15  N   UNL     1      52.725   4.562  18.076  0.00  0.00    +0.000 NA
ATOM     16  C   UNL     1      52.422   5.539  17.205  0.00  0.00    +0.000 A 
ATOM     17  S   UNL     1      53.669   6.461  16.514  0.00  0.00    +0.000 S 
ATOM     18  C   UNL     1      52.558   7.388  15.624  0.00  0.00    +0.000 A 
ATOM     19  C   UNL     1      51.231   7.026  15.825  0.00  0.00    +0.000 A 
ATOM     20  C   UNL     1      51.153   5.913  16.772  0.00  0.00    +0.000 A 
BRANCH  12  22
ATOM     21  C   UNL     1      47.936   5.550  18.108  0.00  0.00    +0.000 C 
ATOM     22  O   UNL     1      48.803   5.379  16.991  0.00  0.00    +0.000 OA
ENDBRANCH  12  22
ENDBRANCH   8  19
ENDBRANCH   7  10
ENDBRANCH   1   7
BRANCH   4  23
ATOM     23  C   UNL     1      44.383   3.685  11.719  0.00  0.00    +0.000 C 
BRANCH  23  24
ATOM     24  N   UNL     1      45.080   2.774  10.810  0.00  0.00    +0.000 NA
ATOM     25  H   UNL     1      44.933   1.822  11.150  0.00  0.00    +0.000 HD
BRANCH  24  26
ATOM     26  C   UNL     1      44.576   2.823   9.421  0.00  0.00    +0.000 C 
ATOM     27  C   UNL     1      44.062   4.211   9.013  0.00  0.00    +0.000 C 
BRANCH  26  28
ATOM     28  C   UNL     1      45.660   2.379   8.437  0.00  0.00    +0.000 A 
ATOM     29  C   UNL     1      46.281   3.302   7.593  0.00  0.00    +0.000 A 
ATOM     30  C   UNL     1      47.256   2.862   6.703  0.00  0.00    +0.000 A 
ATOM     31  C   UNL     1      47.592   1.516   6.677  0.00  0.00    +0.000 A 
ATOM     32  C   UNL     1      46.937   0.662   7.548  0.00  0.00    +0.000 A 
ATOM     33  N   UNL     1      45.984   1.059   8.423  0.00  0.00    +0.000 NA
ENDBRANCH  26  28
ENDBRANCH  24  26
ENDBRANCH  23  24
ENDBRANCH   4  23
TORSDOF 8
ENDMDL
MODEL 6
REMARK VINA RESULT:    -6.952      1.975      2.971
REMARK INTER + INTRA:         -11.523
REMARK INTER:                 -10.671
REMARK INTRA:                  -0.852
REMARK UNBOUND:                -1.320
REMARK  Name = 
REMARK  10 active torsions:
REMARK  status: ('A' for Active; 'I' for Inactive)
REMARK    1  A    between atoms: C_1  and  O_2
REMARK    2  A    between atoms: O_2  and  C_3
REMARK    3  A    between atoms: C_10  and  C_11
REMARK    4  A    between atoms: N_13  and  C_14
REMARK    5  A    between atoms: C_14  and  C_15
REMARK    6  A    between atoms: C_18  and  C_19
REMARK    7  A    between atoms: C_19  and  N_20
REMARK    8  A    between atoms: N_20  and  C_21
REMARK    9  A    between atoms: C_21  and  C_22
REMARK   10  A    between atoms: C_21  and  C_23
REMARK                            x       y       z     vdW  Elec       q    Type
REMARK                         _______ _______ _______ _____ _____    ______ ____
ROOT
ATOM      1  C   UNL     1      46.472   6.727  13.057  0.00  0.00    +0.000 A 
ATOM      2  C   UNL     1      45.886   7.476  12.027  0.00  0.00    +0.000 A 
ATOM      3  C   UNL     1      44.942   6.895  11.174  0.00  0.00    +0.000 A 
ATOM      4  C   UNL     1      44.558   5.555  11.331  0.00  0.00    +0.000 A 
ATOM      5  C   UNL     1      45.124   4.816  12.379  0.00  0.00    +0.000 A 
ATOM      6  C   UNL     1      46.067   5.397  13.235  0.00  0.00    +0.000 A 
ENDROOT
BRANCH   1   7
ATOM      7  C   UNL     1      47.475   7.355  13.991  0.00  0.00    +0.000 C 
BRANCH   7  10
ATOM      8  C   UNL     1      48.802   6.677  15.952  0.00  0.00    +0.000 C 
ATOM      9  O   UNL     1      48.963   7.847  16.294  0.00  0.00    +0.000 OA
ATOM     10  N   UNL     1      48.089   6.356  14.832  0.00  0.00    +0.000 N 
ATOM     11  H   UNL     1      48.006   5.393  14.539  0.00  0.00    +0.000 HD
BRANCH   8  19
ATOM     12  C   UNL     1      51.999   5.871  16.955  0.00  0.00    +0.000 A 
ATOM     13  N   UNL     1      53.121   5.324  17.461  0.00  0.00    +0.000 NA
ATOM     14  C   UNL     1      53.011   4.176  18.136  0.00  0.00    +0.000 A 
ATOM     15  N   UNL     1      51.897   3.490  18.372  0.00  0.00    +0.000 NA
ATOM     16  C   UNL     1      50.801   4.072  17.854  0.00  0.00    +0.000 A 
ATOM     17  S   UNL     1      49.286   3.334  18.059  0.00  0.00    +0.000 S 
ATOM     18  C   UNL     1      48.511   4.572  17.192  0.00  0.00    +0.000 A 
ATOM     19  C   UNL     1      49.370   5.564  16.733  0.00  0.00    +0.000 A 
ATOM     20  C   UNL     1      50.744   5.262  17.135  0.00  0.00    +0.000 A 
BRANCH  12  22
ATOM     21  C   UNL     1      53.312   7.209  15.550  0.00  0.00    +0.000 C 
ATOM     22  O   UNL     1      52.106   7.079  16.298  0.00  0.00    +0.000 OA
ENDBRANCH  12  22
ENDBRANCH   8  19
ENDBRANCH   7  10
ENDBRANCH   1   7
BRANCH   4  23
ATOM     23  C   UNL     1      43.527   4.935  10.410  0.00  0.00    +0.000 C 
BRANCH  23  24
ATOM     24  N   UNL     1      44.152   4.410   9.196  0.00  0.00    +0.000 NA
ATOM     25  H   UNL     1      44.770   5.135   8.826  0.00  0.00    +0.000 HD
BRANCH  24  26
ATOM     26  C   UNL     1      44.982   3.209   9.430  0.00  0.00    +0.000 C 
ATOM     27  C   UNL     1      44.159   1.967   9.798  0.00  0.00    +0.000 C 
BRANCH  26  28
ATOM     28  C   UNL     1      45.840   2.897   8.201  0.00  0.00    +0.000 A 
ATOM     29  C   UNL     1      46.398   1.630   8.023  0.00  0.00    +0.000 A 
ATOM     30  C   UNL     1      47.181   1.383   6.899  0.00  0.00    +0.000 A 
ATOM     31  C   UNL     1      47.385   2.401   5.978  0.00  0.00    +0.000 A 
ATOM     32  C   UNL     1      46.793   3.630   6.221  0.00  0.00    +0.000 A 
ATOM     33  N   UNL     1      46.029   3.901   7.305  0.00  0.00    +0.000 NA
ENDBRANCH  26  28
ENDBRANCH  24  26
ENDBRANCH  23  24
ENDBRANCH   4  23
TORSDOF 8
ENDMDL
MODEL 7
REMARK VINA RESULT:    -6.940      4.422      9.573
REMARK INTER + INTRA:         -11.506
REMARK INTER:                 -10.415
REMARK INTRA:                  -1.091
REMARK UNBOUND:                -1.320
REMARK  Name = 
REMARK  10 active torsions:
REMARK  status: ('A' for Active; 'I' for Inactive)
REMARK    1  A    between atoms: C_1  and  O_2
REMARK    2  A    between atoms: O_2  and  C_3
REMARK    3  A    between atoms: C_10  and  C_11
REMARK    4  A    between atoms: N_13  and  C_14
REMARK    5  A    between atoms: C_14  and  C_15
REMARK    6  A    between atoms: C_18  and  C_19
REMARK    7  A    between atoms: C_19  and  N_20
REMARK    8  A    between atoms: N_20  and  C_21
REMARK    9  A    between atoms: C_21  and  C_22
REMARK   10  A    between atoms: C_21  and  C_23
REMARK                            x       y       z     vdW  Elec       q    Type
REMARK                         _______ _______ _______ _____ _____    ______ ____
ROOT
ATOM      1  C   UNL     1      48.567   3.423  17.183  0.00  0.00    +0.000 A 
ATOM      2  C   UNL     1      49.112   4.625  17.655  0.00  0.00    +0.000 A 
ATOM      3  C   UNL     1      50.461   4.700  18.016  0.00  0.00    +0.000 A 
ATOM      4  C   UNL     1      51.298   3.579  17.911  0.00  0.00    +0.000 A 
ATOM      5  C   UNL     1      50.758   2.386  17.412  0.00  0.00    +0.000 A 
ATOM      6  C   UNL     1      49.408   2.310  17.048  0.00  0.00    +0.000 A 
ENDROOT
BRANCH   1   7
ATOM      7  C   UNL     1      47.118   3.344  16.774  0.00  0.00    +0.000 C 
BRANCH   7  10
ATOM      8  C   UNL     1      46.904   4.242  14.491  0.00  0.00    +0.000 C 
ATOM      9  O   UNL     1      47.306   3.189  13.999  0.00  0.00    +0.000 OA
ATOM     10  N   UNL     1      46.788   4.396  15.843  0.00  0.00    +0.000 N 
ATOM     11  H   UNL     1      46.502   5.283  16.232  0.00  0.00    +0.000 HD
BRANCH   8  19
ATOM     12  C   UNL     1      44.090   5.009  12.655  0.00  0.00    +0.000 A 
ATOM     13  N   UNL     1      43.139   5.544  11.864  0.00  0.00    +0.000 NA
ATOM     14  C   UNL     1      43.390   6.725  11.292  0.00  0.00    +0.000 A 
ATOM     15  N   UNL     1      44.497   7.453  11.411  0.00  0.00    +0.000 NA
ATOM     16  C   UNL     1      45.417   6.885  12.209  0.00  0.00    +0.000 A 
ATOM     17  S   UNL     1      46.895   7.675  12.475  0.00  0.00    +0.000 S 
ATOM     18  C   UNL     1      47.439   6.423  13.487  0.00  0.00    +0.000 A 
ATOM     19  C   UNL     1      46.525   5.389  13.646  0.00  0.00    +0.000 A 
ATOM     20  C   UNL     1      45.310   5.671  12.880  0.00  0.00    +0.000 A 
BRANCH  12  22
ATOM     21  C   UNL     1      43.570   2.742  12.373  0.00  0.00    +0.000 C 
ATOM     22  O   UNL     1      43.813   3.812  13.282  0.00  0.00    +0.000 OA
ENDBRANCH  12  22
ENDBRANCH   8  19
ENDBRANCH   7  10
ENDBRANCH   1   7
BRANCH   4  23
ATOM     23  C   UNL     1      52.762   3.669  18.294  0.00  0.00    +0.000 C 
BRANCH  23  24
ATOM     24  N   UNL     1      53.104   2.671  19.306  0.00  0.00    +0.000 NA
ATOM     25  H   UNL     1      52.504   1.858  19.157  0.00  0.00    +0.000 HD
BRANCH  24  26
ATOM     26  C   UNL     1      54.503   2.199  19.222  0.00  0.00    +0.000 C 
ATOM     27  C   UNL     1      55.197   2.118  20.589  0.00  0.00    +0.000 C 
BRANCH  26  28
ATOM     28  C   UNL     1      54.572   0.830  18.541  0.00  0.00    +0.000 A 
ATOM     29  C   UNL     1      54.666   0.728  17.152  0.00  0.00    +0.000 A 
ATOM     30  C   UNL     1      54.717  -0.533  16.565  0.00  0.00    +0.000 A 
ATOM     31  C   UNL     1      54.677  -1.660  17.374  0.00  0.00    +0.000 A 
ATOM     32  C   UNL     1      54.589  -1.478  18.744  0.00  0.00    +0.000 A 
ATOM     33  N   UNL     1      54.536  -0.266  19.344  0.00  0.00    +0.000 NA
ENDBRANCH  26  28
ENDBRANCH  24  26
ENDBRANCH  23  24
ENDBRANCH   4  23
TORSDOF 8
ENDMDL
MODEL 8
REMARK VINA RESULT:    -6.925      2.173      2.918
REMARK INTER + INTRA:         -11.485
REMARK INTER:                 -10.589
REMARK INTRA:                  -0.895
REMARK UNBOUND:                -1.320
REMARK  Name = 
REMARK  10 active torsions:
REMARK  status: ('A' for Active; 'I' for Inactive)
REMARK    1  A    between atoms: C_1  and  O_2
REMARK    2  A    between atoms: O_2  and  C_3
REMARK    3  A    between atoms: C_10  and  C_11
REMARK    4  A    between atoms: N_13  and  C_14
REMARK    5  A    between atoms: C_14  and  C_15
REMARK    6  A    between atoms: C_18  and  C_19
REMARK    7  A    between atoms: C_19  and  N_20
REMARK    8  A    between atoms: N_20  and  C_21
REMARK    9  A    between atoms: C_21  and  C_22
REMARK   10  A    between atoms: C_21  and  C_23
REMARK                            x       y       z     vdW  Elec       q    Type
REMARK                         _______ _______ _______ _____ _____    ______ ____
ROOT
ATOM      1  C   UNL     1      46.035   7.023  12.918  0.00  0.00    +0.000 A 
ATOM      2  C   UNL     1      44.662   6.989  12.638  0.00  0.00    +0.000 A 
ATOM      3  C   UNL     1      44.043   5.793  12.260  0.00  0.00    +0.000 A 
ATOM      4  C   UNL     1      44.778   4.603  12.158  0.00  0.00    +0.000 A 
ATOM      5  C   UNL     1      46.145   4.633  12.465  0.00  0.00    +0.000 A 
ATOM      6  C   UNL     1      46.766   5.829  12.846  0.00  0.00    +0.000 A 
ENDROOT
BRANCH   1   7
ATOM      7  C   UNL     1      46.702   8.306  13.344  0.00  0.00    +0.000 C 
BRANCH   7  10
ATOM      8  C   UNL     1      48.628   8.441  14.873  0.00  0.00    +0.000 C 
ATOM      9  O   UNL     1      47.950   8.990  15.739  0.00  0.00    +0.000 OA
ATOM     10  N   UNL     1      48.089   8.079  13.671  0.00  0.00    +0.000 N 
ATOM     11  H   UNL     1      48.671   7.672  12.953  0.00  0.00    +0.000 HD
BRANCH   8  19
ATOM     12  C   UNL     1      50.305   6.041  16.690  0.00  0.00    +0.000 A 
ATOM     13  N   UNL     1      51.196   5.240  17.307  0.00  0.00    +0.000 NA
ATOM     14  C   UNL     1      52.496   5.491  17.127  0.00  0.00    +0.000 A 
ATOM     15  N   UNL     1      53.030   6.465  16.395  0.00  0.00    +0.000 NA
ATOM     16  C   UNL     1      52.107   7.238  15.796  0.00  0.00    +0.000 A 
ATOM     17  S   UNL     1      52.608   8.533  14.820  0.00  0.00    +0.000 S 
ATOM     18  C   UNL     1      51.001   8.963  14.479  0.00  0.00    +0.000 A 
ATOM     19  C   UNL     1      50.056   8.145  15.088  0.00  0.00    +0.000 A 
ATOM     20  C   UNL     1      50.724   7.108  15.875  0.00  0.00    +0.000 A 
BRANCH  12  22
ATOM     21  C   UNL     1      48.423   6.213  18.075  0.00  0.00    +0.000 C 
ATOM     22  O   UNL     1      48.964   5.755  16.839  0.00  0.00    +0.000 OA
ENDBRANCH  12  22
ENDBRANCH   8  19
ENDBRANCH   7  10
ENDBRANCH   1   7
BRANCH   4  23
ATOM     23  C   UNL     1      44.100   3.307  11.758  0.00  0.00    +0.000 C 
BRANCH  23  24
ATOM     24  N   UNL     1      44.907   2.567  10.789  0.00  0.00    +0.000 NA
ATOM     25  H   UNL     1      44.774   1.570  10.970  0.00  0.00    +0.000 HD
BRANCH  24  26
ATOM     26  C   UNL     1      44.515   2.810   9.385  0.00  0.00    +0.000 C 
ATOM     27  C   UNL     1      44.121   4.267   9.110  0.00  0.00    +0.000 C 
BRANCH  26  28
ATOM     28  C   UNL     1      45.644   2.406   8.432  0.00  0.00    +0.000 A 
ATOM     29  C   UNL     1      46.263   3.356   7.617  0.00  0.00    +0.000 A 
ATOM     30  C   UNL     1      47.280   2.952   6.755  0.00  0.00    +0.000 A 
ATOM     31  C   UNL     1      47.656   1.617   6.728  0.00  0.00    +0.000 A 
ATOM     32  C   UNL     1      46.999   0.736   7.570  0.00  0.00    +0.000 A 
ATOM     33  N   UNL     1      46.007   1.097   8.417  0.00  0.00    +0.000 NA
ENDBRANCH  26  28
ENDBRANCH  24  26
ENDBRANCH  23  24
ENDBRANCH   4  23
TORSDOF 8
ENDMDL
MODEL 9
REMARK VINA RESULT:    -6.707      3.188      7.922
REMARK INTER + INTRA:         -11.164
REMARK INTER:                  -9.503
REMARK INTRA:                  -1.661
REMARK UNBOUND:                -1.320
REMARK  Name = 
REMARK  10 active torsions:
REMARK  status: ('A' for Active; 'I' for Inactive)
REMARK    1  A    between atoms: C_1  and  O_2
REMARK    2  A    between atoms: O_2  and  C_3
REMARK    3  A    between atoms: C_10  and  C_11
REMARK    4  A    between atoms: N_13  and  C_14
REMARK    5  A    between atoms: C_14  and  C_15
REMARK    6  A    between atoms: C_18  and  C_19
REMARK    7  A    between atoms: C_19  and  N_20
REMARK    8  A    between atoms: N_20  and  C_21
REMARK    9  A    between atoms: C_21  and  C_22
REMARK   10  A    between atoms: C_21  and  C_23
REMARK                            x       y       z     vdW  Elec       q    Type
REMARK                         _______ _______ _______ _____ _____    ______ ____
ROOT
ATOM      1  C   UNL     1      48.535   7.999  13.325  0.00  0.00    +0.000 A 
ATOM      2  C   UNL     1      47.922   9.000  14.090  0.00  0.00    +0.000 A 
ATOM      3  C   UNL     1      48.000   8.976  15.486  0.00  0.00    +0.000 A 
ATOM      4  C   UNL     1      48.695   7.954  16.151  0.00  0.00    +0.000 A 
ATOM      5  C   UNL     1      49.330   6.969  15.384  0.00  0.00    +0.000 A 
ATOM      6  C   UNL     1      49.255   6.993  13.986  0.00  0.00    +0.000 A 
ENDROOT
BRANCH   1   7
ATOM      7  C   UNL     1      48.470   8.032  11.819  0.00  0.00    +0.000 C 
BRANCH   7  10
ATOM      8  C   UNL     1      46.333   6.923  11.298  0.00  0.00    +0.000 C 
ATOM      9  O   UNL     1      45.690   7.879  11.726  0.00  0.00    +0.000 OA
ATOM     10  N   UNL     1      47.699   6.921  11.314  0.00  0.00    +0.000 N 
ATOM     11  H   UNL     1      48.211   6.108  11.002  0.00  0.00    +0.000 HD
BRANCH   8  19
ATOM     12  C   UNL     1      44.522   4.352  12.707  0.00  0.00    +0.000 A 
ATOM     13  N   UNL     1      43.801   3.248  12.987  0.00  0.00    +0.000 NA
ATOM     14  C   UNL     1      43.461   2.447  11.975  0.00  0.00    +0.000 A 
ATOM     15  N   UNL     1      43.759   2.610  10.688  0.00  0.00    +0.000 NA
ATOM     16  C   UNL     1      44.475   3.723  10.452  0.00  0.00    +0.000 A 
ATOM     17  S   UNL     1      44.946   4.093   8.864  0.00  0.00    +0.000 S 
ATOM     18  C   UNL     1      45.737   5.507   9.375  0.00  0.00    +0.000 A 
ATOM     19  C   UNL     1      45.664   5.731  10.745  0.00  0.00    +0.000 A 
ATOM     20  C   UNL     1      44.902   4.660  11.388  0.00  0.00    +0.000 A 
BRANCH  12  22
ATOM     21  C   UNL     1      46.168   5.047  14.221  0.00  0.00    +0.000 C 
ATOM     22  O   UNL     1      44.834   5.204  13.746  0.00  0.00    +0.000 OA
ENDBRANCH  12  22
ENDBRANCH   8  19
ENDBRANCH   7  10
ENDBRANCH   1   7
BRANCH   4  23
ATOM     23  C   UNL     1      48.784   7.939  17.664  0.00  0.00    +0.000 C 
BRANCH  23  24
ATOM     24  N   UNL     1      49.639   6.848  18.131  0.00  0.00    +0.000 NA
ATOM     25  H   UNL     1      50.311   7.240  18.792  0.00  0.00    +0.000 HD
BRANCH  24  26
ATOM     26  C   UNL     1      48.901   5.782  18.841  0.00  0.00    +0.000 C 
ATOM     27  C   UNL     1      47.430   6.134  19.101  0.00  0.00    +0.000 C 
BRANCH  26  28
ATOM     28  C   UNL     1      48.973   4.465  18.063  0.00  0.00    +0.000 A 
ATOM     29  C   UNL     1      50.168   3.747  17.985  0.00  0.00    +0.000 A 
ATOM     30  C   UNL     1      50.200   2.558  17.261  0.00  0.00    +0.000 A 
ATOM     31  C   UNL     1      49.043   2.112  16.638  0.00  0.00    +0.000 A 
ATOM     32  C   UNL     1      47.895   2.876  16.766  0.00  0.00    +0.000 A 
ATOM     33  N   UNL     1      47.833   4.036  17.461  0.00  0.00    +0.000 NA
ENDBRANCH  26  28
ENDBRANCH  24  26
ENDBRANCH  23  24
ENDBRANCH   4  23
TORSDOF 8
ENDMDL
