MODEL 1
REMARK VINA RESULT:    -8.440      0.000      0.000
REMARK INTER + INTRA:         -13.757
REMARK INTER:                 -12.633
REMARK INTRA:                  -1.124
REMARK UNBOUND:                -1.124
REMARK  Name = 
REMARK  9 active torsions:
REMARK  status: ('A' for Active; 'I' for Inactive)
REMARK    1  A    between atoms: N_1  and  C_2
REMARK    2  A    between atoms: C_2  and  C_3
REMARK    3  A    between atoms: C_3  and  N_4
REMARK    4  A    between atoms: C_3  and  C_26
REMARK    5  A    between atoms: N_4  and  C_5
REMARK    6  A    between atoms: C_5  and  C_6
REMARK    7  A    between atoms: C_9  and  C_10
REMARK    8  A    between atoms: C_10  and  N_11
REMARK    9  A    between atoms: C_12  and  C_14
REMARK                            x       y       z     vdW  Elec       q    Type
REMARK                         _______ _______ _______ _____ _____    ______ ____
ROOT
ATOM      1  C   UNL     1      44.625   6.124  11.277  0.00  0.00    +0.000 A 
ATOM      2  C   UNL     1      45.904   5.599  11.506  0.00  0.00    +0.000 A 
ATOM      3  C   UNL     1      46.834   6.309  12.268  0.00  0.00    +0.000 A 
ATOM      4  C   UNL     1      46.504   7.560  12.804  0.00  0.00    +0.000 A 
ATOM      5  C   UNL     1      45.245   8.108  12.534  0.00  0.00    +0.000 A 
ATOM      6  C   UNL     1      44.312   7.393  11.787  0.00  0.00    +0.000 A 
ENDROOT
BRANCH   1   7
ATOM      7  C   UNL     1      43.584   5.355  10.492  0.00  0.00    +0.000 C 
BRANCH   7   8
ATOM      8  N   UNL     1      44.177   4.728   9.317  0.00  0.00    +0.000 NA
ATOM      9  H   UNL     1      43.627   4.992   8.502  0.00  0.00    +0.000 HD
BRANCH   8  10
ATOM     10  C   UNL     1      44.196   3.248   9.366  0.00  0.00    +0.000 C 
BRANCH  10  11
ATOM     11  C   UNL     1      45.347   2.706   8.504  0.00  0.00    +0.000 A 
ATOM     12  C   UNL     1      46.066   3.551   7.653  0.00  0.00    +0.000 A 
ATOM     13  C   UNL     1      47.091   3.024   6.874  0.00  0.00    +0.000 A 
ATOM     14  C   UNL     1      47.391   1.673   6.974  0.00  0.00    +0.000 A 
ATOM     15  C   UNL     1      46.646   0.903   7.850  0.00  0.00    +0.000 A 
ATOM     16  N   UNL     1      45.636   1.383   8.611  0.00  0.00    +0.000 NA
ENDBRANCH  10  11
BRANCH  10  17
ATOM     17  C   UNL     1      44.327   2.612  10.788  0.00  0.00    +0.000 C 
BRANCH  17  18
ATOM     18  N   UNL     1      43.075   2.129  11.396  0.00  0.00    +0.000 NA
ATOM     19  H   UNL     1      42.304   2.301  10.755  0.00  0.00    +0.000 HD
ATOM     20  H   UNL     1      42.882   2.659  12.244  0.00  0.00    +0.000 HD
ENDBRANCH  17  18
ENDBRANCH  10  17
ENDBRANCH   8  10
ENDBRANCH   7   8
ENDBRANCH   1   7
BRANCH   4  21
ATOM     21  C   UNL     1      47.502   8.334  13.616  0.00  0.00    +0.000 C 
BRANCH  21  22
ATOM     22  N   UNL     1      47.829   7.630  14.828  0.00  0.00    +0.000 N 
ATOM     23  C   UNL     1      49.043   7.015  14.975  0.00  0.00    +0.000 C 
ATOM     24  O   UNL     1      49.919   7.095  14.119  0.00  0.00    +0.000 OA
ATOM     25  H   UNL     1      47.058   7.384  15.442  0.00  0.00    +0.000 HD
BRANCH  23  26
ATOM     26  C   UNL     1      49.268   6.296  16.233  0.00  0.00    +0.000 A 
ATOM     27  C   UNL     1      50.266   6.728  17.095  0.00  0.00    +0.000 A 
ATOM     28  S   UNL     1      50.389   5.802  18.519  0.00  0.00    +0.000 S 
ATOM     29  C   UNL     1      49.139   4.763  18.017  0.00  0.00    +0.000 A 
ATOM     30  N   UNL     1      48.761   3.704  18.782  0.00  0.00    +0.000 NA
ATOM     31  C   UNL     1      47.819   2.985  18.271  0.00  0.00    +0.000 A 
ATOM     32  N   UNL     1      47.217   3.231  17.064  0.00  0.00    +0.000 N 
ATOM     33  C   UNL     1      47.545   4.305  16.270  0.00  0.00    +0.000 A 
ATOM     34  O   UNL     1      46.952   4.525  15.220  0.00  0.00    +0.000 OA
ATOM     35  C   UNL     1      48.616   5.137  16.794  0.00  0.00    +0.000 A 
ATOM     36  H   UNL     1      46.474   2.638  16.726  0.00  0.00    +0.000 HD
ENDBRANCH  23  26
ENDBRANCH  21  22
ENDBRANCH   4  21
TORSDOF 9
ENDMDL
MODEL 2
REMARK VINA RESULT:    -7.875      1.355      1.665
REMARK INTER + INTRA:         -12.912
REMARK INTER:                 -11.832
REMARK INTRA:                  -1.080
REMARK UNBOUND:                -1.124
REMARK  Name = 
REMARK  9 active torsions:
REMARK  status: ('A' for Active; 'I' for Inactive)
REMARK    1  A    between atoms: N_1  and  C_2
REMARK    2  A    between atoms: C_2  and  C_3
REMARK    3  A    between atoms: C_3  and  N_4
REMARK    4  A    between atoms: C_3  and  C_26
REMARK    5  A    between atoms: N_4  and  C_5
REMARK    6  A    between atoms: C_5  and  C_6
REMARK    7  A    between atoms: C_9  and  C_10
REMARK    8  A    between atoms: C_10  and  N_11
REMARK    9  A    between atoms: C_12  and  C_14
REMARK                            x       y       z     vdW  Elec       q    Type
REMARK                         _______ _______ _______ _____ _____    ______ ____
ROOT
ATOM      1  C   UNL     1      45.418   5.832  11.955  0.00  0.00    +0.000 A 
ATOM      2  C   UNL     1      45.843   5.194  13.128  0.00  0.00    +0.000 A 
ATOM      3  C   UNL     1      47.041   5.564  13.741  0.00  0.00    +0.000 A 
ATOM      4  C   UNL     1      47.841   6.570  13.185  0.00  0.00    +0.000 A 
ATOM      5  C   UNL     1      47.444   7.173  11.985  0.00  0.00    +0.000 A 
ATOM      6  C   UNL     1      46.240   6.814  11.382  0.00  0.00    +0.000 A 
ENDROOT
BRANCH   1   7
ATOM      7  C   UNL     1      44.102   5.480  11.295  0.00  0.00    +0.000 C 
BRANCH   7   8
ATOM      8  N   UNL     1      44.313   5.023   9.926  0.00  0.00    +0.000 NA
ATOM      9  H   UNL     1      43.624   5.476   9.329  0.00  0.00    +0.000 HD
BRANCH   8  10
ATOM     10  C   UNL     1      44.150   3.562   9.745  0.00  0.00    +0.000 C 
BRANCH  10  11
ATOM     11  C   UNL     1      45.206   3.031   8.761  0.00  0.00    +0.000 A 
ATOM     12  C   UNL     1      45.836   3.888   7.853  0.00  0.00    +0.000 A 
ATOM     13  C   UNL     1      46.774   3.372   6.966  0.00  0.00    +0.000 A 
ATOM     14  C   UNL     1      47.079   2.019   7.015  0.00  0.00    +0.000 A 
ATOM     15  C   UNL     1      46.426   1.237   7.952  0.00  0.00    +0.000 A 
ATOM     16  N   UNL     1      45.501   1.706   8.819  0.00  0.00    +0.000 NA
ENDBRANCH  10  11
BRANCH  10  17
ATOM     17  C   UNL     1      44.234   2.697  11.043  0.00  0.00    +0.000 C 
BRANCH  17  18
ATOM     18  N   UNL     1      42.960   2.143  11.533  0.00  0.00    +0.000 NA
ATOM     19  H   UNL     1      42.593   2.746  12.266  0.00  0.00    +0.000 HD
ATOM     20  H   UNL     1      43.124   1.229  11.952  0.00  0.00    +0.000 HD
ENDBRANCH  17  18
ENDBRANCH  10  17
ENDBRANCH   8  10
ENDBRANCH   7   8
ENDBRANCH   1   7
BRANCH   4  21
ATOM     21  C   UNL     1      49.136   6.967  13.832  0.00  0.00    +0.000 C 
BRANCH  21  22
ATOM     22  N   UNL     1      49.022   6.928  15.266  0.00  0.00    +0.000 N 
ATOM     23  C   UNL     1      50.139   6.924  16.058  0.00  0.00    +0.000 C 
ATOM     24  O   UNL     1      51.268   7.021  15.587  0.00  0.00    +0.000 OA
ATOM     25  H   UNL     1      48.126   6.643  15.651  0.00  0.00    +0.000 HD
BRANCH  23  26
ATOM     26  C   UNL     1      49.917   6.850  17.505  0.00  0.00    +0.000 A 
ATOM     27  C   UNL     1      50.227   7.946  18.298  0.00  0.00    +0.000 A 
ATOM     28  S   UNL     1      49.897   7.710  19.952  0.00  0.00    +0.000 S 
ATOM     29  C   UNL     1      49.367   6.117  19.676  0.00  0.00    +0.000 A 
ATOM     30  N   UNL     1      48.966   5.324  20.706  0.00  0.00    +0.000 NA
ATOM     31  C   UNL     1      48.614   4.133  20.358  0.00  0.00    +0.000 A 
ATOM     32  N   UNL     1      48.620   3.663  19.070  0.00  0.00    +0.000 N 
ATOM     33  C   UNL     1      48.987   4.435  17.993  0.00  0.00    +0.000 A 
ATOM     34  O   UNL     1      48.933   3.999  16.849  0.00  0.00    +0.000 OA
ATOM     35  C   UNL     1      49.413   5.783  18.336  0.00  0.00    +0.000 A 
ATOM     36  H   UNL     1      48.316   2.723  18.861  0.00  0.00    +0.000 HD
ENDBRANCH  23  26
ENDBRANCH  21  22
ENDBRANCH   4  21
TORSDOF 9
ENDMDL
MODEL 3
REMARK VINA RESULT:    -7.815      1.968      2.510
REMARK INTER + INTRA:         -12.822
REMARK INTER:                 -11.847
REMARK INTRA:                  -0.975
REMARK UNBOUND:                -1.124
REMARK  Name = 
REMARK  9 active torsions:
REMARK  status: ('A' for Active; 'I' for Inactive)
REMARK    1  A    between atoms: N_1  and  C_2
REMARK    2  A    between atoms: C_2  and  C_3
REMARK    3  A    between atoms: C_3  and  N_4
REMARK    4  A    between atoms: C_3  and  C_26
REMARK    5  A    between atoms: N_4  and  C_5
REMARK    6  A    between atoms: C_5  and  C_6
REMARK    7  A    between atoms: C_9  and  C_10
REMARK    8  A    between atoms: C_10  and  N_11
REMARK    9  A    between atoms: C_12  and  C_14
REMARK                            x       y       z     vdW  Elec       q    Type
REMARK                         _______ _______ _______ _____ _____    ______ ____
ROOT
ATOM      1  C   UNL     1      44.863   6.207  11.636  0.00  0.00    +0.000 A 
ATOM      2  C   UNL     1      44.828   7.593  11.841  0.00  0.00    +0.000 A 
ATOM      3  C   UNL     1      45.839   8.227  12.565  0.00  0.00    +0.000 A 
ATOM      4  C   UNL     1      46.897   7.484  13.105  0.00  0.00    +0.000 A 
ATOM      5  C   UNL     1      46.906   6.094  12.945  0.00  0.00    +0.000 A 
ATOM      6  C   UNL     1      45.905   5.463  12.210  0.00  0.00    +0.000 A 
ENDROOT
BRANCH   1   7
ATOM      7  C   UNL     1      43.802   5.502  10.818  0.00  0.00    +0.000 C 
BRANCH   7   8
ATOM      8  N   UNL     1      44.382   4.897   9.625  0.00  0.00    +0.000 NA
ATOM      9  H   UNL     1      43.922   5.295   8.809  0.00  0.00    +0.000 HD
BRANCH   8  10
ATOM     10  C   UNL     1      44.209   3.428   9.547  0.00  0.00    +0.000 C 
BRANCH  10  11
ATOM     11  C   UNL     1      45.256   2.823   8.598  0.00  0.00    +0.000 A 
ATOM     12  C   UNL     1      45.859   3.602   7.604  0.00  0.00    +0.000 A 
ATOM     13  C   UNL     1      46.791   3.018   6.751  0.00  0.00    +0.000 A 
ATOM     14  C   UNL     1      47.116   1.680   6.918  0.00  0.00    +0.000 A 
ATOM     15  C   UNL     1      46.489   0.978   7.934  0.00  0.00    +0.000 A 
ATOM     16  N   UNL     1      45.571   1.513   8.771  0.00  0.00    +0.000 NA
ENDBRANCH  10  11
BRANCH  10  17
ATOM     17  C   UNL     1      44.295   2.655  10.902  0.00  0.00    +0.000 C 
BRANCH  17  18
ATOM     18  N   UNL     1      43.020   2.145  11.436  0.00  0.00    +0.000 NA
ATOM     19  H   UNL     1      43.177   1.754  12.362  0.00  0.00    +0.000 HD
ATOM     20  H   UNL     1      42.682   1.387  10.846  0.00  0.00    +0.000 HD
ENDBRANCH  17  18
ENDBRANCH  10  17
ENDBRANCH   8  10
ENDBRANCH   7   8
ENDBRANCH   1   7
BRANCH   4  21
ATOM     21  C   UNL     1      47.983   8.157  13.893  0.00  0.00    +0.000 C 
BRANCH  21  22
ATOM     22  N   UNL     1      47.938   7.750  15.273  0.00  0.00    +0.000 N 
ATOM     23  C   UNL     1      48.927   6.965  15.804  0.00  0.00    +0.000 C 
ATOM     24  O   UNL     1      49.915   6.638  15.154  0.00  0.00    +0.000 OA
ATOM     25  H   UNL     1      47.047   7.835  15.752  0.00  0.00    +0.000 HD
BRANCH  23  26
ATOM     26  C   UNL     1      48.774   6.577  17.210  0.00  0.00    +0.000 A 
ATOM     27  C   UNL     1      49.075   5.278  17.594  0.00  0.00    +0.000 A 
ATOM     28  S   UNL     1      48.862   4.991  19.259  0.00  0.00    +0.000 S 
ATOM     29  C   UNL     1      48.320   6.582  19.521  0.00  0.00    +0.000 A 
ATOM     30  N   UNL     1      47.931   6.993  20.758  0.00  0.00    +0.000 NA
ATOM     31  C   UNL     1      47.518   8.214  20.809  0.00  0.00    +0.000 A 
ATOM     32  N   UNL     1      47.464   9.066  19.735  0.00  0.00    +0.000 N 
ATOM     33  C   UNL     1      47.873   8.705  18.473  0.00  0.00    +0.000 A 
ATOM     34  O   UNL     1      47.859   9.506  17.546  0.00  0.00    +0.000 OA
ATOM     35  C   UNL     1      48.330   7.329  18.359  0.00  0.00    +0.000 A 
ATOM     36  H   UNL     1      47.145  10.017  19.845  0.00  0.00    +0.000 HD
ENDBRANCH  23  26
ENDBRANCH  21  22
ENDBRANCH   4  21
TORSDOF 9
ENDMDL
MODEL 4
REMARK VINA RESULT:    -7.650      1.717      2.218
REMARK INTER + INTRA:         -12.575
REMARK INTER:                 -11.230
REMARK INTRA:                  -1.345
REMARK UNBOUND:                -1.124
REMARK  Name = 
REMARK  9 active torsions:
REMARK  status: ('A' for Active; 'I' for Inactive)
REMARK    1  A    between atoms: N_1  and  C_2
REMARK    2  A    between atoms: C_2  and  C_3
REMARK    3  A    between atoms: C_3  and  N_4
REMARK    4  A    between atoms: C_3  and  C_26
REMARK    5  A    between atoms: N_4  and  C_5
REMARK    6  A    between atoms: C_5  and  C_6
REMARK    7  A    between atoms: C_9  and  C_10
REMARK    8  A    between atoms: C_10  and  N_11
REMARK    9  A    between atoms: C_12  and  C_14
REMARK                            x       y       z     vdW  Elec       q    Type
REMARK                         _______ _______ _______ _____ _____    ______ ____
ROOT
ATOM      1  C   UNL     1      45.364   6.813  11.974  0.00  0.00    +0.000 A 
ATOM      2  C   UNL     1      45.304   8.110  12.502  0.00  0.00    +0.000 A 
ATOM      3  C   UNL     1      46.473   8.785  12.855  0.00  0.00    +0.000 A 
ATOM      4  C   UNL     1      47.722   8.171  12.697  0.00  0.00    +0.000 A 
ATOM      5  C   UNL     1      47.780   6.857  12.218  0.00  0.00    +0.000 A 
ATOM      6  C   UNL     1      46.614   6.189  11.851  0.00  0.00    +0.000 A 
ENDROOT
BRANCH   1   7
ATOM      7  C   UNL     1      44.114   6.077  11.542  0.00  0.00    +0.000 C 
BRANCH   7   8
ATOM      8  N   UNL     1      44.276   5.517  10.205  0.00  0.00    +0.000 NA
ATOM      9  H   UNL     1      43.624   5.988   9.581  0.00  0.00    +0.000 HD
BRANCH   8  10
ATOM     10  C   UNL     1      43.988   4.066  10.118  0.00  0.00    +0.000 C 
BRANCH  10  11
ATOM     11  C   UNL     1      44.954   3.395   9.129  0.00  0.00    +0.000 A 
ATOM     12  C   UNL     1      45.609   4.144   8.146  0.00  0.00    +0.000 A 
ATOM     13  C   UNL     1      46.464   3.502   7.255  0.00  0.00    +0.000 A 
ATOM     14  C   UNL     1      46.662   2.134   7.375  0.00  0.00    +0.000 A 
ATOM     15  C   UNL     1      45.990   1.463   8.383  0.00  0.00    +0.000 A 
ATOM     16  N   UNL     1      45.145   2.056   9.255  0.00  0.00    +0.000 NA
ENDBRANCH  10  11
BRANCH  10  17
ATOM     17  C   UNL     1      44.059   3.272  11.463  0.00  0.00    +0.000 C 
BRANCH  17  18
ATOM     18  N   UNL     1      43.059   2.204  11.634  0.00  0.00    +0.000 NA
ATOM     19  H   UNL     1      42.140   2.623  11.762  0.00  0.00    +0.000 HD
ATOM     20  H   UNL     1      43.266   1.676  12.480  0.00  0.00    +0.000 HD
ENDBRANCH  17  18
ENDBRANCH  10  17
ENDBRANCH   8  10
ENDBRANCH   7   8
ENDBRANCH   1   7
BRANCH   4  21
ATOM     21  C   UNL     1      48.984   8.886  13.084  0.00  0.00    +0.000 C 
BRANCH  21  22
ATOM     22  N   UNL     1      49.861   8.011  13.815  0.00  0.00    +0.000 N 
ATOM     23  C   UNL     1      50.207   8.288  15.110  0.00  0.00    +0.000 C 
ATOM     24  O   UNL     1      49.735   9.245  15.718  0.00  0.00    +0.000 OA
ATOM     25  H   UNL     1      50.410   7.349  13.274  0.00  0.00    +0.000 HD
BRANCH  23  26
ATOM     26  C   UNL     1      51.132   7.352  15.758  0.00  0.00    +0.000 A 
ATOM     27  C   UNL     1      52.499   7.512  15.578  0.00  0.00    +0.000 A 
ATOM     28  S   UNL     1      53.438   6.359  16.408  0.00  0.00    +0.000 S 
ATOM     29  C   UNL     1      52.050   5.576  17.004  0.00  0.00    +0.000 A 
ATOM     30  N   UNL     1      52.153   4.461  17.777  0.00  0.00    +0.000 NA
ATOM     31  C   UNL     1      51.022   3.956  18.139  0.00  0.00    +0.000 A 
ATOM     32  N   UNL     1      49.795   4.468  17.803  0.00  0.00    +0.000 N 
ATOM     33  C   UNL     1      49.641   5.608  17.050  0.00  0.00    +0.000 A 
ATOM     34  O   UNL     1      48.531   6.068  16.811  0.00  0.00    +0.000 OA
ATOM     35  C   UNL     1      50.888   6.206  16.600  0.00  0.00    +0.000 A 
ATOM     36  H   UNL     1      48.946   4.034  18.132  0.00  0.00    +0.000 HD
ENDBRANCH  23  26
ENDBRANCH  21  22
ENDBRANCH   4  21
TORSDOF 9
ENDMDL
MODEL 5
REMARK VINA RESULT:    -7.528      3.071      4.155
REMARK INTER + INTRA:         -12.393
REMARK INTER:                 -11.166
REMARK INTRA:                  -1.227
REMARK UNBOUND:                -1.124
REMARK  Name = 
REMARK  9 active torsions:
REMARK  status: ('A' for Active; 'I' for Inactive)
REMARK    1  A    between atoms: N_1  and  C_2
REMARK    2  A    between atoms: C_2  and  C_3
REMARK    3  A    between atoms: C_3  and  N_4
REMARK    4  A    between atoms: C_3  and  C_26
REMARK    5  A    between atoms: N_4  and  C_5
REMARK    6  A    between atoms: C_5  and  C_6
REMARK    7  A    between atoms: C_9  and  C_10
REMARK    8  A    between atoms: C_10  and  N_11
REMARK    9  A    between atoms: C_12  and  C_14
REMARK                            x       y       z     vdW  Elec       q    Type
REMARK                         _______ _______ _______ _____ _____    ______ ____
ROOT
ATOM      1  C   UNL     1      47.133   4.960  14.309  0.00  0.00    +0.000 A 
ATOM      2  C   UNL     1      47.873   6.143  14.170  0.00  0.00    +0.000 A 
ATOM      3  C   UNL     1      48.647   6.622  15.229  0.00  0.00    +0.000 A 
ATOM      4  C   UNL     1      48.685   5.933  16.448  0.00  0.00    +0.000 A 
ATOM      5  C   UNL     1      47.907   4.780  16.605  0.00  0.00    +0.000 A 
ATOM      6  C   UNL     1      47.147   4.294  15.544  0.00  0.00    +0.000 A 
ENDROOT
BRANCH   1   7
ATOM      7  C   UNL     1      46.321   4.396  13.163  0.00  0.00    +0.000 C 
BRANCH   7   8
ATOM      8  N   UNL     1      45.952   5.447  12.221  0.00  0.00    +0.000 NA
ATOM      9  H   UNL     1      45.871   6.322  12.734  0.00  0.00    +0.000 HD
BRANCH   8  10
ATOM     10  C   UNL     1      44.655   5.220  11.541  0.00  0.00    +0.000 C 
BRANCH  10  11
ATOM     11  C   UNL     1      44.857   4.336  10.301  0.00  0.00    +0.000 A 
ATOM     12  C   UNL     1      45.517   4.826   9.169  0.00  0.00    +0.000 A 
ATOM     13  C   UNL     1      45.668   4.004   8.057  0.00  0.00    +0.000 A 
ATOM     14  C   UNL     1      45.176   2.707   8.103  0.00  0.00    +0.000 A 
ATOM     15  C   UNL     1      44.549   2.287   9.264  0.00  0.00    +0.000 A 
ATOM     16  N   UNL     1      44.376   3.066  10.356  0.00  0.00    +0.000 NA
ENDBRANCH  10  11
BRANCH  10  17
ATOM     17  C   UNL     1      43.531   4.570  12.410  0.00  0.00    +0.000 C 
BRANCH  17  18
ATOM     18  N   UNL     1      42.770   5.490  13.274  0.00  0.00    +0.000 NA
ATOM     19  H   UNL     1      43.412   5.963  13.906  0.00  0.00    +0.000 HD
ATOM     20  H   UNL     1      42.122   4.958  13.852  0.00  0.00    +0.000 HD
ENDBRANCH  17  18
ENDBRANCH  10  17
ENDBRANCH   8  10
ENDBRANCH   7   8
ENDBRANCH   1   7
BRANCH   4  21
ATOM     21  C   UNL     1      49.507   6.446  17.594  0.00  0.00    +0.000 C 
BRANCH  21  22
ATOM     22  N   UNL     1      50.465   5.459  18.017  0.00  0.00    +0.000 N 
ATOM     23  C   UNL     1      51.696   5.378  17.424  0.00  0.00    +0.000 C 
ATOM     24  O   UNL     1      52.056   6.177  16.565  0.00  0.00    +0.000 OA
ATOM     25  H   UNL     1      50.113   4.679  18.565  0.00  0.00    +0.000 HD
BRANCH  23  26
ATOM     26  C   UNL     1      52.588   4.317  17.904  0.00  0.00    +0.000 A 
ATOM     27  C   UNL     1      53.803   4.659  18.481  0.00  0.00    +0.000 A 
ATOM     28  S   UNL     1      54.714   3.318  19.003  0.00  0.00    +0.000 S 
ATOM     29  C   UNL     1      53.536   2.228  18.437  0.00  0.00    +0.000 A 
ATOM     30  N   UNL     1      53.719   0.884  18.544  0.00  0.00    +0.000 NA
ATOM     31  C   UNL     1      52.760   0.174  18.052  0.00  0.00    +0.000 A 
ATOM     32  N   UNL     1      51.630   0.687  17.468  0.00  0.00    +0.000 N 
ATOM     33  C   UNL     1      51.388   2.036  17.363  0.00  0.00    +0.000 A 
ATOM     34  O   UNL     1      50.345   2.460  16.880  0.00  0.00    +0.000 OA
ATOM     35  C   UNL     1      52.450   2.881  17.886  0.00  0.00    +0.000 A 
ATOM     36  H   UNL     1      50.908   0.076  17.115  0.00  0.00    +0.000 HD
ENDBRANCH  23  26
ENDBRANCH  21  22
ENDBRANCH   4  21
TORSDOF 9
ENDMDL
MODEL 6
REMARK VINA RESULT:    -7.298      1.756      2.546
REMARK INTER + INTRA:         -12.047
REMARK INTER:                 -11.224
REMARK INTRA:                  -0.823
REMARK UNBOUND:                -1.124
REMARK  Name = 
REMARK  9 active torsions:
REMARK  status: ('A' for Active; 'I' for Inactive)
REMARK    1  A    between atoms: N_1  and  C_2
REMARK    2  A    between atoms: C_2  and  C_3
REMARK    3  A    between atoms: C_3  and  N_4
REMARK    4  A    between atoms: C_3  and  C_26
REMARK    5  A    between atoms: N_4  and  C_5
REMARK    6  A    between atoms: C_5  and  C_6
REMARK    7  A    between atoms: C_9  and  C_10
REMARK    8  A    between atoms: C_10  and  N_11
REMARK    9  A    between atoms: C_12  and  C_14
REMARK                            x       y       z     vdW  Elec       q    Type
REMARK                         _______ _______ _______ _____ _____    ______ ____
ROOT
ATOM      1  C   UNL     1      44.776   5.745  11.547  0.00  0.00    +0.000 A 
ATOM      2  C   UNL     1      44.931   5.659  12.937  0.00  0.00    +0.000 A 
ATOM      3  C   UNL     1      46.077   6.164  13.554  0.00  0.00    +0.000 A 
ATOM      4  C   UNL     1      47.093   6.753  12.790  0.00  0.00    +0.000 A 
ATOM      5  C   UNL     1      46.962   6.793  11.396  0.00  0.00    +0.000 A 
ATOM      6  C   UNL     1      45.812   6.304  10.783  0.00  0.00    +0.000 A 
ENDROOT
BRANCH   1   7
ATOM      7  C   UNL     1      43.524   5.245  10.859  0.00  0.00    +0.000 C 
BRANCH   7   8
ATOM      8  N   UNL     1      43.830   4.740   9.526  0.00  0.00    +0.000 NA
ATOM      9  H   UNL     1      43.034   4.932   8.921  0.00  0.00    +0.000 HD
BRANCH   8  10
ATOM     10  C   UNL     1      44.070   3.279   9.474  0.00  0.00    +0.000 C 
BRANCH  10  11
ATOM     11  C   UNL     1      45.246   2.970   8.533  0.00  0.00    +0.000 A 
ATOM     12  C   UNL     1      45.806   1.690   8.479  0.00  0.00    +0.000 A 
ATOM     13  C   UNL     1      46.880   1.449   7.629  0.00  0.00    +0.000 A 
ATOM     14  C   UNL     1      47.361   2.483   6.837  0.00  0.00    +0.000 A 
ATOM     15  C   UNL     1      46.745   3.719   6.934  0.00  0.00    +0.000 A 
ATOM     16  N   UNL     1      45.707   3.987   7.759  0.00  0.00    +0.000 NA
ENDBRANCH  10  11
BRANCH  10  17
ATOM     17  C   UNL     1      44.363   2.584  10.843  0.00  0.00    +0.000 C 
BRANCH  17  18
ATOM     18  N   UNL     1      43.210   1.945  11.501  0.00  0.00    +0.000 NA
ATOM     19  H   UNL     1      43.528   1.124  12.011  0.00  0.00    +0.000 HD
ATOM     20  H   UNL     1      42.550   1.621  10.796  0.00  0.00    +0.000 HD
ENDBRANCH  17  18
ENDBRANCH  10  17
ENDBRANCH   8  10
ENDBRANCH   7   8
ENDBRANCH   1   7
BRANCH   4  21
ATOM     21  C   UNL     1      48.333   7.289  13.444  0.00  0.00    +0.000 C 
BRANCH  21  22
ATOM     22  N   UNL     1      48.729   6.453  14.546  0.00  0.00    +0.000 N 
ATOM     23  C   UNL     1      48.889   6.978  15.801  0.00  0.00    +0.000 C 
ATOM     24  O   UNL     1      48.638   8.154  16.049  0.00  0.00    +0.000 OA
ATOM     25  H   UNL     1      49.132   5.549  14.320  0.00  0.00    +0.000 HD
BRANCH  23  26
ATOM     26  C   UNL     1      49.326   6.051  16.850  0.00  0.00    +0.000 A 
ATOM     27  C   UNL     1      48.374   5.413  17.633  0.00  0.00    +0.000 A 
ATOM     28  S   UNL     1      49.040   4.357  18.792  0.00  0.00    +0.000 S 
ATOM     29  C   UNL     1      50.626   4.747  18.318  0.00  0.00    +0.000 A 
ATOM     30  N   UNL     1      51.699   4.201  18.952  0.00  0.00    +0.000 NA
ATOM     31  C   UNL     1      52.842   4.603  18.508  0.00  0.00    +0.000 A 
ATOM     32  N   UNL     1      53.011   5.498  17.483  0.00  0.00    +0.000 N 
ATOM     33  C   UNL     1      51.958   6.053  16.795  0.00  0.00    +0.000 A 
ATOM     34  O   UNL     1      52.145   6.812  15.850  0.00  0.00    +0.000 OA
ATOM     35  C   UNL     1      50.646   5.647  17.270  0.00  0.00    +0.000 A 
ATOM     36  H   UNL     1      53.934   5.760  17.172  0.00  0.00    +0.000 HD
ENDBRANCH  23  26
ENDBRANCH  21  22
ENDBRANCH   4  21
TORSDOF 9
ENDMDL
MODEL 7
REMARK VINA RESULT:    -7.144      3.079      4.936
REMARK INTER + INTRA:         -11.818
REMARK INTER:                 -10.583
REMARK INTRA:                  -1.234
REMARK UNBOUND:                -1.124
REMARK  Name = 
REMARK  9 active torsions:
REMARK  status: ('A' for Active; 'I' for Inactive)
REMARK    1  A    between atoms: N_1  and  C_2
REMARK    2  A    between atoms: C_2  and  C_3
REMARK    3  A    between atoms: C_3  and  N_4
REMARK    4  A    between atoms: C_3  and  C_26
REMARK    5  A    between atoms: N_4  and  C_5
REMARK    6  A    between atoms: C_5  and  C_6
REMARK    7  A    between atoms: C_9  and  C_10
REMARK    8  A    between atoms: C_10  and  N_11
REMARK    9  A    between atoms: C_12  and  C_14
REMARK                            x       y       z     vdW  Elec       q    Type
REMARK                         _______ _______ _______ _____ _____    ______ ____
ROOT
ATOM      1  C   UNL     1      47.327   5.897  14.126  0.00  0.00    +0.000 A 
ATOM      2  C   UNL     1      46.758   4.616  14.080  0.00  0.00    +0.000 A 
ATOM      3  C   UNL     1      46.922   3.731  15.146  0.00  0.00    +0.000 A 
ATOM      4  C   UNL     1      47.667   4.106  16.271  0.00  0.00    +0.000 A 
ATOM      5  C   UNL     1      48.279   5.365  16.297  0.00  0.00    +0.000 A 
ATOM      6  C   UNL     1      48.101   6.255  15.240  0.00  0.00    +0.000 A 
ENDROOT
BRANCH   1   7
ATOM      7  C   UNL     1      47.127   6.892  13.003  0.00  0.00    +0.000 C 
BRANCH   7   8
ATOM      8  N   UNL     1      47.049   6.213  11.715  0.00  0.00    +0.000 NA
ATOM      9  H   UNL     1      47.790   6.573  11.118  0.00  0.00    +0.000 HD
BRANCH   8  10
ATOM     10  C   UNL     1      45.771   6.427  10.995  0.00  0.00    +0.000 C 
BRANCH  10  11
ATOM     11  C   UNL     1      45.351   5.138  10.271  0.00  0.00    +0.000 A 
ATOM     12  C   UNL     1      44.742   4.090  10.967  0.00  0.00    +0.000 A 
ATOM     13  C   UNL     1      44.389   2.930  10.284  0.00  0.00    +0.000 A 
ATOM     14  C   UNL     1      44.633   2.848   8.920  0.00  0.00    +0.000 A 
ATOM     15  C   UNL     1      45.225   3.933   8.297  0.00  0.00    +0.000 A 
ATOM     16  N   UNL     1      45.590   5.068   8.935  0.00  0.00    +0.000 NA
ENDBRANCH  10  11
BRANCH  10  17
ATOM     17  C   UNL     1      44.563   6.896  11.869  0.00  0.00    +0.000 C 
BRANCH  17  18
ATOM     18  N   UNL     1      43.367   7.338  11.132  0.00  0.00    +0.000 NA
ATOM     19  H   UNL     1      42.659   6.608  11.174  0.00  0.00    +0.000 HD
ATOM     20  H   UNL     1      43.601   7.471  10.149  0.00  0.00    +0.000 HD
ENDBRANCH  17  18
ENDBRANCH  10  17
ENDBRANCH   8  10
ENDBRANCH   7   8
ENDBRANCH   1   7
BRANCH   4  21
ATOM     21  C   UNL     1      47.857   3.155  17.418  0.00  0.00    +0.000 C 
BRANCH  21  22
ATOM     22  N   UNL     1      49.252   3.026  17.747  0.00  0.00    +0.000 N 
ATOM     23  C   UNL     1      50.070   2.205  17.018  0.00  0.00    +0.000 C 
ATOM     24  O   UNL     1      49.670   1.606  16.025  0.00  0.00    +0.000 OA
ATOM     25  H   UNL     1      49.542   3.344  18.667  0.00  0.00    +0.000 HD
BRANCH  23  26
ATOM     26  C   UNL     1      51.468   2.118  17.452  0.00  0.00    +0.000 A 
ATOM     27  C   UNL     1      52.040   0.870  17.660  0.00  0.00    +0.000 A 
ATOM     28  S   UNL     1      53.672   0.937  18.144  0.00  0.00    +0.000 S 
ATOM     29  C   UNL     1      53.662   2.638  18.134  0.00  0.00    +0.000 A 
ATOM     30  N   UNL     1      54.767   3.345  18.495  0.00  0.00    +0.000 NA
ATOM     31  C   UNL     1      54.613   4.626  18.467  0.00  0.00    +0.000 A 
ATOM     32  N   UNL     1      53.456   5.266  18.105  0.00  0.00    +0.000 N 
ATOM     33  C   UNL     1      52.324   4.595  17.705  0.00  0.00    +0.000 A 
ATOM     34  O   UNL     1      51.322   5.199  17.339  0.00  0.00    +0.000 OA
ATOM     35  C   UNL     1      52.440   3.146  17.738  0.00  0.00    +0.000 A 
ATOM     36  H   UNL     1      53.405   6.274  18.089  0.00  0.00    +0.000 HD
ENDBRANCH  23  26
ENDBRANCH  21  22
ENDBRANCH   4  21
TORSDOF 9
ENDMDL
MODEL 8
REMARK VINA RESULT:    -6.997      2.864      8.397
REMARK INTER + INTRA:         -11.597
REMARK INTER:                  -9.720
REMARK INTRA:                  -1.877
REMARK UNBOUND:                -1.124
REMARK  Name = 
REMARK  9 active torsions:
REMARK  status: ('A' for Active; 'I' for Inactive)
REMARK    1  A    between atoms: N_1  and  C_2
REMARK    2  A    between atoms: C_2  and  C_3
REMARK    3  A    between atoms: C_3  and  N_4
REMARK    4  A    between atoms: C_3  and  C_26
REMARK    5  A    between atoms: N_4  and  C_5
REMARK    6  A    between atoms: C_5  and  C_6
REMARK    7  A    between atoms: C_9  and  C_10
REMARK    8  A    between atoms: C_10  and  N_11
REMARK    9  A    between atoms: C_12  and  C_14
REMARK                            x       y       z     vdW  Elec       q    Type
REMARK                         _______ _______ _______ _____ _____    ______ ____
ROOT
ATOM      1  C   UNL     1      49.019   8.125  16.059  0.00  0.00    +0.000 A 
ATOM      2  C   UNL     1      49.367   7.010  15.285  0.00  0.00    +0.000 A 
ATOM      3  C   UNL     1      48.958   6.917  13.954  0.00  0.00    +0.000 A 
ATOM      4  C   UNL     1      48.184   7.932  13.378  0.00  0.00    +0.000 A 
ATOM      5  C   UNL     1      47.792   9.022  14.164  0.00  0.00    +0.000 A 
ATOM      6  C   UNL     1      48.214   9.122  15.487  0.00  0.00    +0.000 A 
ENDROOT
BRANCH   1   7
ATOM      7  C   UNL     1      49.487   8.272  17.491  0.00  0.00    +0.000 C 
BRANCH   7   8
ATOM      8  N   UNL     1      48.606   7.550  18.402  0.00  0.00    +0.000 NA
ATOM      9  H   UNL     1      48.325   8.187  19.145  0.00  0.00    +0.000 HD
BRANCH   8  10
ATOM     10  C   UNL     1      49.238   6.378  19.052  0.00  0.00    +0.000 C 
BRANCH  10  11
ATOM     11  C   UNL     1      48.836   5.089  18.318  0.00  0.00    +0.000 A 
ATOM     12  C   UNL     1      47.530   4.905  17.852  0.00  0.00    +0.000 A 
ATOM     13  C   UNL     1      47.196   3.719  17.206  0.00  0.00    +0.000 A 
ATOM     14  C   UNL     1      48.173   2.751  17.021  0.00  0.00    +0.000 A 
ATOM     15  C   UNL     1      49.448   3.011  17.495  0.00  0.00    +0.000 A 
ATOM     16  N   UNL     1      49.800   4.148  18.137  0.00  0.00    +0.000 NA
ENDBRANCH  10  11
BRANCH  10  17
ATOM     17  C   UNL     1      50.797   6.404  19.146  0.00  0.00    +0.000 C 
BRANCH  17  18
ATOM     18  N   UNL     1      51.374   5.930  20.416  0.00  0.00    +0.000 NA
ATOM     19  H   UNL     1      52.259   6.407  20.580  0.00  0.00    +0.000 HD
ATOM     20  H   UNL     1      51.580   4.935  20.347  0.00  0.00    +0.000 HD
ENDBRANCH  17  18
ENDBRANCH  10  17
ENDBRANCH   8  10
ENDBRANCH   7   8
ENDBRANCH   1   7
BRANCH   4  21
ATOM     21  C   UNL     1      47.731   7.834  11.949  0.00  0.00    +0.000 C 
BRANCH  21  22
ATOM     22  N   UNL     1      47.008   6.610  11.727  0.00  0.00    +0.000 N 
ATOM     23  C   UNL     1      45.641   6.581  11.798  0.00  0.00    +0.000 C 
ATOM     24  O   UNL     1      44.979   7.598  11.984  0.00  0.00    +0.000 OA
ATOM     25  H   UNL     1      47.537   5.745  11.779  0.00  0.00    +0.000 HD
BRANCH  23  26
ATOM     26  C   UNL     1      45.000   5.279  11.588  0.00  0.00    +0.000 A 
ATOM     27  C   UNL     1      44.302   4.687  12.631  0.00  0.00    +0.000 A 
ATOM     28  S   UNL     1      43.602   3.189  12.223  0.00  0.00    +0.000 S 
ATOM     29  C   UNL     1      44.242   3.256  10.649  0.00  0.00    +0.000 A 
ATOM     30  N   UNL     1      44.039   2.239   9.768  0.00  0.00    +0.000 NA
ATOM     31  C   UNL     1      44.601   2.408   8.619  0.00  0.00    +0.000 A 
ATOM     32  N   UNL     1      45.344   3.506   8.267  0.00  0.00    +0.000 N 
ATOM     33  C   UNL     1      45.551   4.571   9.112  0.00  0.00    +0.000 A 
ATOM     34  O   UNL     1      46.178   5.559   8.749  0.00  0.00    +0.000 OA
ATOM     35  C   UNL     1      44.954   4.420  10.429  0.00  0.00    +0.000 A 
ATOM     36  H   UNL     1      45.745   3.586   7.345  0.00  0.00    +0.000 HD
ENDBRANCH  23  26
ENDBRANCH  21  22
ENDBRANCH   4  21
TORSDOF 9
ENDMDL
MODEL 9
REMARK VINA RESULT:    -6.951      3.943      5.358
REMARK INTER + INTRA:         -11.529
REMARK INTER:                 -10.705
REMARK INTRA:                  -0.825
REMARK UNBOUND:                -1.124
REMARK  Name = 
REMARK  9 active torsions:
REMARK  status: ('A' for Active; 'I' for Inactive)
REMARK    1  A    between atoms: N_1  and  C_2
REMARK    2  A    between atoms: C_2  and  C_3
REMARK    3  A    between atoms: C_3  and  N_4
REMARK    4  A    between atoms: C_3  and  C_26
REMARK    5  A    between atoms: N_4  and  C_5
REMARK    6  A    between atoms: C_5  and  C_6
REMARK    7  A    between atoms: C_9  and  C_10
REMARK    8  A    between atoms: C_10  and  N_11
REMARK    9  A    between atoms: C_12  and  C_14
REMARK                            x       y       z     vdW  Elec       q    Type
REMARK                         _______ _______ _______ _____ _____    ______ ____
ROOT
ATOM      1  C   UNL     1      45.380   5.712  11.909  0.00  0.00    +0.000 A 
ATOM      2  C   UNL     1      45.739   5.097  13.116  0.00  0.00    +0.000 A 
ATOM      3  C   UNL     1      46.904   5.476  13.784  0.00  0.00    +0.000 A 
ATOM      4  C   UNL     1      47.736   6.469  13.251  0.00  0.00    +0.000 A 
ATOM      5  C   UNL     1      47.406   7.047  12.020  0.00  0.00    +0.000 A 
ATOM      6  C   UNL     1      46.235   6.680  11.361  0.00  0.00    +0.000 A 
ENDROOT
BRANCH   1   7
ATOM      7  C   UNL     1      44.099   5.350  11.187  0.00  0.00    +0.000 C 
BRANCH   7   8
ATOM      8  N   UNL     1      44.371   4.965   9.808  0.00  0.00    +0.000 NA
ATOM      9  H   UNL     1      43.713   5.453   9.204  0.00  0.00    +0.000 HD
BRANCH   8  10
ATOM     10  C   UNL     1      44.210   3.516   9.542  0.00  0.00    +0.000 C 
BRANCH  10  11
ATOM     11  C   UNL     1      45.277   3.041   8.543  0.00  0.00    +0.000 A 
ATOM     12  C   UNL     1      45.764   1.730   8.581  0.00  0.00    +0.000 A 
ATOM     13  C   UNL     1      46.741   1.338   7.672  0.00  0.00    +0.000 A 
ATOM     14  C   UNL     1      47.199   2.253   6.734  0.00  0.00    +0.000 A 
ATOM     15  C   UNL     1      46.658   3.527   6.748  0.00  0.00    +0.000 A 
ATOM     16  N   UNL     1      45.716   3.942   7.625  0.00  0.00    +0.000 NA
ENDBRANCH  10  11
BRANCH  10  17
ATOM     17  C   UNL     1      44.278   2.579  10.791  0.00  0.00    +0.000 C 
BRANCH  17  18
ATOM     18  N   UNL     1      42.987   2.232  11.408  0.00  0.00    +0.000 NA
ATOM     19  H   UNL     1      42.703   1.307  11.092  0.00  0.00    +0.000 HD
ATOM     20  H   UNL     1      42.272   2.886  11.096  0.00  0.00    +0.000 HD
ENDBRANCH  17  18
ENDBRANCH  10  17
ENDBRANCH   8  10
ENDBRANCH   7   8
ENDBRANCH   1   7
BRANCH   4  21
ATOM     21  C   UNL     1      48.997   6.875  13.958  0.00  0.00    +0.000 C 
BRANCH  21  22
ATOM     22  N   UNL     1      50.003   7.281  13.012  0.00  0.00    +0.000 N 
ATOM     23  C   UNL     1      50.688   8.455  13.180  0.00  0.00    +0.000 C 
ATOM     24  O   UNL     1      50.526   9.166  14.167  0.00  0.00    +0.000 OA
ATOM     25  H   UNL     1      49.999   6.821  12.107  0.00  0.00    +0.000 HD
BRANCH  23  26
ATOM     26  C   UNL     1      51.670   8.795  12.145  0.00  0.00    +0.000 A 
ATOM     27  C   UNL     1      51.234   9.347  10.948  0.00  0.00    +0.000 A 
ATOM     28  S   UNL     1      52.494   9.702   9.859  0.00  0.00    +0.000 S 
ATOM     29  C   UNL     1      53.667   9.092  10.931  0.00  0.00    +0.000 A 
ATOM     30  N   UNL     1      54.983   9.067  10.587  0.00  0.00    +0.000 NA
ATOM     31  C   UNL     1      55.758   8.556  11.482  0.00  0.00    +0.000 A 
ATOM     32  N   UNL     1      55.339   8.071  12.694  0.00  0.00    +0.000 N 
ATOM     33  C   UNL     1      54.025   8.102  13.098  0.00  0.00    +0.000 A 
ATOM     34  O   UNL     1      53.691   7.707  14.209  0.00  0.00    +0.000 OA
ATOM     35  C   UNL     1      53.105   8.652  12.114  0.00  0.00    +0.000 A 
ATOM     36  H   UNL     1      56.000   7.697  13.359  0.00  0.00    +0.000 HD
ENDBRANCH  23  26
ENDBRANCH  21  22
ENDBRANCH   4  21
TORSDOF 9
ENDMDL
