MODEL 1
REMARK VINA RESULT:    -7.174      0.000      0.000
REMARK INTER + INTRA:         -11.193
REMARK INTER:                 -10.320
REMARK INTRA:                  -0.874
REMARK UNBOUND:                -0.874
REMARK  Name = 
REMARK  10 active torsions:
REMARK  status: ('A' for Active; 'I' for Inactive)
REMARK    1  A    between atoms: C_1  and  O_2
REMARK    2  A    between atoms: O_2  and  C_3
REMARK    3  A    between atoms: C_3  and  C_5
REMARK    4  A    between atoms: C_8  and  N_9
REMARK    5  A    between atoms: N_9  and  C_10
REMARK    6  A    between atoms: C_10  and  C_11
REMARK    7  A    between atoms: C_11  and  C_12
REMARK    8  A    between atoms: C_11  and  C_13
REMARK    9  A    between atoms: C_16  and  C_17
REMARK   10  A    between atoms: C_17  and  N_18
REMARK                            x       y       z     vdW  Elec       q    Type
REMARK                         _______ _______ _______ _____ _____    ______ ____
ROOT
ATOM      1  C   UNL     1      45.114   3.281  12.127  0.00  0.00    +0.000 C 
ENDROOT
BRANCH   1   2
ATOM      2  N   UNL     1      45.032   4.521  12.913  0.00  0.00    +0.000 N 
ATOM      3  H   UNL     1      44.158   5.024  12.773  0.00  0.00    +0.000 HD
BRANCH   2   7
ATOM      4  C   UNL     1      48.459   6.903  12.884  0.00  0.00    +0.000 A 
ATOM      5  C   UNL     1      47.542   7.073  11.854  0.00  0.00    +0.000 A 
ATOM      6  C   UNL     1      46.373   6.307  11.864  0.00  0.00    +0.000 A 
ATOM      7  C   UNL     1      46.121   5.403  12.898  0.00  0.00    +0.000 A 
ATOM      8  C   UNL     1      47.122   5.305  13.872  0.00  0.00    +0.000 A 
ATOM      9  N   UNL     1      48.263   6.033  13.907  0.00  0.00    +0.000 NA
BRANCH   4  10
ATOM     10  C   UNL     1      49.741   7.676  12.859  0.00  0.00    +0.000 C 
ATOM     11  O   UNL     1      50.464   7.827  13.834  0.00  0.00    +0.000 OA
BRANCH  10  13
ATOM     12  C   UNL     1      51.159   7.741  10.996  0.00  0.00    +0.000 C 
ATOM     13  O   UNL     1      49.957   8.180  11.621  0.00  0.00    +0.000 OA
ENDBRANCH  10  13
ENDBRANCH   4  10
ENDBRANCH   2   7
ENDBRANCH   1   2
BRANCH   1  14
ATOM     14  C   UNL     1      44.187   3.326  10.886  0.00  0.00    +0.000 C 
ATOM     15  C   UNL     1      43.363   4.620  10.811  0.00  0.00    +0.000 C 
BRANCH  14  16
ATOM     16  C   UNL     1      44.972   3.146   9.588  0.00  0.00    +0.000 A 
ATOM     17  C   UNL     1      45.360   4.263   8.836  0.00  0.00    +0.000 A 
ATOM     18  C   UNL     1      46.134   4.118   7.677  0.00  0.00    +0.000 A 
ATOM     19  C   UNL     1      46.534   2.850   7.237  0.00  0.00    +0.000 A 
ATOM     20  C   UNL     1      46.131   1.732   7.976  0.00  0.00    +0.000 A 
ATOM     21  C   UNL     1      45.362   1.876   9.135  0.00  0.00    +0.000 A 
BRANCH  19  22
ATOM     22  C   UNL     1      47.355   2.682   5.981  0.00  0.00    +0.000 C 
BRANCH  22  23
ATOM     23  N   UNL     1      48.425   1.705   6.152  0.00  0.00    +0.000 NA
ATOM     24  H   UNL     1      48.338   1.282   7.075  0.00  0.00    +0.000 HD
ATOM     25  H   UNL     1      49.321   2.187   6.141  0.00  0.00    +0.000 HD
ENDBRANCH  22  23
ENDBRANCH  19  22
ENDBRANCH  14  16
ENDBRANCH   1  14
TORSDOF 8
ENDMDL
MODEL 2
REMARK VINA RESULT:    -7.154      1.254      1.672
REMARK INTER + INTRA:         -11.165
REMARK INTER:                 -10.489
REMARK INTRA:                  -0.676
REMARK UNBOUND:                -0.874
REMARK  Name = 
REMARK  10 active torsions:
REMARK  status: ('A' for Active; 'I' for Inactive)
REMARK    1  A    between atoms: C_1  and  O_2
REMARK    2  A    between atoms: O_2  and  C_3
REMARK    3  A    between atoms: C_3  and  C_5
REMARK    4  A    between atoms: C_8  and  N_9
REMARK    5  A    between atoms: N_9  and  C_10
REMARK    6  A    between atoms: C_10  and  C_11
REMARK    7  A    between atoms: C_11  and  C_12
REMARK    8  A    between atoms: C_11  and  C_13
REMARK    9  A    between atoms: C_16  and  C_17
REMARK   10  A    between atoms: C_17  and  N_18
REMARK                            x       y       z     vdW  Elec       q    Type
REMARK                         _______ _______ _______ _____ _____    ______ ____
ROOT
ATOM      1  C   UNL     1      44.957   3.246  12.100  0.00  0.00    +0.000 C 
ENDROOT
BRANCH   1   2
ATOM      2  N   UNL     1      44.717   4.302  13.095  0.00  0.00    +0.000 N 
ATOM      3  H   UNL     1      43.898   4.868  12.885  0.00  0.00    +0.000 HD
BRANCH   2   7
ATOM      4  C   UNL     1      48.101   6.478  14.206  0.00  0.00    +0.000 A 
ATOM      5  C   UNL     1      47.227   7.058  13.294  0.00  0.00    +0.000 A 
ATOM      6  C   UNL     1      46.071   6.358  12.935  0.00  0.00    +0.000 A 
ATOM      7  C   UNL     1      45.791   5.110  13.494  0.00  0.00    +0.000 A 
ATOM      8  C   UNL     1      46.750   4.618  14.387  0.00  0.00    +0.000 A 
ATOM      9  N   UNL     1      47.876   5.266  14.770  0.00  0.00    +0.000 NA
BRANCH   4  10
ATOM     10  C   UNL     1      49.369   7.191  14.559  0.00  0.00    +0.000 C 
ATOM     11  O   UNL     1      49.719   8.248  14.053  0.00  0.00    +0.000 OA
BRANCH  10  13
ATOM     12  C   UNL     1      50.659   7.275  16.512  0.00  0.00    +0.000 C 
ATOM     13  O   UNL     1      50.056   6.488  15.491  0.00  0.00    +0.000 OA
ENDBRANCH  10  13
ENDBRANCH   4  10
ENDBRANCH   2   7
ENDBRANCH   1   2
BRANCH   1  14
ATOM     14  C   UNL     1      44.086   3.443  10.833  0.00  0.00    +0.000 C 
ATOM     15  C   UNL     1      43.410   4.821  10.790  0.00  0.00    +0.000 C 
BRANCH  14  16
ATOM     16  C   UNL     1      44.894   3.230   9.555  0.00  0.00    +0.000 A 
ATOM     17  C   UNL     1      45.315   4.330   8.794  0.00  0.00    +0.000 A 
ATOM     18  C   UNL     1      46.109   4.155   7.652  0.00  0.00    +0.000 A 
ATOM     19  C   UNL     1      46.497   2.874   7.239  0.00  0.00    +0.000 A 
ATOM     20  C   UNL     1      46.060   1.773   7.987  0.00  0.00    +0.000 A 
ATOM     21  C   UNL     1      45.271   1.948   9.128  0.00  0.00    +0.000 A 
BRANCH  19  22
ATOM     22  C   UNL     1      47.339   2.673   6.003  0.00  0.00    +0.000 C 
BRANCH  22  23
ATOM     23  N   UNL     1      48.455   1.764   6.241  0.00  0.00    +0.000 NA
ATOM     24  H   UNL     1      48.936   1.596   5.358  0.00  0.00    +0.000 HD
ATOM     25  H   UNL     1      48.092   0.863   6.546  0.00  0.00    +0.000 HD
ENDBRANCH  22  23
ENDBRANCH  19  22
ENDBRANCH  14  16
ENDBRANCH   1  14
TORSDOF 8
ENDMDL
MODEL 3
REMARK VINA RESULT:    -6.717      1.457      2.225
REMARK INTER + INTRA:         -10.535
REMARK INTER:                 -10.175
REMARK INTRA:                  -0.360
REMARK UNBOUND:                -0.874
REMARK  Name = 
REMARK  10 active torsions:
REMARK  status: ('A' for Active; 'I' for Inactive)
REMARK    1  A    between atoms: C_1  and  O_2
REMARK    2  A    between atoms: O_2  and  C_3
REMARK    3  A    between atoms: C_3  and  C_5
REMARK    4  A    between atoms: C_8  and  N_9
REMARK    5  A    between atoms: N_9  and  C_10
REMARK    6  A    between atoms: C_10  and  C_11
REMARK    7  A    between atoms: C_11  and  C_12
REMARK    8  A    between atoms: C_11  and  C_13
REMARK    9  A    between atoms: C_16  and  C_17
REMARK   10  A    between atoms: C_17  and  N_18
REMARK                            x       y       z     vdW  Elec       q    Type
REMARK                         _______ _______ _______ _____ _____    ______ ____
ROOT
ATOM      1  C   UNL     1      43.204   4.943  10.475  0.00  0.00    +0.000 C 
ENDROOT
BRANCH   1   2
ATOM      2  N   UNL     1      43.646   6.247  10.991  0.00  0.00    +0.000 N 
ATOM      3  H   UNL     1      43.676   6.969  10.275  0.00  0.00    +0.000 HD
BRANCH   2   7
ATOM      4  C   UNL     1      47.037   6.101  13.420  0.00  0.00    +0.000 A 
ATOM      5  C   UNL     1      47.142   6.752  12.197  0.00  0.00    +0.000 A 
ATOM      6  C   UNL     1      46.008   6.839  11.384  0.00  0.00    +0.000 A 
ATOM      7  C   UNL     1      44.790   6.301  11.800  0.00  0.00    +0.000 A 
ATOM      8  C   UNL     1      44.806   5.655  13.042  0.00  0.00    +0.000 A 
ATOM      9  N   UNL     1      45.877   5.556  13.865  0.00  0.00    +0.000 NA
BRANCH   4  10
ATOM     10  C   UNL     1      48.255   5.952  14.277  0.00  0.00    +0.000 C 
ATOM     11  O   UNL     1      48.279   5.313  15.321  0.00  0.00    +0.000 OA
BRANCH  10  13
ATOM     12  C   UNL     1      49.912   7.573  14.605  0.00  0.00    +0.000 C 
ATOM     13  O   UNL     1      49.293   6.631  13.736  0.00  0.00    +0.000 OA
ENDBRANCH  10  13
ENDBRANCH   4  10
ENDBRANCH   2   7
ENDBRANCH   1   2
BRANCH   1  14
ATOM     14  C   UNL     1      44.217   3.820  10.812  0.00  0.00    +0.000 C 
ATOM     15  C   UNL     1      43.541   2.567  11.389  0.00  0.00    +0.000 C 
BRANCH  14  16
ATOM     16  C   UNL     1      45.056   3.433   9.595  0.00  0.00    +0.000 A 
ATOM     17  C   UNL     1      45.300   2.083   9.307  0.00  0.00    +0.000 A 
ATOM     18  C   UNL     1      46.014   1.709   8.161  0.00  0.00    +0.000 A 
ATOM     19  C   UNL     1      46.509   2.677   7.277  0.00  0.00    +0.000 A 
ATOM     20  C   UNL     1      46.282   4.026   7.575  0.00  0.00    +0.000 A 
ATOM     21  C   UNL     1      45.566   4.400   8.716  0.00  0.00    +0.000 A 
BRANCH  19  22
ATOM     22  C   UNL     1      47.292   2.285   6.048  0.00  0.00    +0.000 C 
BRANCH  22  23
ATOM     23  N   UNL     1      48.726   2.487   6.224  0.00  0.00    +0.000 NA
ATOM     24  H   UNL     1      49.151   2.633   5.309  0.00  0.00    +0.000 HD
ATOM     25  H   UNL     1      49.139   1.636   6.599  0.00  0.00    +0.000 HD
ENDBRANCH  22  23
ENDBRANCH  19  22
ENDBRANCH  14  16
ENDBRANCH   1  14
TORSDOF 8
ENDMDL
MODEL 4
REMARK VINA RESULT:    -6.565      3.273      7.029
REMARK INTER + INTRA:         -10.318
REMARK INTER:                  -9.906
REMARK INTRA:                  -0.412
REMARK UNBOUND:                -0.874
REMARK  Name = 
REMARK  10 active torsions:
REMARK  status: ('A' for Active; 'I' for Inactive)
REMARK    1  A    between atoms: C_1  and  O_2
REMARK    2  A    between atoms: O_2  and  C_3
REMARK    3  A    between atoms: C_3  and  C_5
REMARK    4  A    between atoms: C_8  and  N_9
REMARK    5  A    between atoms: N_9  and  C_10
REMARK    6  A    between atoms: C_10  and  C_11
REMARK    7  A    between atoms: C_11  and  C_12
REMARK    8  A    between atoms: C_11  and  C_13
REMARK    9  A    between atoms: C_16  and  C_17
REMARK   10  A    between atoms: C_17  and  N_18
REMARK                            x       y       z     vdW  Elec       q    Type
REMARK                         _______ _______ _______ _____ _____    ______ ____
ROOT
ATOM      1  C   UNL     1      44.243   5.220  11.432  0.00  0.00    +0.000 C 
ENDROOT
BRANCH   1   2
ATOM      2  N   UNL     1      43.864   4.971  10.034  0.00  0.00    +0.000 N 
ATOM      3  H   UNL     1      42.862   4.843   9.909  0.00  0.00    +0.000 HD
BRANCH   2   7
ATOM      4  C   UNL     1      46.260   2.264   7.949  0.00  0.00    +0.000 A 
ATOM      5  C   UNL     1      45.303   1.750   8.816  0.00  0.00    +0.000 A 
ATOM      6  C   UNL     1      44.470   2.640   9.498  0.00  0.00    +0.000 A 
ATOM      7  C   UNL     1      44.582   4.017   9.300  0.00  0.00    +0.000 A 
ATOM      8  C   UNL     1      45.591   4.420   8.417  0.00  0.00    +0.000 A 
ATOM      9  N   UNL     1      46.413   3.593   7.728  0.00  0.00    +0.000 NA
BRANCH   4  10
ATOM     10  C   UNL     1      47.197   1.326   7.253  0.00  0.00    +0.000 C 
ATOM     11  O   UNL     1      47.070   0.109   7.258  0.00  0.00    +0.000 OA
BRANCH  10  13
ATOM     12  C   UNL     1      47.978   2.282   5.262  0.00  0.00    +0.000 C 
ATOM     13  O   UNL     1      48.188   2.021   6.646  0.00  0.00    +0.000 OA
ENDBRANCH  10  13
ENDBRANCH   4  10
ENDBRANCH   2   7
ENDBRANCH   1   2
BRANCH   1  14
ATOM     14  C   UNL     1      45.457   6.177  11.536  0.00  0.00    +0.000 C 
ATOM     15  C   UNL     1      45.053   7.656  11.449  0.00  0.00    +0.000 C 
BRANCH  14  16
ATOM     16  C   UNL     1      46.255   5.940  12.817  0.00  0.00    +0.000 A 
ATOM     17  C   UNL     1      46.007   4.806  13.603  0.00  0.00    +0.000 A 
ATOM     18  C   UNL     1      46.772   4.542  14.747  0.00  0.00    +0.000 A 
ATOM     19  C   UNL     1      47.801   5.408  15.137  0.00  0.00    +0.000 A 
ATOM     20  C   UNL     1      48.037   6.552  14.363  0.00  0.00    +0.000 A 
ATOM     21  C   UNL     1      47.276   6.814  13.220  0.00  0.00    +0.000 A 
BRANCH  19  22
ATOM     22  C   UNL     1      48.621   5.140  16.375  0.00  0.00    +0.000 C 
BRANCH  22  23
ATOM     23  N   UNL     1      48.920   3.722  16.538  0.00  0.00    +0.000 NA
ATOM     24  H   UNL     1      48.066   3.235  16.808  0.00  0.00    +0.000 HD
ATOM     25  H   UNL     1      49.572   3.605  17.311  0.00  0.00    +0.000 HD
ENDBRANCH  22  23
ENDBRANCH  19  22
ENDBRANCH  14  16
ENDBRANCH   1  14
TORSDOF 8
ENDMDL
MODEL 5
REMARK VINA RESULT:    -6.553      2.014      2.779
REMARK INTER + INTRA:         -10.300
REMARK INTER:                  -9.769
REMARK INTRA:                  -0.531
REMARK UNBOUND:                -0.874
REMARK  Name = 
REMARK  10 active torsions:
REMARK  status: ('A' for Active; 'I' for Inactive)
REMARK    1  A    between atoms: C_1  and  O_2
REMARK    2  A    between atoms: O_2  and  C_3
REMARK    3  A    between atoms: C_3  and  C_5
REMARK    4  A    between atoms: C_8  and  N_9
REMARK    5  A    between atoms: N_9  and  C_10
REMARK    6  A    between atoms: C_10  and  C_11
REMARK    7  A    between atoms: C_11  and  C_12
REMARK    8  A    between atoms: C_11  and  C_13
REMARK    9  A    between atoms: C_16  and  C_17
REMARK   10  A    between atoms: C_17  and  N_18
REMARK                            x       y       z     vdW  Elec       q    Type
REMARK                         _______ _______ _______ _____ _____    ______ ____
ROOT
ATOM      1  C   UNL     1      45.167   3.497  12.062  0.00  0.00    +0.000 C 
ENDROOT
BRANCH   1   2
ATOM      2  N   UNL     1      45.401   4.841  12.610  0.00  0.00    +0.000 N 
ATOM      3  H   UNL     1      45.450   5.561  11.893  0.00  0.00    +0.000 HD
BRANCH   2   7
ATOM      4  C   UNL     1      48.344   5.655  15.455  0.00  0.00    +0.000 A 
ATOM      5  C   UNL     1      47.465   4.610  15.712  0.00  0.00    +0.000 A 
ATOM      6  C   UNL     1      46.493   4.301  14.756  0.00  0.00    +0.000 A 
ATOM      7  C   UNL     1      46.418   5.015  13.559  0.00  0.00    +0.000 A 
ATOM      8  C   UNL     1      47.344   6.055  13.416  0.00  0.00    +0.000 A 
ATOM      9  N   UNL     1      48.307   6.382  14.311  0.00  0.00    +0.000 NA
BRANCH   4  10
ATOM     10  C   UNL     1      49.355   6.032  16.493  0.00  0.00    +0.000 C 
ATOM     11  O   UNL     1      50.353   5.370  16.744  0.00  0.00    +0.000 OA
BRANCH  10  13
ATOM     12  C   UNL     1      48.490   7.031  18.427  0.00  0.00    +0.000 C 
ATOM     13  O   UNL     1      48.990   7.185  17.103  0.00  0.00    +0.000 OA
ENDBRANCH  10  13
ENDBRANCH   4  10
ENDBRANCH   2   7
ENDBRANCH   1   2
BRANCH   1  14
ATOM     14  C   UNL     1      44.231   3.537  10.827  0.00  0.00    +0.000 C 
ATOM     15  C   UNL     1      43.473   4.866  10.703  0.00  0.00    +0.000 C 
BRANCH  14  16
ATOM     16  C   UNL     1      44.993   3.261   9.532  0.00  0.00    +0.000 A 
ATOM     17  C   UNL     1      45.435   4.325   8.733  0.00  0.00    +0.000 A 
ATOM     18  C   UNL     1      46.189   4.091   7.575  0.00  0.00    +0.000 A 
ATOM     19  C   UNL     1      46.515   2.786   7.184  0.00  0.00    +0.000 A 
ATOM     20  C   UNL     1      46.058   1.722   7.971  0.00  0.00    +0.000 A 
ATOM     21  C   UNL     1      45.309   1.955   9.129  0.00  0.00    +0.000 A 
BRANCH  19  22
ATOM     22  C   UNL     1      47.314   2.523   5.931  0.00  0.00    +0.000 C 
BRANCH  22  23
ATOM     23  N   UNL     1      48.741   2.398   6.206  0.00  0.00    +0.000 NA
ATOM     24  H   UNL     1      49.232   2.237   5.328  0.00  0.00    +0.000 HD
ATOM     25  H   UNL     1      48.900   1.572   6.779  0.00  0.00    +0.000 HD
ENDBRANCH  22  23
ENDBRANCH  19  22
ENDBRANCH  14  16
ENDBRANCH   1  14
TORSDOF 8
ENDMDL
MODEL 6
REMARK VINA RESULT:    -6.468      2.623      3.704
REMARK INTER + INTRA:         -10.177
REMARK INTER:                 -10.012
REMARK INTRA:                  -0.165
REMARK UNBOUND:                -0.874
REMARK  Name = 
REMARK  10 active torsions:
REMARK  status: ('A' for Active; 'I' for Inactive)
REMARK    1  A    between atoms: C_1  and  O_2
REMARK    2  A    between atoms: O_2  and  C_3
REMARK    3  A    between atoms: C_3  and  C_5
REMARK    4  A    between atoms: C_8  and  N_9
REMARK    5  A    between atoms: N_9  and  C_10
REMARK    6  A    between atoms: C_10  and  C_11
REMARK    7  A    between atoms: C_11  and  C_12
REMARK    8  A    between atoms: C_11  and  C_13
REMARK    9  A    between atoms: C_16  and  C_17
REMARK   10  A    between atoms: C_17  and  N_18
REMARK                            x       y       z     vdW  Elec       q    Type
REMARK                         _______ _______ _______ _____ _____    ______ ____
ROOT
ATOM      1  C   UNL     1      45.316   6.316  11.369  0.00  0.00    +0.000 C 
ENDROOT
BRANCH   1   2
ATOM      2  N   UNL     1      46.688   6.093  11.848  0.00  0.00    +0.000 N 
ATOM      3  H   UNL     1      47.280   5.632  11.160  0.00  0.00    +0.000 HD
BRANCH   2   7
ATOM      4  C   UNL     1      47.401   4.201  15.499  0.00  0.00    +0.000 A 
ATOM      5  C   UNL     1      47.797   5.526  15.367  0.00  0.00    +0.000 A 
ATOM      6  C   UNL     1      47.537   6.187  14.163  0.00  0.00    +0.000 A 
ATOM      7  C   UNL     1      46.877   5.535  13.120  0.00  0.00    +0.000 A 
ATOM      8  C   UNL     1      46.540   4.197  13.360  0.00  0.00    +0.000 A 
ATOM      9  N   UNL     1      46.763   3.523  14.512  0.00  0.00    +0.000 NA
BRANCH   4  10
ATOM     10  C   UNL     1      47.721   3.464  16.762  0.00  0.00    +0.000 C 
ATOM     11  O   UNL     1      46.880   2.917  17.463  0.00  0.00    +0.000 OA
BRANCH  10  13
ATOM     12  C   UNL     1      49.719   2.255  16.939  0.00  0.00    +0.000 C 
ATOM     13  O   UNL     1      49.053   3.511  17.006  0.00  0.00    +0.000 OA
ENDBRANCH  10  13
ENDBRANCH   4  10
ENDBRANCH   2   7
ENDBRANCH   1   2
BRANCH   1  14
ATOM     14  C   UNL     1      44.586   4.981  11.077  0.00  0.00    +0.000 C 
ATOM     15  C   UNL     1      43.080   5.170  10.842  0.00  0.00    +0.000 C 
BRANCH  14  16
ATOM     16  C   UNL     1      45.201   4.250   9.885  0.00  0.00    +0.000 A 
ATOM     17  C   UNL     1      45.089   2.857   9.777  0.00  0.00    +0.000 A 
ATOM     18  C   UNL     1      45.594   2.179   8.659  0.00  0.00    +0.000 A 
ATOM     19  C   UNL     1      46.229   2.877   7.624  0.00  0.00    +0.000 A 
ATOM     20  C   UNL     1      46.359   4.266   7.741  0.00  0.00    +0.000 A 
ATOM     21  C   UNL     1      45.853   4.944   8.854  0.00  0.00    +0.000 A 
BRANCH  19  22
ATOM     22  C   UNL     1      46.789   2.154   6.423  0.00  0.00    +0.000 C 
BRANCH  22  23
ATOM     23  N   UNL     1      47.702   1.082   6.805  0.00  0.00    +0.000 NA
ATOM     24  H   UNL     1      47.954   1.199   7.785  0.00  0.00    +0.000 HD
ATOM     25  H   UNL     1      48.565   1.173   6.274  0.00  0.00    +0.000 HD
ENDBRANCH  22  23
ENDBRANCH  19  22
ENDBRANCH  14  16
ENDBRANCH   1  14
TORSDOF 8
ENDMDL
MODEL 7
REMARK VINA RESULT:    -6.366      1.610      1.995
REMARK INTER + INTRA:         -10.031
REMARK INTER:                  -9.354
REMARK INTRA:                  -0.677
REMARK UNBOUND:                -0.874
REMARK  Name = 
REMARK  10 active torsions:
REMARK  status: ('A' for Active; 'I' for Inactive)
REMARK    1  A    between atoms: C_1  and  O_2
REMARK    2  A    between atoms: O_2  and  C_3
REMARK    3  A    between atoms: C_3  and  C_5
REMARK    4  A    between atoms: C_8  and  N_9
REMARK    5  A    between atoms: N_9  and  C_10
REMARK    6  A    between atoms: C_10  and  C_11
REMARK    7  A    between atoms: C_11  and  C_12
REMARK    8  A    between atoms: C_11  and  C_13
REMARK    9  A    between atoms: C_16  and  C_17
REMARK   10  A    between atoms: C_17  and  N_18
REMARK                            x       y       z     vdW  Elec       q    Type
REMARK                         _______ _______ _______ _____ _____    ______ ____
ROOT
ATOM      1  C   UNL     1      45.159   3.972  12.081  0.00  0.00    +0.000 C 
ENDROOT
BRANCH   1   2
ATOM      2  N   UNL     1      44.910   5.242  12.778  0.00  0.00    +0.000 N 
ATOM      3  H   UNL     1      43.928   5.512  12.775  0.00  0.00    +0.000 HD
BRANCH   2   7
ATOM      4  C   UNL     1      47.305   8.612  12.211  0.00  0.00    +0.000 A 
ATOM      5  C   UNL     1      47.846   7.371  11.895  0.00  0.00    +0.000 A 
ATOM      6  C   UNL     1      47.047   6.234  12.048  0.00  0.00    +0.000 A 
ATOM      7  C   UNL     1      45.728   6.343  12.490  0.00  0.00    +0.000 A 
ATOM      8  C   UNL     1      45.297   7.641  12.792  0.00  0.00    +0.000 A 
ATOM      9  N   UNL     1      46.031   8.769  12.650  0.00  0.00    +0.000 NA
BRANCH   4  10
ATOM     10  C   UNL     1      48.165   9.834  12.105  0.00  0.00    +0.000 C 
ATOM     11  O   UNL     1      47.898  10.794  11.396  0.00  0.00    +0.000 OA
BRANCH  10  13
ATOM     12  C   UNL     1      49.164  10.310  14.169  0.00  0.00    +0.000 C 
ATOM     13  O   UNL     1      49.263   9.701  12.886  0.00  0.00    +0.000 OA
ENDBRANCH  10  13
ENDBRANCH   4  10
ENDBRANCH   2   7
ENDBRANCH   1   2
BRANCH   1  14
ATOM     14  C   UNL     1      44.214   3.789  10.867  0.00  0.00    +0.000 C 
ATOM     15  C   UNL     1      43.383   5.046  10.570  0.00  0.00    +0.000 C 
BRANCH  14  16
ATOM     16  C   UNL     1      44.980   3.375   9.612  0.00  0.00    +0.000 A 
ATOM     17  C   UNL     1      45.508   4.350   8.753  0.00  0.00    +0.000 A 
ATOM     18  C   UNL     1      46.266   3.988   7.632  0.00  0.00    +0.000 A 
ATOM     19  C   UNL     1      46.511   2.641   7.337  0.00  0.00    +0.000 A 
ATOM     20  C   UNL     1      45.968   1.666   8.183  0.00  0.00    +0.000 A 
ATOM     21  C   UNL     1      45.214   2.027   9.304  0.00  0.00    +0.000 A 
BRANCH  19  22
ATOM     22  C   UNL     1      47.314   2.240   6.124  0.00  0.00    +0.000 C 
BRANCH  22  23
ATOM     23  N   UNL     1      48.722   2.599   6.255  0.00  0.00    +0.000 NA
ATOM     24  H   UNL     1      48.804   3.369   6.918  0.00  0.00    +0.000 HD
ATOM     25  H   UNL     1      49.061   2.953   5.362  0.00  0.00    +0.000 HD
ENDBRANCH  22  23
ENDBRANCH  19  22
ENDBRANCH  14  16
ENDBRANCH   1  14
TORSDOF 8
ENDMDL
MODEL 8
REMARK VINA RESULT:    -6.165      4.895      8.270
REMARK INTER + INTRA:          -9.742
REMARK INTER:                  -9.248
REMARK INTRA:                  -0.494
REMARK UNBOUND:                -0.874
REMARK  Name = 
REMARK  10 active torsions:
REMARK  status: ('A' for Active; 'I' for Inactive)
REMARK    1  A    between atoms: C_1  and  O_2
REMARK    2  A    between atoms: O_2  and  C_3
REMARK    3  A    between atoms: C_3  and  C_5
REMARK    4  A    between atoms: C_8  and  N_9
REMARK    5  A    between atoms: N_9  and  C_10
REMARK    6  A    between atoms: C_10  and  C_11
REMARK    7  A    between atoms: C_11  and  C_12
REMARK    8  A    between atoms: C_11  and  C_13
REMARK    9  A    between atoms: C_16  and  C_17
REMARK   10  A    between atoms: C_17  and  N_18
REMARK                            x       y       z     vdW  Elec       q    Type
REMARK                         _______ _______ _______ _____ _____    ______ ____
ROOT
ATOM      1  C   UNL     1      47.520   4.526  16.191  0.00  0.00    +0.000 C 
ENDROOT
BRANCH   1   2
ATOM      2  N   UNL     1      47.440   5.388  15.003  0.00  0.00    +0.000 N 
ATOM      3  H   UNL     1      47.223   6.357  15.228  0.00  0.00    +0.000 HD
BRANCH   2   7
ATOM      4  C   UNL     1      45.044   3.913  11.920  0.00  0.00    +0.000 A 
ATOM      5  C   UNL     1      45.110   5.291  12.088  0.00  0.00    +0.000 A 
ATOM      6  C   UNL     1      45.933   5.805  13.094  0.00  0.00    +0.000 A 
ATOM      7  C   UNL     1      46.688   4.954  13.903  0.00  0.00    +0.000 A 
ATOM      8  C   UNL     1      46.529   3.585  13.654  0.00  0.00    +0.000 A 
ATOM      9  N   UNL     1      45.753   3.045  12.685  0.00  0.00    +0.000 NA
BRANCH   4  10
ATOM     10  C   UNL     1      44.126   3.345  10.883  0.00  0.00    +0.000 C 
ATOM     11  O   UNL     1      43.026   2.873  11.133  0.00  0.00    +0.000 OA
BRANCH  10  13
ATOM     12  C   UNL     1      45.157   2.179   9.133  0.00  0.00    +0.000 C 
ATOM     13  O   UNL     1      44.701   3.420   9.659  0.00  0.00    +0.000 OA
ENDBRANCH  10  13
ENDBRANCH   4  10
ENDBRANCH   2   7
ENDBRANCH   1   2
BRANCH   1  14
ATOM     14  C   UNL     1      48.574   5.041  17.204  0.00  0.00    +0.000 C 
ATOM     15  C   UNL     1      47.975   5.322  18.589  0.00  0.00    +0.000 C 
BRANCH  14  16
ATOM     16  C   UNL     1      49.746   4.072  17.341  0.00  0.00    +0.000 A 
ATOM     17  C   UNL     1      51.022   4.549  17.675  0.00  0.00    +0.000 A 
ATOM     18  C   UNL     1      52.094   3.666  17.866  0.00  0.00    +0.000 A 
ATOM     19  C   UNL     1      51.918   2.284  17.722  0.00  0.00    +0.000 A 
ATOM     20  C   UNL     1      50.649   1.808  17.370  0.00  0.00    +0.000 A 
ATOM     21  C   UNL     1      49.578   2.688  17.182  0.00  0.00    +0.000 A 
BRANCH  19  22
ATOM     22  C   UNL     1      53.069   1.327  17.911  0.00  0.00    +0.000 C 
BRANCH  22  23
ATOM     23  N   UNL     1      52.614  -0.042  18.130  0.00  0.00    +0.000 NA
ATOM     24  H   UNL     1      53.300  -0.528  18.706  0.00  0.00    +0.000 HD
ATOM     25  H   UNL     1      52.589  -0.533  17.239  0.00  0.00    +0.000 HD
ENDBRANCH  22  23
ENDBRANCH  19  22
ENDBRANCH  14  16
ENDBRANCH   1  14
TORSDOF 8
ENDMDL
MODEL 9
REMARK VINA RESULT:    -5.716      4.183      8.479
REMARK INTER + INTRA:          -9.096
REMARK INTER:                  -8.495
REMARK INTRA:                  -0.602
REMARK UNBOUND:                -0.874
REMARK  Name = 
REMARK  10 active torsions:
REMARK  status: ('A' for Active; 'I' for Inactive)
REMARK    1  A    between atoms: C_1  and  O_2
REMARK    2  A    between atoms: O_2  and  C_3
REMARK    3  A    between atoms: C_3  and  C_5
REMARK    4  A    between atoms: C_8  and  N_9
REMARK    5  A    between atoms: N_9  and  C_10
REMARK    6  A    between atoms: C_10  and  C_11
REMARK    7  A    between atoms: C_11  and  C_12
REMARK    8  A    between atoms: C_11  and  C_13
REMARK    9  A    between atoms: C_16  and  C_17
REMARK   10  A    between atoms: C_17  and  N_18
REMARK                            x       y       z     vdW  Elec       q    Type
REMARK                         _______ _______ _______ _____ _____    ______ ____
ROOT
ATOM      1  C   UNL     1      48.438   6.711  14.023  0.00  0.00    +0.000 C 
ENDROOT
BRANCH   1   2
ATOM      2  N   UNL     1      47.020   6.956  13.722  0.00  0.00    +0.000 N 
ATOM      3  H   UNL     1      46.483   7.242  14.538  0.00  0.00    +0.000 HD
BRANCH   2   7
ATOM      4  C   UNL     1      44.709   4.120  11.713  0.00  0.00    +0.000 A 
ATOM      5  C   UNL     1      45.049   5.281  11.030  0.00  0.00    +0.000 A 
ATOM      6  C   UNL     1      45.850   6.228  11.675  0.00  0.00    +0.000 A 
ATOM      7  C   UNL     1      46.315   6.004  12.972  0.00  0.00    +0.000 A 
ATOM      8  C   UNL     1      45.896   4.808  13.566  0.00  0.00    +0.000 A 
ATOM      9  N   UNL     1      45.131   3.860  12.976  0.00  0.00    +0.000 NA
BRANCH   4  10
ATOM     10  C   UNL     1      43.808   3.121  11.056  0.00  0.00    +0.000 C 
ATOM     11  O   UNL     1      43.073   2.360  11.670  0.00  0.00    +0.000 OA
BRANCH  10  13
ATOM     12  C   UNL     1      44.721   2.135   9.137  0.00  0.00    +0.000 C 
ATOM     13  O   UNL     1      43.945   3.183   9.710  0.00  0.00    +0.000 OA
ENDBRANCH  10  13
ENDBRANCH   4  10
ENDBRANCH   2   7
ENDBRANCH   1   2
BRANCH   1  14
ATOM     14  C   UNL     1      48.926   7.566  15.220  0.00  0.00    +0.000 C 
ATOM     15  C   UNL     1      48.188   8.909  15.327  0.00  0.00    +0.000 C 
BRANCH  14  16
ATOM     16  C   UNL     1      48.802   6.810  16.542  0.00  0.00    +0.000 A 
ATOM     17  C   UNL     1      48.650   5.416  16.546  0.00  0.00    +0.000 A 
ATOM     18  C   UNL     1      48.598   4.701  17.750  0.00  0.00    +0.000 A 
ATOM     19  C   UNL     1      48.690   5.363  18.981  0.00  0.00    +0.000 A 
ATOM     20  C   UNL     1      48.823   6.757  18.978  0.00  0.00    +0.000 A 
ATOM     21  C   UNL     1      48.878   7.470  17.777  0.00  0.00    +0.000 A 
BRANCH  19  22
ATOM     22  C   UNL     1      48.620   4.603  20.283  0.00  0.00    +0.000 C 
BRANCH  22  23
ATOM     23  N   UNL     1      48.377   3.180  20.076  0.00  0.00    +0.000 NA
ATOM     24  H   UNL     1      47.371   3.023  20.023  0.00  0.00    +0.000 HD
ATOM     25  H   UNL     1      48.705   2.663  20.889  0.00  0.00    +0.000 HD
ENDBRANCH  22  23
ENDBRANCH  19  22
ENDBRANCH  14  16
ENDBRANCH   1  14
TORSDOF 8
ENDMDL
