MODEL 1
REMARK VINA RESULT:    -7.391      0.000      0.000
REMARK INTER + INTRA:          -9.689
REMARK INTER:                  -9.336
REMARK INTRA:                  -0.353
REMARK UNBOUND:                -0.353
REMARK  Name = 
REMARK  5 active torsions:
REMARK  status: ('A' for Active; 'I' for Inactive)
REMARK    1  A    between atoms: N_1  and  C_2
REMARK    2  A    between atoms: C_2  and  C_3
REMARK    3  A    between atoms: C_3  and  C_4
REMARK    4  A    between atoms: C_7  and  C_8
REMARK    5  A    between atoms: C_8  and  N_9
REMARK                            x       y       z     vdW  Elec       q    Type
REMARK                         _______ _______ _______ _____ _____    ______ ____
ROOT
ATOM      1  C   UNL     1      45.889   2.497   8.223  0.00  0.00    +0.000 A 
ATOM      2  C   UNL     1      45.016   1.911   9.142  0.00  0.00    +0.000 A 
ATOM      3  C   UNL     1      44.164   2.715   9.904  0.00  0.00    +0.000 A 
ATOM      4  C   UNL     1      44.218   4.099   9.747  0.00  0.00    +0.000 A 
ATOM      5  N   UNL     1      45.021   4.683   8.819  0.00  0.00    +0.000 NA
ATOM      6  C   UNL     1      45.813   3.877   8.077  0.00  0.00    +0.000 A 
ENDROOT
BRANCH   1   7
ATOM      7  C   UNL     1      46.879   1.681   7.429  0.00  0.00    +0.000 C 
BRANCH   7   8
ATOM      8  C   UNL     1      47.868   2.561   6.643  0.00  0.00    +0.000 C 
BRANCH   8   9
ATOM      9  N   UNL     1      48.596   1.798   5.633  0.00  0.00    +0.000 NA
ATOM     10  H   UNL     1      48.284   0.826   5.661  0.00  0.00    +0.000 HD
ATOM     11  H   UNL     1      49.589   1.775   5.865  0.00  0.00    +0.000 HD
ENDBRANCH   8   9
ENDBRANCH   7   8
ENDBRANCH   1   7
BRANCH   4  12
ATOM     12  C   UNL     1      43.428   5.018  10.667  0.00  0.00    +0.000 C 
BRANCH  12  13
ATOM     13  N   UNL     1      44.247   5.806  11.583  0.00  0.00    +0.000 N 
ATOM     14  C   UNL     1      44.633   7.139  11.357  0.00  0.00    +0.000 C 
ATOM     15  C   UNL     1      45.699   7.455  12.119  0.00  0.00    +0.000 C 
ATOM     16  N   UNL     1      46.112   6.324  12.802  0.00  0.00    +0.000 N 
ATOM     17  C   UNL     1      47.289   6.081  13.463  0.00  0.00    +0.000 C 
ATOM     18  C   UNL     1      47.559   4.729  13.900  0.00  0.00    +0.000 C 
ATOM     19  C   UNL     1      46.666   3.749  13.642  0.00  0.00    +0.000 C 
ATOM     20  C   UNL     1      45.458   4.023  12.872  0.00  0.00    +0.000 C 
ATOM     21  C   UNL     1      45.227   5.284  12.441  0.00  0.00    +0.000 C 
ENDBRANCH  12  13
ENDBRANCH   4  12
TORSDOF 5
ENDMDL
MODEL 2
REMARK VINA RESULT:    -7.029      1.317      2.283
REMARK INTER + INTRA:          -9.231
REMARK INTER:                  -8.839
REMARK INTRA:                  -0.392
REMARK UNBOUND:                -0.353
REMARK  Name = 
REMARK  5 active torsions:
REMARK  status: ('A' for Active; 'I' for Inactive)
REMARK    1  A    between atoms: N_1  and  C_2
REMARK    2  A    between atoms: C_2  and  C_3
REMARK    3  A    between atoms: C_3  and  C_4
REMARK    4  A    between atoms: C_7  and  C_8
REMARK    5  A    between atoms: C_8  and  N_9
REMARK                            x       y       z     vdW  Elec       q    Type
REMARK                         _______ _______ _______ _____ _____    ______ ____
ROOT
ATOM      1  C   UNL     1      45.845   3.194   7.728  0.00  0.00    +0.000 A 
ATOM      2  C   UNL     1      45.168   2.462   8.706  0.00  0.00    +0.000 A 
ATOM      3  C   UNL     1      44.776   3.083   9.894  0.00  0.00    +0.000 A 
ATOM      4  C   UNL     1      45.089   4.426  10.093  0.00  0.00    +0.000 A 
ATOM      5  N   UNL     1      45.696   5.169   9.131  0.00  0.00    +0.000 NA
ATOM      6  C   UNL     1      46.039   4.547   7.980  0.00  0.00    +0.000 A 
ENDROOT
BRANCH   1   7
ATOM      7  C   UNL     1      46.354   2.555   6.460  0.00  0.00    +0.000 C 
BRANCH   7   8
ATOM      8  C   UNL     1      47.582   1.658   6.707  0.00  0.00    +0.000 C 
BRANCH   8   9
ATOM      9  N   UNL     1      48.607   1.842   5.684  0.00  0.00    +0.000 NA
ATOM     10  H   UNL     1      49.528   1.795   6.123  0.00  0.00    +0.000 HD
ATOM     11  H   UNL     1      48.538   2.781   5.289  0.00  0.00    +0.000 HD
ENDBRANCH   8   9
ENDBRANCH   7   8
ENDBRANCH   1   7
BRANCH   4  12
ATOM     12  C   UNL     1      44.825   5.097  11.433  0.00  0.00    +0.000 C 
BRANCH  12  13
ATOM     13  N   UNL     1      45.940   5.033  12.371  0.00  0.00    +0.000 N 
ATOM     14  C   UNL     1      45.897   4.376  13.614  0.00  0.00    +0.000 C 
ATOM     15  C   UNL     1      46.877   4.832  14.421  0.00  0.00    +0.000 C 
ATOM     16  N   UNL     1      47.539   5.865  13.780  0.00  0.00    +0.000 N 
ATOM     17  C   UNL     1      48.398   6.804  14.291  0.00  0.00    +0.000 C 
ATOM     18  C   UNL     1      48.775   7.914  13.445  0.00  0.00    +0.000 C 
ATOM     19  C   UNL     1      48.273   8.008  12.195  0.00  0.00    +0.000 C 
ATOM     20  C   UNL     1      47.303   7.034  11.706  0.00  0.00    +0.000 C 
ATOM     21  C   UNL     1      46.933   6.015  12.514  0.00  0.00    +0.000 C 
ENDBRANCH  12  13
ENDBRANCH   4  12
TORSDOF 5
ENDMDL
MODEL 3
REMARK VINA RESULT:    -6.530      1.613      6.099
REMARK INTER + INTRA:          -8.602
REMARK INTER:                  -8.462
REMARK INTRA:                  -0.140
REMARK UNBOUND:                -0.353
REMARK  Name = 
REMARK  5 active torsions:
REMARK  status: ('A' for Active; 'I' for Inactive)
REMARK    1  A    between atoms: N_1  and  C_2
REMARK    2  A    between atoms: C_2  and  C_3
REMARK    3  A    between atoms: C_3  and  C_4
REMARK    4  A    between atoms: C_7  and  C_8
REMARK    5  A    between atoms: C_8  and  N_9
REMARK                            x       y       z     vdW  Elec       q    Type
REMARK                         _______ _______ _______ _____ _____    ______ ____
ROOT
ATOM      1  C   UNL     1      46.713   5.347  13.207  0.00  0.00    +0.000 A 
ATOM      2  C   UNL     1      46.935   6.244  12.161  0.00  0.00    +0.000 A 
ATOM      3  C   UNL     1      46.165   6.163  10.998  0.00  0.00    +0.000 A 
ATOM      4  C   UNL     1      45.197   5.167  10.894  0.00  0.00    +0.000 A 
ATOM      5  N   UNL     1      44.927   4.322  11.923  0.00  0.00    +0.000 NA
ATOM      6  C   UNL     1      45.671   4.442  13.046  0.00  0.00    +0.000 A 
ENDROOT
BRANCH   1   7
ATOM      7  C   UNL     1      47.564   5.345  14.453  0.00  0.00    +0.000 C 
BRANCH   7   8
ATOM      8  C   UNL     1      47.128   4.263  15.458  0.00  0.00    +0.000 C 
BRANCH   8   9
ATOM      9  N   UNL     1      47.880   3.023  15.286  0.00  0.00    +0.000 NA
ATOM     10  H   UNL     1      47.228   2.238  15.263  0.00  0.00    +0.000 HD
ATOM     11  H   UNL     1      48.475   2.862  16.099  0.00  0.00    +0.000 HD
ENDBRANCH   8   9
ENDBRANCH   7   8
ENDBRANCH   1   7
BRANCH   4  12
ATOM     12  C   UNL     1      44.449   4.941   9.588  0.00  0.00    +0.000 C 
BRANCH  12  13
ATOM     13  N   UNL     1      44.630   3.614   9.010  0.00  0.00    +0.000 N 
ATOM     14  C   UNL     1      44.233   2.416   9.631  0.00  0.00    +0.000 C 
ATOM     15  C   UNL     1      44.891   1.368   9.094  0.00  0.00    +0.000 C 
ATOM     16  N   UNL     1      45.808   1.841   8.172  0.00  0.00    +0.000 N 
ATOM     17  C   UNL     1      46.874   1.203   7.590  0.00  0.00    +0.000 C 
ATOM     18  C   UNL     1      47.811   1.997   6.828  0.00  0.00    +0.000 C 
ATOM     19  C   UNL     1      47.628   3.331   6.717  0.00  0.00    +0.000 C 
ATOM     20  C   UNL     1      46.527   3.992   7.408  0.00  0.00    +0.000 C 
ATOM     21  C   UNL     1      45.671   3.246   8.144  0.00  0.00    +0.000 C 
ENDBRANCH  12  13
ENDBRANCH   4  12
TORSDOF 5
ENDMDL
MODEL 4
REMARK VINA RESULT:    -6.202      1.582      6.199
REMARK INTER + INTRA:          -8.187
REMARK INTER:                  -7.830
REMARK INTRA:                  -0.357
REMARK UNBOUND:                -0.353
REMARK  Name = 
REMARK  5 active torsions:
REMARK  status: ('A' for Active; 'I' for Inactive)
REMARK    1  A    between atoms: N_1  and  C_2
REMARK    2  A    between atoms: C_2  and  C_3
REMARK    3  A    between atoms: C_3  and  C_4
REMARK    4  A    between atoms: C_7  and  C_8
REMARK    5  A    between atoms: C_8  and  N_9
REMARK                            x       y       z     vdW  Elec       q    Type
REMARK                         _______ _______ _______ _____ _____    ______ ____
ROOT
ATOM      1  C   UNL     1      47.267   6.147  13.516  0.00  0.00    +0.000 A 
ATOM      2  C   UNL     1      46.340   5.133  13.765  0.00  0.00    +0.000 A 
ATOM      3  C   UNL     1      45.383   4.811  12.800  0.00  0.00    +0.000 A 
ATOM      4  C   UNL     1      45.357   5.528  11.606  0.00  0.00    +0.000 A 
ATOM      5  N   UNL     1      46.285   6.479  11.322  0.00  0.00    +0.000 NA
ATOM      6  C   UNL     1      47.216   6.750  12.265  0.00  0.00    +0.000 A 
ENDROOT
BRANCH   1   7
ATOM      7  C   UNL     1      48.273   6.582  14.552  0.00  0.00    +0.000 C 
BRANCH   7   8
ATOM      8  C   UNL     1      48.531   8.100  14.517  0.00  0.00    +0.000 C 
BRANCH   8   9
ATOM      9  N   UNL     1      47.510   8.846  15.248  0.00  0.00    +0.000 NA
ATOM     10  H   UNL     1      47.726   8.816  16.246  0.00  0.00    +0.000 HD
ATOM     11  H   UNL     1      46.606   8.384  15.148  0.00  0.00    +0.000 HD
ENDBRANCH   8   9
ENDBRANCH   7   8
ENDBRANCH   1   7
BRANCH   4  12
ATOM     12  C   UNL     1      44.236   5.321  10.597  0.00  0.00    +0.000 C 
BRANCH  12  13
ATOM     13  N   UNL     1      44.282   4.042   9.897  0.00  0.00    +0.000 N 
ATOM     14  C   UNL     1      43.927   2.808  10.471  0.00  0.00    +0.000 C 
ATOM     15  C   UNL     1      44.461   1.791   9.765  0.00  0.00    +0.000 C 
ATOM     16  N   UNL     1      45.261   2.312   8.763  0.00  0.00    +0.000 N 
ATOM     17  C   UNL     1      46.209   1.695   7.989  0.00  0.00    +0.000 C 
ATOM     18  C   UNL     1      47.064   2.523   7.167  0.00  0.00    +0.000 C 
ATOM     19  C   UNL     1      46.920   3.866   7.188  0.00  0.00    +0.000 C 
ATOM     20  C   UNL     1      45.953   4.498   8.078  0.00  0.00    +0.000 C 
ATOM     21  C   UNL     1      45.178   3.718   8.866  0.00  0.00    +0.000 C 
ENDBRANCH  12  13
ENDBRANCH   4  12
TORSDOF 5
ENDMDL
MODEL 5
REMARK VINA RESULT:    -5.735      1.959      3.524
REMARK INTER + INTRA:          -7.597
REMARK INTER:                  -7.185
REMARK INTRA:                  -0.412
REMARK UNBOUND:                -0.353
REMARK  Name = 
REMARK  5 active torsions:
REMARK  status: ('A' for Active; 'I' for Inactive)
REMARK    1  A    between atoms: N_1  and  C_2
REMARK    2  A    between atoms: C_2  and  C_3
REMARK    3  A    between atoms: C_3  and  C_4
REMARK    4  A    between atoms: C_7  and  C_8
REMARK    5  A    between atoms: C_8  and  N_9
REMARK                            x       y       z     vdW  Elec       q    Type
REMARK                         _______ _______ _______ _____ _____    ______ ____
ROOT
ATOM      1  C   UNL     1      45.674   3.014   8.250  0.00  0.00    +0.000 A 
ATOM      2  C   UNL     1      46.047   4.359   8.272  0.00  0.00    +0.000 A 
ATOM      3  C   UNL     1      45.675   5.167   9.350  0.00  0.00    +0.000 A 
ATOM      4  C   UNL     1      44.915   4.616  10.379  0.00  0.00    +0.000 A 
ATOM      5  N   UNL     1      44.591   3.297  10.402  0.00  0.00    +0.000 NA
ATOM      6  C   UNL     1      44.988   2.534   9.359  0.00  0.00    +0.000 A 
ENDROOT
BRANCH   1   7
ATOM      7  C   UNL     1      45.987   2.117   7.078  0.00  0.00    +0.000 C 
BRANCH   7   8
ATOM      8  C   UNL     1      47.231   1.242   7.325  0.00  0.00    +0.000 C 
BRANCH   8   9
ATOM      9  N   UNL     1      46.873  -0.119   7.713  0.00  0.00    +0.000 NA
ATOM     10  H   UNL     1      46.593  -0.641   6.882  0.00  0.00    +0.000 HD
ATOM     11  H   UNL     1      46.050  -0.102   8.318  0.00  0.00    +0.000 HD
ENDBRANCH   8   9
ENDBRANCH   7   8
ENDBRANCH   1   7
BRANCH   4  12
ATOM     12  C   UNL     1      44.353   5.495  11.488  0.00  0.00    +0.000 C 
BRANCH  12  13
ATOM     13  N   UNL     1      45.064   6.755  11.679  0.00  0.00    +0.000 N 
ATOM     14  C   UNL     1      46.029   6.979  12.677  0.00  0.00    +0.000 C 
ATOM     15  C   UNL     1      46.190   8.301  12.885  0.00  0.00    +0.000 C 
ATOM     16  N   UNL     1      45.277   8.992  12.108  0.00  0.00    +0.000 N 
ATOM     17  C   UNL     1      44.874  10.301  12.184  0.00  0.00    +0.000 C 
ATOM     18  C   UNL     1      43.736  10.711  11.392  0.00  0.00    +0.000 C 
ATOM     19  C   UNL     1      43.097   9.809  10.616  0.00  0.00    +0.000 C 
ATOM     20  C   UNL     1      43.502   8.408  10.613  0.00  0.00    +0.000 C 
ATOM     21  C   UNL     1      44.549   8.026  11.379  0.00  0.00    +0.000 C 
ENDBRANCH  12  13
ENDBRANCH   4  12
TORSDOF 5
ENDMDL
MODEL 6
REMARK VINA RESULT:    -5.727      1.980      3.450
REMARK INTER + INTRA:          -7.586
REMARK INTER:                  -7.198
REMARK INTRA:                  -0.389
REMARK UNBOUND:                -0.353
REMARK  Name = 
REMARK  5 active torsions:
REMARK  status: ('A' for Active; 'I' for Inactive)
REMARK    1  A    between atoms: N_1  and  C_2
REMARK    2  A    between atoms: C_2  and  C_3
REMARK    3  A    between atoms: C_3  and  C_4
REMARK    4  A    between atoms: C_7  and  C_8
REMARK    5  A    between atoms: C_8  and  N_9
REMARK                            x       y       z     vdW  Elec       q    Type
REMARK                         _______ _______ _______ _____ _____    ______ ____
ROOT
ATOM      1  C   UNL     1      45.117   3.971   9.173  0.00  0.00    +0.000 A 
ATOM      2  C   UNL     1      45.558   5.263   9.466  0.00  0.00    +0.000 A 
ATOM      3  C   UNL     1      45.685   5.671  10.796  0.00  0.00    +0.000 A 
ATOM      4  C   UNL     1      45.346   4.781  11.814  0.00  0.00    +0.000 A 
ATOM      5  N   UNL     1      44.970   3.503  11.550  0.00  0.00    +0.000 NA
ATOM      6  C   UNL     1      44.883   3.129  10.253  0.00  0.00    +0.000 A 
ENDROOT
BRANCH   1   7
ATOM      7  C   UNL     1      44.894   3.505   7.756  0.00  0.00    +0.000 C 
BRANCH   7   8
ATOM      8  C   UNL     1      46.191   3.003   7.093  0.00  0.00    +0.000 C 
BRANCH   8   9
ATOM      9  N   UNL     1      46.926   4.085   6.443  0.00  0.00    +0.000 NA
ATOM     10  H   UNL     1      47.813   3.721   6.092  0.00  0.00    +0.000 HD
ATOM     11  H   UNL     1      47.173   4.798   7.130  0.00  0.00    +0.000 HD
ENDBRANCH   8   9
ENDBRANCH   7   8
ENDBRANCH   1   7
BRANCH   4  12
ATOM     12  C   UNL     1      45.314   5.235  13.266  0.00  0.00    +0.000 C 
BRANCH  12  13
ATOM     13  N   UNL     1      46.607   5.189  13.941  0.00  0.00    +0.000 N 
ATOM     14  C   UNL     1      46.882   4.409  15.080  0.00  0.00    +0.000 C 
ATOM     15  C   UNL     1      47.974   4.878  15.717  0.00  0.00    +0.000 C 
ATOM     16  N   UNL     1      48.402   6.031  15.083  0.00  0.00    +0.000 N 
ATOM     17  C   UNL     1      49.276   6.995  15.515  0.00  0.00    +0.000 C 
ATOM     18  C   UNL     1      49.377   8.217  14.748  0.00  0.00    +0.000 C 
ATOM     19  C   UNL     1      48.612   8.385  13.647  0.00  0.00    +0.000 C 
ATOM     20  C   UNL     1      47.638   7.373  13.255  0.00  0.00    +0.000 C 
ATOM     21  C   UNL     1      47.529   6.246  13.994  0.00  0.00    +0.000 C 
ENDBRANCH  12  13
ENDBRANCH   4  12
TORSDOF 5
ENDMDL
MODEL 7
REMARK VINA RESULT:    -5.519      2.062      6.590
REMARK INTER + INTRA:          -7.324
REMARK INTER:                  -7.767
REMARK INTRA:                   0.443
REMARK UNBOUND:                -0.353
REMARK  Name = 
REMARK  5 active torsions:
REMARK  status: ('A' for Active; 'I' for Inactive)
REMARK    1  A    between atoms: N_1  and  C_2
REMARK    2  A    between atoms: C_2  and  C_3
REMARK    3  A    between atoms: C_3  and  C_4
REMARK    4  A    between atoms: C_7  and  C_8
REMARK    5  A    between atoms: C_8  and  N_9
REMARK                            x       y       z     vdW  Elec       q    Type
REMARK                         _______ _______ _______ _____ _____    ______ ____
ROOT
ATOM      1  C   UNL     1      47.893   5.283  15.302  0.00  0.00    +0.000 A 
ATOM      2  C   UNL     1      47.012   4.326  14.794  0.00  0.00    +0.000 A 
ATOM      3  C   UNL     1      46.240   4.618  13.667  0.00  0.00    +0.000 A 
ATOM      4  C   UNL     1      46.349   5.877  13.079  0.00  0.00    +0.000 A 
ATOM      5  N   UNL     1      47.241   6.799  13.523  0.00  0.00    +0.000 NA
ATOM      6  C   UNL     1      47.994   6.478  14.600  0.00  0.00    +0.000 A 
ENDROOT
BRANCH   1   7
ATOM      7  C   UNL     1      48.695   5.045  16.557  0.00  0.00    +0.000 C 
BRANCH   7   8
ATOM      8  C   UNL     1      48.003   5.611  17.811  0.00  0.00    +0.000 C 
BRANCH   8   9
ATOM      9  N   UNL     1      46.759   4.907  18.114  0.00  0.00    +0.000 NA
ATOM     10  H   UNL     1      46.124   5.545  18.594  0.00  0.00    +0.000 HD
ATOM     11  H   UNL     1      46.941   4.150  18.773  0.00  0.00    +0.000 HD
ENDBRANCH   8   9
ENDBRANCH   7   8
ENDBRANCH   1   7
BRANCH   4  12
ATOM     12  C   UNL     1      45.414   6.293  11.952  0.00  0.00    +0.000 C 
BRANCH  12  13
ATOM     13  N   UNL     1      44.619   5.204  11.394  0.00  0.00    +0.000 N 
ATOM     14  C   UNL     1      43.899   4.271  12.162  0.00  0.00    +0.000 C 
ATOM     15  C   UNL     1      43.630   3.170  11.432  0.00  0.00    +0.000 C 
ATOM     16  N   UNL     1      44.239   3.293  10.195  0.00  0.00    +0.000 N 
ATOM     17  C   UNL     1      44.484   2.339   9.240  0.00  0.00    +0.000 C 
ATOM     18  C   UNL     1      45.341   2.690   8.130  0.00  0.00    +0.000 C 
ATOM     19  C   UNL     1      45.884   3.925   8.064  0.00  0.00    +0.000 C 
ATOM     20  C   UNL     1      45.666   4.893   9.133  0.00  0.00    +0.000 C 
ATOM     21  C   UNL     1      44.886   4.548  10.183  0.00  0.00    +0.000 C 
ENDBRANCH  12  13
ENDBRANCH   4  12
TORSDOF 5
ENDMDL
MODEL 8
REMARK VINA RESULT:    -5.414      1.541      2.242
REMARK INTER + INTRA:          -7.192
REMARK INTER:                  -7.156
REMARK INTRA:                  -0.036
REMARK UNBOUND:                -0.353
REMARK  Name = 
REMARK  5 active torsions:
REMARK  status: ('A' for Active; 'I' for Inactive)
REMARK    1  A    between atoms: N_1  and  C_2
REMARK    2  A    between atoms: C_2  and  C_3
REMARK    3  A    between atoms: C_3  and  C_4
REMARK    4  A    between atoms: C_7  and  C_8
REMARK    5  A    between atoms: C_8  and  N_9
REMARK                            x       y       z     vdW  Elec       q    Type
REMARK                         _______ _______ _______ _____ _____    ______ ____
ROOT
ATOM      1  C   UNL     1      45.326   3.740   8.489  0.00  0.00    +0.000 A 
ATOM      2  C   UNL     1      45.920   4.950   8.854  0.00  0.00    +0.000 A 
ATOM      3  C   UNL     1      45.623   5.526  10.092  0.00  0.00    +0.000 A 
ATOM      4  C   UNL     1      44.717   4.888  10.937  0.00  0.00    +0.000 A 
ATOM      5  N   UNL     1      44.173   3.683  10.623  0.00  0.00    +0.000 NA
ATOM      6  C   UNL     1      44.500   3.137   9.430  0.00  0.00    +0.000 A 
ENDROOT
BRANCH   1   7
ATOM      7  C   UNL     1      45.556   3.114   7.136  0.00  0.00    +0.000 C 
BRANCH   7   8
ATOM      8  C   UNL     1      47.049   3.061   6.760  0.00  0.00    +0.000 C 
BRANCH   8   9
ATOM      9  N   UNL     1      47.251   3.109   5.315  0.00  0.00    +0.000 NA
ATOM     10  H   UNL     1      47.931   3.839   5.097  0.00  0.00    +0.000 HD
ATOM     11  H   UNL     1      46.385   3.392   4.853  0.00  0.00    +0.000 HD
ENDBRANCH   8   9
ENDBRANCH   7   8
ENDBRANCH   1   7
BRANCH   4  12
ATOM     12  C   UNL     1      44.244   5.557  12.219  0.00  0.00    +0.000 C 
BRANCH  12  13
ATOM     13  N   UNL     1      44.898   6.827  12.514  0.00  0.00    +0.000 N 
ATOM     14  C   UNL     1      44.599   8.043  11.874  0.00  0.00    +0.000 C 
ATOM     15  C   UNL     1      45.614   8.917  12.028  0.00  0.00    +0.000 C 
ATOM     16  N   UNL     1      46.653   8.285  12.689  0.00  0.00    +0.000 N 
ATOM     17  C   UNL     1      47.965   8.662  12.822  0.00  0.00    +0.000 C 
ATOM     18  C   UNL     1      48.897   7.704  13.372  0.00  0.00    +0.000 C 
ATOM     19  C   UNL     1      48.466   6.474  13.728  0.00  0.00    +0.000 C 
ATOM     20  C   UNL     1      47.080   6.077  13.506  0.00  0.00    +0.000 C 
ATOM     21  C   UNL     1      46.221   6.969  12.962  0.00  0.00    +0.000 C 
ENDBRANCH  12  13
ENDBRANCH   4  12
TORSDOF 5
ENDMDL
