MODEL 1
REMARK VINA RESULT:    -7.792      0.000      0.000
REMARK INTER + INTRA:         -10.157
REMARK INTER:                  -9.614
REMARK INTRA:                  -0.543
REMARK UNBOUND:                -0.543
REMARK  Name = 
REMARK  4 active torsions:
REMARK  status: ('A' for Active; 'I' for Inactive)
REMARK    1  A    between atoms: C_2  and  C_4
REMARK    2  A    between atoms: C_7  and  N_8
REMARK    3  A    between atoms: N_8  and  C_9
REMARK    4  A    between atoms: C_9  and  C_10
REMARK                            x       y       z     vdW  Elec       q    Type
REMARK                         _______ _______ _______ _____ _____    ______ ____
ROOT
ATOM      1  C   UNL     1      46.412   2.468   7.677  0.00  0.00    +0.000 A 
ATOM      2  C   UNL     1      45.463   1.831   8.481  0.00  0.00    +0.000 A 
ATOM      3  C   UNL     1      44.562   2.589   9.237  0.00  0.00    +0.000 A 
ATOM      4  C   UNL     1      44.607   3.987   9.214  0.00  0.00    +0.000 A 
ATOM      5  C   UNL     1      45.518   4.611   8.354  0.00  0.00    +0.000 A 
ATOM      6  C   UNL     1      46.433   3.862   7.609  0.00  0.00    +0.000 A 
ENDROOT
BRANCH   1   8
ATOM      7  N   UNL     1      48.518   2.399   6.451  0.00  0.00    +0.000 N 
ATOM      8  C   UNL     1      47.440   1.706   6.920  0.00  0.00    +0.000 C 
ATOM      9  O   UNL     1      47.341   0.498   6.743  0.00  0.00    +0.000 OA
ATOM     10  H   UNL     1      49.248   1.848   6.021  0.00  0.00    +0.000 HD
ATOM     11  H   UNL     1      48.757   3.321   6.787  0.00  0.00    +0.000 HD
ENDBRANCH   1   8
BRANCH   4  12
ATOM     12  N   UNL     1      43.774   4.802   9.977  0.00  0.00    +0.000 N 
ATOM     13  H   UNL     1      42.953   5.101   9.454  0.00  0.00    +0.000 HD
BRANCH  12  14
ATOM     14  C   UNL     1      43.468   4.423  11.349  0.00  0.00    +0.000 C 
BRANCH  14  15
ATOM     15  C   UNL     1      44.704   4.587  12.189  0.00  0.00    +0.000 A 
ATOM     16  C   UNL     1      45.265   5.852  12.413  0.00  0.00    +0.000 A 
ATOM     17  C   UNL     1      46.420   5.970  13.178  0.00  0.00    +0.000 A 
ATOM     18  C   UNL     1      46.982   4.815  13.693  0.00  0.00    +0.000 A 
ATOM     19  N   UNL     1      46.479   3.578  13.491  0.00  0.00    +0.000 NA
ATOM     20  C   UNL     1      45.355   3.492  12.745  0.00  0.00    +0.000 A 
ENDBRANCH  14  15
ENDBRANCH  12  14
ENDBRANCH   4  12
TORSDOF 4
ENDMDL
MODEL 2
REMARK VINA RESULT:    -7.673      0.812      1.687
REMARK INTER + INTRA:         -10.011
REMARK INTER:                  -9.428
REMARK INTRA:                  -0.583
REMARK UNBOUND:                -0.543
REMARK  Name = 
REMARK  4 active torsions:
REMARK  status: ('A' for Active; 'I' for Inactive)
REMARK    1  A    between atoms: C_2  and  C_4
REMARK    2  A    between atoms: C_7  and  N_8
REMARK    3  A    between atoms: N_8  and  C_9
REMARK    4  A    between atoms: C_9  and  C_10
REMARK                            x       y       z     vdW  Elec       q    Type
REMARK                         _______ _______ _______ _____ _____    ______ ____
ROOT
ATOM      1  C   UNL     1      46.429   2.383   7.736  0.00  0.00    +0.000 A 
ATOM      2  C   UNL     1      46.461   3.777   7.638  0.00  0.00    +0.000 A 
ATOM      3  C   UNL     1      45.566   4.552   8.386  0.00  0.00    +0.000 A 
ATOM      4  C   UNL     1      44.623   3.949   9.223  0.00  0.00    +0.000 A 
ATOM      5  C   UNL     1      44.646   2.556   9.361  0.00  0.00    +0.000 A 
ATOM      6  C   UNL     1      45.523   1.774   8.606  0.00  0.00    +0.000 A 
ENDROOT
BRANCH   1   8
ATOM      7  N   UNL     1      48.393   2.098   6.321  0.00  0.00    +0.000 N 
ATOM      8  C   UNL     1      47.303   1.517   6.902  0.00  0.00    +0.000 C 
ATOM      9  O   UNL     1      47.074   0.323   6.759  0.00  0.00    +0.000 OA
ATOM     10  H   UNL     1      49.024   1.474   5.836  0.00  0.00    +0.000 HD
ATOM     11  H   UNL     1      48.749   2.996   6.614  0.00  0.00    +0.000 HD
ENDBRANCH   1   8
BRANCH   4  12
ATOM     12  N   UNL     1      43.673   4.657   9.957  0.00  0.00    +0.000 N 
ATOM     13  H   UNL     1      42.798   4.759   9.445  0.00  0.00    +0.000 HD
BRANCH  12  14
ATOM     14  C   UNL     1      43.476   4.338  11.364  0.00  0.00    +0.000 C 
BRANCH  14  15
ATOM     15  C   UNL     1      44.680   4.790  12.141  0.00  0.00    +0.000 A 
ATOM     16  C   UNL     1      45.522   3.866  12.775  0.00  0.00    +0.000 A 
ATOM     17  C   UNL     1      46.617   4.316  13.503  0.00  0.00    +0.000 A 
ATOM     18  C   UNL     1      46.834   5.681  13.579  0.00  0.00    +0.000 A 
ATOM     19  N   UNL     1      46.040   6.603  12.993  0.00  0.00    +0.000 NA
ATOM     20  C   UNL     1      44.984   6.138  12.290  0.00  0.00    +0.000 A 
ENDBRANCH  14  15
ENDBRANCH  12  14
ENDBRANCH   4  12
TORSDOF 4
ENDMDL
MODEL 3
REMARK VINA RESULT:    -7.284      2.613      5.981
REMARK INTER + INTRA:          -9.531
REMARK INTER:                  -9.085
REMARK INTRA:                  -0.446
REMARK UNBOUND:                -0.543
REMARK  Name = 
REMARK  4 active torsions:
REMARK  status: ('A' for Active; 'I' for Inactive)
REMARK    1  A    between atoms: C_2  and  C_4
REMARK    2  A    between atoms: C_7  and  N_8
REMARK    3  A    between atoms: N_8  and  C_9
REMARK    4  A    between atoms: C_9  and  C_10
REMARK                            x       y       z     vdW  Elec       q    Type
REMARK                         _______ _______ _______ _____ _____    ______ ____
ROOT
ATOM      1  C   UNL     1      46.513   5.046  13.162  0.00  0.00    +0.000 A 
ATOM      2  C   UNL     1      46.146   5.948  12.160  0.00  0.00    +0.000 A 
ATOM      3  C   UNL     1      45.340   5.525  11.096  0.00  0.00    +0.000 A 
ATOM      4  C   UNL     1      44.905   4.198  11.011  0.00  0.00    +0.000 A 
ATOM      5  C   UNL     1      45.226   3.323  12.055  0.00  0.00    +0.000 A 
ATOM      6  C   UNL     1      46.043   3.732  13.111  0.00  0.00    +0.000 A 
ENDROOT
BRANCH   1   8
ATOM      7  N   UNL     1      47.124   4.990  15.521  0.00  0.00    +0.000 N 
ATOM      8  C   UNL     1      47.431   5.428  14.266  0.00  0.00    +0.000 C 
ATOM      9  O   UNL     1      48.440   6.091  14.060  0.00  0.00    +0.000 OA
ATOM     10  H   UNL     1      47.808   5.182  16.240  0.00  0.00    +0.000 HD
ATOM     11  H   UNL     1      46.459   4.248  15.688  0.00  0.00    +0.000 HD
ENDBRANCH   1   8
BRANCH   4  12
ATOM     12  N   UNL     1      44.144   3.698   9.957  0.00  0.00    +0.000 N 
ATOM     13  H   UNL     1      43.145   3.779  10.140  0.00  0.00    +0.000 HD
BRANCH  12  14
ATOM     14  C   UNL     1      44.503   4.047   8.589  0.00  0.00    +0.000 C 
BRANCH  14  15
ATOM     15  C   UNL     1      45.525   3.067   8.086  0.00  0.00    +0.000 A 
ATOM     16  C   UNL     1      46.458   3.432   7.106  0.00  0.00    +0.000 A 
ATOM     17  C   UNL     1      47.379   2.498   6.647  0.00  0.00    +0.000 A 
ATOM     18  C   UNL     1      47.335   1.222   7.180  0.00  0.00    +0.000 A 
ATOM     19  N   UNL     1      46.445   0.827   8.116  0.00  0.00    +0.000 NA
ATOM     20  C   UNL     1      45.562   1.756   8.546  0.00  0.00    +0.000 A 
ENDBRANCH  14  15
ENDBRANCH  12  14
ENDBRANCH   4  12
TORSDOF 4
ENDMDL
MODEL 4
REMARK VINA RESULT:    -6.589      3.295      6.329
REMARK INTER + INTRA:          -8.673
REMARK INTER:                  -8.242
REMARK INTRA:                  -0.431
REMARK UNBOUND:                -0.543
REMARK  Name = 
REMARK  4 active torsions:
REMARK  status: ('A' for Active; 'I' for Inactive)
REMARK    1  A    between atoms: C_2  and  C_4
REMARK    2  A    between atoms: C_7  and  N_8
REMARK    3  A    between atoms: N_8  and  C_9
REMARK    4  A    between atoms: C_9  and  C_10
REMARK                            x       y       z     vdW  Elec       q    Type
REMARK                         _______ _______ _______ _____ _____    ______ ____
ROOT
ATOM      1  C   UNL     1      45.523   7.345  12.487  0.00  0.00    +0.000 A 
ATOM      2  C   UNL     1      46.391   6.325  12.888  0.00  0.00    +0.000 A 
ATOM      3  C   UNL     1      46.162   5.007  12.474  0.00  0.00    +0.000 A 
ATOM      4  C   UNL     1      45.061   4.689  11.673  0.00  0.00    +0.000 A 
ATOM      5  C   UNL     1      44.239   5.730  11.225  0.00  0.00    +0.000 A 
ATOM      6  C   UNL     1      44.449   7.045  11.647  0.00  0.00    +0.000 A 
ENDROOT
BRANCH   1   8
ATOM      7  N   UNL     1      46.590   8.970  13.958  0.00  0.00    +0.000 N 
ATOM      8  C   UNL     1      45.680   8.743  12.967  0.00  0.00    +0.000 C 
ATOM      9  O   UNL     1      45.038   9.664  12.478  0.00  0.00    +0.000 OA
ATOM     10  H   UNL     1      46.748   9.937  14.206  0.00  0.00    +0.000 HD
ATOM     11  H   UNL     1      47.303   8.297  14.204  0.00  0.00    +0.000 HD
ENDBRANCH   1   8
BRANCH   4  12
ATOM     12  N   UNL     1      44.747   3.395  11.266  0.00  0.00    +0.000 N 
ATOM     13  H   UNL     1      44.321   2.854  12.017  0.00  0.00    +0.000 HD
BRANCH  12  14
ATOM     14  C   UNL     1      44.098   3.190   9.978  0.00  0.00    +0.000 C 
BRANCH  14  15
ATOM     15  C   UNL     1      45.153   3.011   8.923  0.00  0.00    +0.000 A 
ATOM     16  C   UNL     1      45.713   1.752   8.663  0.00  0.00    +0.000 A 
ATOM     17  C   UNL     1      46.701   1.621   7.695  0.00  0.00    +0.000 A 
ATOM     18  C   UNL     1      47.104   2.758   7.016  0.00  0.00    +0.000 A 
ATOM     19  N   UNL     1      46.598   3.989   7.244  0.00  0.00    +0.000 NA
ATOM     20  C   UNL     1      45.638   4.088   8.190  0.00  0.00    +0.000 A 
ENDBRANCH  14  15
ENDBRANCH  12  14
ENDBRANCH   4  12
TORSDOF 4
ENDMDL
MODEL 5
REMARK VINA RESULT:    -5.766      3.470      6.482
REMARK INTER + INTRA:          -7.658
REMARK INTER:                  -7.279
REMARK INTRA:                  -0.378
REMARK UNBOUND:                -0.543
REMARK  Name = 
REMARK  4 active torsions:
REMARK  status: ('A' for Active; 'I' for Inactive)
REMARK    1  A    between atoms: C_2  and  C_4
REMARK    2  A    between atoms: C_7  and  N_8
REMARK    3  A    between atoms: N_8  and  C_9
REMARK    4  A    between atoms: C_9  and  C_10
REMARK                            x       y       z     vdW  Elec       q    Type
REMARK                         _______ _______ _______ _____ _____    ______ ____
ROOT
ATOM      1  C   UNL     1      46.949   7.829  13.257  0.00  0.00    +0.000 A 
ATOM      2  C   UNL     1      45.825   8.500  12.766  0.00  0.00    +0.000 A 
ATOM      3  C   UNL     1      44.997   7.883  11.822  0.00  0.00    +0.000 A 
ATOM      4  C   UNL     1      45.287   6.601  11.344  0.00  0.00    +0.000 A 
ATOM      5  C   UNL     1      46.377   5.916  11.892  0.00  0.00    +0.000 A 
ATOM      6  C   UNL     1      47.219   6.530  12.822  0.00  0.00    +0.000 A 
ENDROOT
BRANCH   1   8
ATOM      7  N   UNL     1      48.134   7.845  15.387  0.00  0.00    +0.000 N 
ATOM      8  C   UNL     1      47.900   8.474  14.198  0.00  0.00    +0.000 C 
ATOM      9  O   UNL     1      48.474   9.518  13.915  0.00  0.00    +0.000 OA
ATOM     10  H   UNL     1      48.851   8.251  15.972  0.00  0.00    +0.000 HD
ATOM     11  H   UNL     1      47.883   6.880  15.547  0.00  0.00    +0.000 HD
ENDBRANCH   1   8
BRANCH   4  12
ATOM     12  N   UNL     1      44.535   5.948  10.370  0.00  0.00    +0.000 N 
ATOM     13  H   UNL     1      44.837   6.196   9.429  0.00  0.00    +0.000 HD
BRANCH  12  14
ATOM     14  C   UNL     1      44.249   4.529  10.522  0.00  0.00    +0.000 C 
BRANCH  14  15
ATOM     15  C   UNL     1      45.013   3.762   9.478  0.00  0.00    +0.000 A 
ATOM     16  C   UNL     1      45.686   4.423   8.442  0.00  0.00    +0.000 A 
ATOM     17  C   UNL     1      46.367   3.686   7.480  0.00  0.00    +0.000 A 
ATOM     18  C   UNL     1      46.350   2.306   7.582  0.00  0.00    +0.000 A 
ATOM     19  N   UNL     1      45.704   1.632   8.558  0.00  0.00    +0.000 NA
ATOM     20  C   UNL     1      45.052   2.373   9.481  0.00  0.00    +0.000 A 
ENDBRANCH  14  15
ENDBRANCH  12  14
ENDBRANCH   4  12
TORSDOF 4
ENDMDL
MODEL 6
REMARK VINA RESULT:    -5.572      3.397      5.838
REMARK INTER + INTRA:          -7.419
REMARK INTER:                  -7.046
REMARK INTRA:                  -0.373
REMARK UNBOUND:                -0.543
REMARK  Name = 
REMARK  4 active torsions:
REMARK  status: ('A' for Active; 'I' for Inactive)
REMARK    1  A    between atoms: C_2  and  C_4
REMARK    2  A    between atoms: C_7  and  N_8
REMARK    3  A    between atoms: N_8  and  C_9
REMARK    4  A    between atoms: C_9  and  C_10
REMARK                            x       y       z     vdW  Elec       q    Type
REMARK                         _______ _______ _______ _____ _____    ______ ____
ROOT
ATOM      1  C   UNL     1      45.636   5.113  11.621  0.00  0.00    +0.000 A 
ATOM      2  C   UNL     1      46.393   6.226  12.001  0.00  0.00    +0.000 A 
ATOM      3  C   UNL     1      46.999   6.264  13.262  0.00  0.00    +0.000 A 
ATOM      4  C   UNL     1      46.846   5.206  14.163  0.00  0.00    +0.000 A 
ATOM      5  C   UNL     1      46.141   4.071  13.745  0.00  0.00    +0.000 A 
ATOM      6  C   UNL     1      45.518   4.031  12.496  0.00  0.00    +0.000 A 
ENDROOT
BRANCH   1   8
ATOM      7  N   UNL     1      43.577   5.360  10.342  0.00  0.00    +0.000 N 
ATOM      8  C   UNL     1      44.908   5.062  10.327  0.00  0.00    +0.000 C 
ATOM      9  O   UNL     1      45.481   4.789   9.280  0.00  0.00    +0.000 OA
ATOM     10  H   UNL     1      43.121   5.410   9.440  0.00  0.00    +0.000 HD
ATOM     11  H   UNL     1      43.135   5.826  11.121  0.00  0.00    +0.000 HD
ENDBRANCH   1   8
BRANCH   4  12
ATOM     12  N   UNL     1      47.380   5.200  15.449  0.00  0.00    +0.000 N 
ATOM     13  H   UNL     1      47.229   6.086  15.927  0.00  0.00    +0.000 HD
BRANCH  12  14
ATOM     14  C   UNL     1      47.157   4.045  16.308  0.00  0.00    +0.000 C 
BRANCH  14  15
ATOM     15  C   UNL     1      48.487   3.485  16.728  0.00  0.00    +0.000 A 
ATOM     16  C   UNL     1      49.381   4.241  17.498  0.00  0.00    +0.000 A 
ATOM     17  C   UNL     1      50.612   3.703  17.855  0.00  0.00    +0.000 A 
ATOM     18  C   UNL     1      50.914   2.423  17.426  0.00  0.00    +0.000 A 
ATOM     19  N   UNL     1      50.085   1.666  16.674  0.00  0.00    +0.000 NA
ATOM     20  C   UNL     1      48.895   2.213  16.343  0.00  0.00    +0.000 A 
ENDBRANCH  14  15
ENDBRANCH  12  14
ENDBRANCH   4  12
TORSDOF 4
ENDMDL
MODEL 7
REMARK VINA RESULT:    -5.505      3.044      4.887
REMARK INTER + INTRA:          -7.336
REMARK INTER:                  -6.988
REMARK INTRA:                  -0.348
REMARK UNBOUND:                -0.543
REMARK  Name = 
REMARK  4 active torsions:
REMARK  status: ('A' for Active; 'I' for Inactive)
REMARK    1  A    between atoms: C_2  and  C_4
REMARK    2  A    between atoms: C_7  and  N_8
REMARK    3  A    between atoms: N_8  and  C_9
REMARK    4  A    between atoms: C_9  and  C_10
REMARK                            x       y       z     vdW  Elec       q    Type
REMARK                         _______ _______ _______ _____ _____    ______ ____
ROOT
ATOM      1  C   UNL     1      45.399   4.744  10.474  0.00  0.00    +0.000 A 
ATOM      2  C   UNL     1      45.250   3.631  11.306  0.00  0.00    +0.000 A 
ATOM      3  C   UNL     1      45.509   3.741  12.677  0.00  0.00    +0.000 A 
ATOM      4  C   UNL     1      45.934   4.953  13.231  0.00  0.00    +0.000 A 
ATOM      5  C   UNL     1      46.015   6.075  12.397  0.00  0.00    +0.000 A 
ATOM      6  C   UNL     1      45.775   5.970  11.025  0.00  0.00    +0.000 A 
ENDROOT
BRANCH   1   8
ATOM      7  N   UNL     1      43.990   4.259   8.545  0.00  0.00    +0.000 N 
ATOM      8  C   UNL     1      45.213   4.655   9.002  0.00  0.00    +0.000 C 
ATOM      9  O   UNL     1      46.112   4.948   8.224  0.00  0.00    +0.000 OA
ATOM     10  H   UNL     1      43.856   4.294   7.543  0.00  0.00    +0.000 HD
ATOM     11  H   UNL     1      43.168   4.255   9.131  0.00  0.00    +0.000 HD
ENDBRANCH   1   8
BRANCH   4  12
ATOM     12  N   UNL     1      46.255   5.121  14.576  0.00  0.00    +0.000 N 
ATOM     13  H   UNL     1      45.814   4.414  15.162  0.00  0.00    +0.000 HD
BRANCH  12  14
ATOM     14  C   UNL     1      47.636   5.390  14.950  0.00  0.00    +0.000 C 
BRANCH  14  15
ATOM     15  C   UNL     1      47.919   4.739  16.276  0.00  0.00    +0.000 A 
ATOM     16  C   UNL     1      47.575   3.402  16.514  0.00  0.00    +0.000 A 
ATOM     17  C   UNL     1      47.831   2.833  17.756  0.00  0.00    +0.000 A 
ATOM     18  C   UNL     1      48.421   3.624  18.727  0.00  0.00    +0.000 A 
ATOM     19  N   UNL     1      48.756   4.919  18.541  0.00  0.00    +0.000 NA
ATOM     20  C   UNL     1      48.497   5.446  17.323  0.00  0.00    +0.000 A 
ENDBRANCH  14  15
ENDBRANCH  12  14
ENDBRANCH   4  12
TORSDOF 4
ENDMDL
MODEL 8
REMARK VINA RESULT:    -5.309      4.936      8.446
REMARK INTER + INTRA:          -7.093
REMARK INTER:                  -6.760
REMARK INTRA:                  -0.334
REMARK UNBOUND:                -0.543
REMARK  Name = 
REMARK  4 active torsions:
REMARK  status: ('A' for Active; 'I' for Inactive)
REMARK    1  A    between atoms: C_2  and  C_4
REMARK    2  A    between atoms: C_7  and  N_8
REMARK    3  A    between atoms: N_8  and  C_9
REMARK    4  A    between atoms: C_9  and  C_10
REMARK                            x       y       z     vdW  Elec       q    Type
REMARK                         _______ _______ _______ _____ _____    ______ ____
ROOT
ATOM      1  C   UNL     1      48.521   4.491  18.353  0.00  0.00    +0.000 A 
ATOM      2  C   UNL     1      48.179   3.177  18.020  0.00  0.00    +0.000 A 
ATOM      3  C   UNL     1      47.667   2.886  16.750  0.00  0.00    +0.000 A 
ATOM      4  C   UNL     1      47.476   3.899  15.806  0.00  0.00    +0.000 A 
ATOM      5  C   UNL     1      47.884   5.199  16.129  0.00  0.00    +0.000 A 
ATOM      6  C   UNL     1      48.379   5.502  17.400  0.00  0.00    +0.000 A 
ENDROOT
BRANCH   1   8
ATOM      7  N   UNL     1      48.653   4.029  20.743  0.00  0.00    +0.000 N 
ATOM      8  C   UNL     1      48.991   4.860  19.714  0.00  0.00    +0.000 C 
ATOM      9  O   UNL     1      49.675   5.857  19.907  0.00  0.00    +0.000 OA
ATOM     10  H   UNL     1      49.059   4.248  21.643  0.00  0.00    +0.000 HD
ATOM     11  H   UNL     1      48.317   3.089  20.591  0.00  0.00    +0.000 HD
ENDBRANCH   1   8
BRANCH   4  12
ATOM     12  N   UNL     1      46.927   3.688  14.543  0.00  0.00    +0.000 N 
ATOM     13  H   UNL     1      46.167   3.011  14.569  0.00  0.00    +0.000 HD
BRANCH  12  14
ATOM     14  C   UNL     1      46.641   4.833  13.690  0.00  0.00    +0.000 C 
BRANCH  14  15
ATOM     15  C   UNL     1      45.336   4.601  12.981  0.00  0.00    +0.000 A 
ATOM     16  C   UNL     1      45.101   3.419  12.265  0.00  0.00    +0.000 A 
ATOM     17  C   UNL     1      43.891   3.241  11.604  0.00  0.00    +0.000 A 
ATOM     18  C   UNL     1      42.953   4.255  11.675  0.00  0.00    +0.000 A 
ATOM     19  N   UNL     1      43.146   5.413  12.343  0.00  0.00    +0.000 NA
ATOM     20  C   UNL     1      44.329   5.559  12.978  0.00  0.00    +0.000 A 
ENDBRANCH  14  15
ENDBRANCH  12  14
ENDBRANCH   4  12
TORSDOF 4
ENDMDL
MODEL 9
REMARK VINA RESULT:    -5.160      3.797      6.355
REMARK INTER + INTRA:          -6.910
REMARK INTER:                  -6.479
REMARK INTRA:                  -0.431
REMARK UNBOUND:                -0.543
REMARK  Name = 
REMARK  4 active torsions:
REMARK  status: ('A' for Active; 'I' for Inactive)
REMARK    1  A    between atoms: C_2  and  C_4
REMARK    2  A    between atoms: C_7  and  N_8
REMARK    3  A    between atoms: N_8  and  C_9
REMARK    4  A    between atoms: C_9  and  C_10
REMARK                            x       y       z     vdW  Elec       q    Type
REMARK                         _______ _______ _______ _____ _____    ______ ____
ROOT
ATOM      1  C   UNL     1      49.306   7.563  13.011  0.00  0.00    +0.000 A 
ATOM      2  C   UNL     1      48.731   6.798  14.030  0.00  0.00    +0.000 A 
ATOM      3  C   UNL     1      47.502   6.161  13.821  0.00  0.00    +0.000 A 
ATOM      4  C   UNL     1      46.825   6.293  12.604  0.00  0.00    +0.000 A 
ATOM      5  C   UNL     1      47.443   7.008  11.571  0.00  0.00    +0.000 A 
ATOM      6  C   UNL     1      48.660   7.661  11.777  0.00  0.00    +0.000 A 
ENDROOT
BRANCH   1   8
ATOM      7  N   UNL     1      51.507   7.771  14.036  0.00  0.00    +0.000 N 
ATOM      8  C   UNL     1      50.567   8.322  13.214  0.00  0.00    +0.000 C 
ATOM      9  O   UNL     1      50.771   9.389  12.650  0.00  0.00    +0.000 OA
ATOM     10  H   UNL     1      52.393   8.256  14.088  0.00  0.00    +0.000 HD
ATOM     11  H   UNL     1      51.484   6.799  14.310  0.00  0.00    +0.000 HD
ENDBRANCH   1   8
BRANCH   4  12
ATOM     12  N   UNL     1      45.578   5.728  12.346  0.00  0.00    +0.000 N 
ATOM     13  H   UNL     1      44.960   5.790  13.152  0.00  0.00    +0.000 HD
BRANCH  12  14
ATOM     14  C   UNL     1      44.907   6.027  11.088  0.00  0.00    +0.000 C 
BRANCH  14  15
ATOM     15  C   UNL     1      44.836   4.774  10.262  0.00  0.00    +0.000 A 
ATOM     16  C   UNL     1      45.440   4.704   8.999  0.00  0.00    +0.000 A 
ATOM     17  C   UNL     1      45.340   3.537   8.250  0.00  0.00    +0.000 A 
ATOM     18  C   UNL     1      44.633   2.476   8.786  0.00  0.00    +0.000 A 
ATOM     19  N   UNL     1      44.027   2.508   9.993  0.00  0.00    +0.000 NA
ATOM     20  C   UNL     1      44.141   3.653  10.700  0.00  0.00    +0.000 A 
ENDBRANCH  14  15
ENDBRANCH  12  14
ENDBRANCH   4  12
TORSDOF 4
ENDMDL
