MODEL 1
REMARK VINA RESULT:    -6.826      0.000      0.000
REMARK INTER + INTRA:         -10.936
REMARK INTER:                  -9.221
REMARK INTRA:                  -1.715
REMARK UNBOUND:                -1.715
REMARK  Name = 
REMARK  7 active torsions:
REMARK  status: ('A' for Active; 'I' for Inactive)
REMARK    1  A    between atoms: C_1  and  C_2
REMARK    2  A    between atoms: C_2  and  C_3
REMARK    3  A    between atoms: C_5  and  C_6
REMARK    4  A    between atoms: C_11  and  O_12
REMARK    5  A    between atoms: O_12  and  C_13
REMARK    6  A    between atoms: C_13  and  C_14
REMARK    7  A    between atoms: C_18  and  N_19
REMARK                            x       y       z     vdW  Elec       q    Type
REMARK                         _______ _______ _______ _____ _____    ______ ____
ROOT
ATOM      1  O   UNL     1      44.849   6.882  12.870  0.00  0.00    +0.000 OA
ENDROOT
BRANCH   1   7
ATOM      2  C   UNL     1      47.187   6.202  13.423  0.00  0.00    +0.000 A 
ATOM      3  C   UNL     1      48.546   6.487  13.164  0.00  0.00    +0.000 A 
ATOM      4  C   UNL     1      48.951   7.508  12.297  0.00  0.00    +0.000 A 
ATOM      5  C   UNL     1      47.971   8.276  11.672  0.00  0.00    +0.000 A 
ATOM      6  C   UNL     1      46.619   8.023  11.929  0.00  0.00    +0.000 A 
ATOM      7  C   UNL     1      46.212   7.004  12.809  0.00  0.00    +0.000 A 
BRANCH   4   8
ATOM      8  C   UNL     1      50.413   7.669  12.086  0.00  0.00    +0.000 C 
ATOM      9  N   UNL     1      51.219   7.863  13.173  0.00  0.00    +0.000 N 
ATOM     10  O   UNL     1      50.914   7.636  10.963  0.00  0.00    +0.000 OA
ATOM     11  H   UNL     1      50.910   7.905  14.128  0.00  0.00    +0.000 HD
ATOM     12  H   UNL     1      52.208   7.972  12.986  0.00  0.00    +0.000 HD
ENDBRANCH   4   8
BRANCH   2  14
ATOM     13  C   UNL     1      46.809   3.734  13.325  0.00  0.00    +0.000 C 
ATOM     14  C   UNL     1      46.951   4.948  14.233  0.00  0.00    +0.000 C 
ENDBRANCH   2  14
ENDBRANCH   1   7
BRANCH   1  15
ATOM     15  C   UNL     1      44.130   6.681  11.655  0.00  0.00    +0.000 C 
BRANCH  15  16
ATOM     16  C   UNL     1      44.007   5.214  11.317  0.00  0.00    +0.000 A 
ATOM     17  C   UNL     1      43.372   4.328  12.191  0.00  0.00    +0.000 A 
ATOM     18  C   UNL     1      43.382   2.963  11.921  0.00  0.00    +0.000 A 
ATOM     19  C   UNL     1      44.019   2.477  10.773  0.00  0.00    +0.000 A 
ATOM     20  C   UNL     1      44.662   3.335   9.872  0.00  0.00    +0.000 A 
ATOM     21  C   UNL     1      44.664   4.698  10.192  0.00  0.00    +0.000 A 
BRANCH  20  22
ATOM     22  N   UNL     1      45.231   2.884   8.702  0.00  0.00    +0.000 N 
ATOM     23  C   UNL     1      45.322   1.448   8.411  0.00  0.00    +0.000 C 
ATOM     24  C   UNL     1      46.744   1.112   7.910  0.00  0.00    +0.000 C 
ATOM     25  N   UNL     1      47.171   1.928   6.753  0.00  0.00    +0.000 NA
ATOM     26  C   UNL     1      47.058   3.360   7.115  0.00  0.00    +0.000 C 
ATOM     27  C   UNL     1      45.655   3.774   7.618  0.00  0.00    +0.000 C 
ATOM     28  H   UNL     1      46.519   1.747   5.991  0.00  0.00    +0.000 HD
ENDBRANCH  20  22
ENDBRANCH  15  16
ENDBRANCH   1  15
TORSDOF 6
ENDMDL
MODEL 2
REMARK VINA RESULT:    -6.757      2.539      6.549
REMARK INTER + INTRA:         -10.843
REMARK INTER:                 -10.004
REMARK INTRA:                  -0.840
REMARK UNBOUND:                -1.715
REMARK  Name = 
REMARK  7 active torsions:
REMARK  status: ('A' for Active; 'I' for Inactive)
REMARK    1  A    between atoms: C_1  and  C_2
REMARK    2  A    between atoms: C_2  and  C_3
REMARK    3  A    between atoms: C_5  and  C_6
REMARK    4  A    between atoms: C_11  and  O_12
REMARK    5  A    between atoms: O_12  and  C_13
REMARK    6  A    between atoms: C_13  and  C_14
REMARK    7  A    between atoms: C_18  and  N_19
REMARK                            x       y       z     vdW  Elec       q    Type
REMARK                         _______ _______ _______ _____ _____    ______ ____
ROOT
ATOM      1  O   UNL     1      43.531   5.349   9.890  0.00  0.00    +0.000 OA
ENDROOT
BRANCH   1   7
ATOM      2  C   UNL     1      44.282   2.972  10.013  0.00  0.00    +0.000 A 
ATOM      3  C   UNL     1      45.137   2.016   9.420  0.00  0.00    +0.000 A 
ATOM      4  C   UNL     1      45.970   2.318   8.337  0.00  0.00    +0.000 A 
ATOM      5  C   UNL     1      45.957   3.616   7.831  0.00  0.00    +0.000 A 
ATOM      6  C   UNL     1      45.131   4.583   8.416  0.00  0.00    +0.000 A 
ATOM      7  C   UNL     1      44.303   4.282   9.512  0.00  0.00    +0.000 A 
BRANCH   4   8
ATOM      8  C   UNL     1      46.785   1.205   7.786  0.00  0.00    +0.000 C 
ATOM      9  N   UNL     1      47.868   1.503   7.007  0.00  0.00    +0.000 N 
ATOM     10  O   UNL     1      46.510   0.027   8.009  0.00  0.00    +0.000 OA
ATOM     11  H   UNL     1      48.176   2.429   6.767  0.00  0.00    +0.000 HD
ATOM     12  H   UNL     1      48.395   0.717   6.648  0.00  0.00    +0.000 HD
ENDBRANCH   4   8
BRANCH   2  14
ATOM     13  C   UNL     1      43.928   2.478  12.437  0.00  0.00    +0.000 C 
ATOM     14  C   UNL     1      43.327   2.409  11.041  0.00  0.00    +0.000 C 
ENDBRANCH   2  14
ENDBRANCH   1   7
BRANCH   1  15
ATOM     15  C   UNL     1      43.333   5.586  11.283  0.00  0.00    +0.000 C 
BRANCH  15  16
ATOM     16  C   UNL     1      44.460   6.399  11.875  0.00  0.00    +0.000 A 
ATOM     17  C   UNL     1      44.645   7.736  11.512  0.00  0.00    +0.000 A 
ATOM     18  C   UNL     1      45.762   8.429  11.969  0.00  0.00    +0.000 A 
ATOM     19  C   UNL     1      46.694   7.794  12.798  0.00  0.00    +0.000 A 
ATOM     20  C   UNL     1      46.538   6.457  13.187  0.00  0.00    +0.000 A 
ATOM     21  C   UNL     1      45.424   5.778  12.680  0.00  0.00    +0.000 A 
BRANCH  20  22
ATOM     22  N   UNL     1      47.404   5.836  14.060  0.00  0.00    +0.000 N 
ATOM     23  C   UNL     1      47.201   4.438  14.458  0.00  0.00    +0.000 C 
ATOM     24  C   UNL     1      47.352   4.309  15.989  0.00  0.00    +0.000 C 
ATOM     25  N   UNL     1      48.633   4.840  16.504  0.00  0.00    +0.000 NA
ATOM     26  C   UNL     1      48.770   6.249  16.071  0.00  0.00    +0.000 C 
ATOM     27  C   UNL     1      48.641   6.455  14.544  0.00  0.00    +0.000 C 
ATOM     28  H   UNL     1      49.384   4.305  16.069  0.00  0.00    +0.000 HD
ENDBRANCH  20  22
ENDBRANCH  15  16
ENDBRANCH   1  15
TORSDOF 6
ENDMDL
MODEL 3
REMARK VINA RESULT:    -6.397      2.293      6.562
REMARK INTER + INTRA:         -10.356
REMARK INTER:                  -9.776
REMARK INTRA:                  -0.580
REMARK UNBOUND:                -1.715
REMARK  Name = 
REMARK  7 active torsions:
REMARK  status: ('A' for Active; 'I' for Inactive)
REMARK    1  A    between atoms: C_1  and  C_2
REMARK    2  A    between atoms: C_2  and  C_3
REMARK    3  A    between atoms: C_5  and  C_6
REMARK    4  A    between atoms: C_11  and  O_12
REMARK    5  A    between atoms: O_12  and  C_13
REMARK    6  A    between atoms: C_13  and  C_14
REMARK    7  A    between atoms: C_18  and  N_19
REMARK                            x       y       z     vdW  Elec       q    Type
REMARK                         _______ _______ _______ _____ _____    ______ ____
ROOT
ATOM      1  O   UNL     1      44.119   5.041  10.277  0.00  0.00    +0.000 OA
ENDROOT
BRANCH   1   7
ATOM      2  C   UNL     1      44.841   2.752   9.592  0.00  0.00    +0.000 A 
ATOM      3  C   UNL     1      45.681   2.042   8.705  0.00  0.00    +0.000 A 
ATOM      4  C   UNL     1      46.511   2.681   7.777  0.00  0.00    +0.000 A 
ATOM      5  C   UNL     1      46.511   4.073   7.734  0.00  0.00    +0.000 A 
ATOM      6  C   UNL     1      45.700   4.796   8.617  0.00  0.00    +0.000 A 
ATOM      7  C   UNL     1      44.875   4.155   9.557  0.00  0.00    +0.000 A 
BRANCH   4   8
ATOM      8  C   UNL     1      47.309   1.807   6.878  0.00  0.00    +0.000 C 
ATOM      9  N   UNL     1      48.328   2.362   6.154  0.00  0.00    +0.000 N 
ATOM     10  O   UNL     1      47.076   0.606   6.765  0.00  0.00    +0.000 OA
ATOM     11  H   UNL     1      48.598   3.330   6.175  0.00  0.00    +0.000 HD
ATOM     12  H   UNL     1      48.845   1.735   5.551  0.00  0.00    +0.000 HD
ENDBRANCH   4   8
BRANCH   2  14
ATOM     13  C   UNL     1      43.452   2.585  11.662  0.00  0.00    +0.000 C 
ATOM     14  C   UNL     1      43.885   1.887  10.381  0.00  0.00    +0.000 C 
ENDBRANCH   2  14
ENDBRANCH   1   7
BRANCH   1  15
ATOM     15  C   UNL     1      44.749   6.216  10.785  0.00  0.00    +0.000 C 
BRANCH  15  16
ATOM     16  C   UNL     1      45.723   5.890  11.893  0.00  0.00    +0.000 A 
ATOM     17  C   UNL     1      45.375   5.003  12.915  0.00  0.00    +0.000 A 
ATOM     18  C   UNL     1      46.236   4.815  13.991  0.00  0.00    +0.000 A 
ATOM     19  C   UNL     1      47.454   5.505  14.048  0.00  0.00    +0.000 A 
ATOM     20  C   UNL     1      47.838   6.398  13.039  0.00  0.00    +0.000 A 
ATOM     21  C   UNL     1      46.933   6.591  11.989  0.00  0.00    +0.000 A 
BRANCH  20  22
ATOM     22  N   UNL     1      49.062   7.029  13.040  0.00  0.00    +0.000 N 
ATOM     23  C   UNL     1      49.771   7.299  14.297  0.00  0.00    +0.000 C 
ATOM     24  C   UNL     1      50.283   8.756  14.300  0.00  0.00    +0.000 C 
ATOM     25  N   UNL     1      51.115   9.093  13.123  0.00  0.00    +0.000 NA
ATOM     26  C   UNL     1      50.339   8.801  11.895  0.00  0.00    +0.000 C 
ATOM     27  C   UNL     1      49.803   7.353  11.818  0.00  0.00    +0.000 C 
ATOM     28  H   UNL     1      51.926   8.475  13.134  0.00  0.00    +0.000 HD
ENDBRANCH  20  22
ENDBRANCH  15  16
ENDBRANCH   1  15
TORSDOF 6
ENDMDL
MODEL 4
REMARK VINA RESULT:    -6.222      2.869      3.858
REMARK INTER + INTRA:         -10.120
REMARK INTER:                  -9.285
REMARK INTRA:                  -0.835
REMARK UNBOUND:                -1.715
REMARK  Name = 
REMARK  7 active torsions:
REMARK  status: ('A' for Active; 'I' for Inactive)
REMARK    1  A    between atoms: C_1  and  C_2
REMARK    2  A    between atoms: C_2  and  C_3
REMARK    3  A    between atoms: C_5  and  C_6
REMARK    4  A    between atoms: C_11  and  O_12
REMARK    5  A    between atoms: O_12  and  C_13
REMARK    6  A    between atoms: C_13  and  C_14
REMARK    7  A    between atoms: C_18  and  N_19
REMARK                            x       y       z     vdW  Elec       q    Type
REMARK                         _______ _______ _______ _____ _____    ______ ____
ROOT
ATOM      1  O   UNL     1      47.159   5.852  13.104  0.00  0.00    +0.000 OA
ENDROOT
BRANCH   1   7
ATOM      2  C   UNL     1      48.394   6.456  15.187  0.00  0.00    +0.000 A 
ATOM      3  C   UNL     1      48.695   6.023  16.498  0.00  0.00    +0.000 A 
ATOM      4  C   UNL     1      48.217   4.817  17.022  0.00  0.00    +0.000 A 
ATOM      5  C   UNL     1      47.419   4.011  16.213  0.00  0.00    +0.000 A 
ATOM      6  C   UNL     1      47.125   4.412  14.905  0.00  0.00    +0.000 A 
ATOM      7  C   UNL     1      47.615   5.619  14.374  0.00  0.00    +0.000 A 
BRANCH   4   8
ATOM      8  C   UNL     1      48.577   4.507  18.430  0.00  0.00    +0.000 C 
ATOM      9  N   UNL     1      48.284   3.269  18.928  0.00  0.00    +0.000 N 
ATOM     10  O   UNL     1      49.125   5.334  19.156  0.00  0.00    +0.000 OA
ATOM     11  H   UNL     1      47.839   2.525  18.419  0.00  0.00    +0.000 HD
ATOM     12  H   UNL     1      48.542   3.098  19.893  0.00  0.00    +0.000 HD
ENDBRANCH   4   8
BRANCH   2  14
ATOM     13  C   UNL     1      48.460   8.819  15.996  0.00  0.00    +0.000 C 
ATOM     14  C   UNL     1      48.841   7.865  14.873  0.00  0.00    +0.000 C 
ENDBRANCH   2  14
ENDBRANCH   1   7
BRANCH   1  15
ATOM     15  C   UNL     1      45.787   6.204  12.927  0.00  0.00    +0.000 C 
BRANCH  15  16
ATOM     16  C   UNL     1      45.004   5.081  12.288  0.00  0.00    +0.000 A 
ATOM     17  C   UNL     1      43.990   4.424  12.989  0.00  0.00    +0.000 A 
ATOM     18  C   UNL     1      43.370   3.312  12.429  0.00  0.00    +0.000 A 
ATOM     19  C   UNL     1      43.751   2.856  11.162  0.00  0.00    +0.000 A 
ATOM     20  C   UNL     1      44.759   3.493  10.426  0.00  0.00    +0.000 A 
ATOM     21  C   UNL     1      45.388   4.586  11.034  0.00  0.00    +0.000 A 
BRANCH  20  22
ATOM     22  N   UNL     1      45.098   3.105   9.150  0.00  0.00    +0.000 N 
ATOM     23  C   UNL     1      45.121   1.686   8.773  0.00  0.00    +0.000 C 
ATOM     24  C   UNL     1      46.422   1.377   8.001  0.00  0.00    +0.000 C 
ATOM     25  N   UNL     1      46.637   2.254   6.829  0.00  0.00    +0.000 NA
ATOM     26  C   UNL     1      46.606   3.664   7.280  0.00  0.00    +0.000 C 
ATOM     27  C   UNL     1      45.324   4.051   8.053  0.00  0.00    +0.000 C 
ATOM     28  H   UNL     1      45.854   2.113   6.192  0.00  0.00    +0.000 HD
ENDBRANCH  20  22
ENDBRANCH  15  16
ENDBRANCH   1  15
TORSDOF 6
ENDMDL
MODEL 5
REMARK VINA RESULT:    -6.070      4.443      6.222
REMARK INTER + INTRA:          -9.915
REMARK INTER:                  -8.965
REMARK INTRA:                  -0.950
REMARK UNBOUND:                -1.715
REMARK  Name = 
REMARK  7 active torsions:
REMARK  status: ('A' for Active; 'I' for Inactive)
REMARK    1  A    between atoms: C_1  and  C_2
REMARK    2  A    between atoms: C_2  and  C_3
REMARK    3  A    between atoms: C_5  and  C_6
REMARK    4  A    between atoms: C_11  and  O_12
REMARK    5  A    between atoms: O_12  and  C_13
REMARK    6  A    between atoms: C_13  and  C_14
REMARK    7  A    between atoms: C_18  and  N_19
REMARK                            x       y       z     vdW  Elec       q    Type
REMARK                         _______ _______ _______ _____ _____    ______ ____
ROOT
ATOM      1  O   UNL     1      48.055   4.830  16.774  0.00  0.00    +0.000 OA
ENDROOT
BRANCH   1   7
ATOM      2  C   UNL     1      50.437   4.545  17.467  0.00  0.00    +0.000 A 
ATOM      3  C   UNL     1      51.449   3.586  17.692  0.00  0.00    +0.000 A 
ATOM      4  C   UNL     1      51.242   2.214  17.509  0.00  0.00    +0.000 A 
ATOM      5  C   UNL     1      49.989   1.782  17.081  0.00  0.00    +0.000 A 
ATOM      6  C   UNL     1      48.977   2.718  16.834  0.00  0.00    +0.000 A 
ATOM      7  C   UNL     1      49.189   4.097  17.007  0.00  0.00    +0.000 A 
BRANCH   4   8
ATOM      8  C   UNL     1      52.384   1.315  17.824  0.00  0.00    +0.000 C 
ATOM      9  N   UNL     1      52.123   0.041  18.245  0.00  0.00    +0.000 N 
ATOM     10  O   UNL     1      53.551   1.688  17.720  0.00  0.00    +0.000 OA
ATOM     11  H   UNL     1      51.208  -0.358  18.361  0.00  0.00    +0.000 HD
ATOM     12  H   UNL     1      52.927  -0.538  18.453  0.00  0.00    +0.000 HD
ENDBRANCH   4   8
BRANCH   2  14
ATOM     13  C   UNL     1      51.091   6.830  16.696  0.00  0.00    +0.000 C 
ATOM     14  C   UNL     1      50.793   5.948  17.900  0.00  0.00    +0.000 C 
ENDBRANCH   2  14
ENDBRANCH   1   7
BRANCH   1  15
ATOM     15  C   UNL     1      47.174   4.408  15.735  0.00  0.00    +0.000 C 
BRANCH  15  16
ATOM     16  C   UNL     1      47.287   5.292  14.516  0.00  0.00    +0.000 A 
ATOM     17  C   UNL     1      48.240   6.312  14.457  0.00  0.00    +0.000 A 
ATOM     18  C   UNL     1      48.244   7.195  13.381  0.00  0.00    +0.000 A 
ATOM     19  C   UNL     1      47.302   7.057  12.355  0.00  0.00    +0.000 A 
ATOM     20  C   UNL     1      46.335   6.044  12.377  0.00  0.00    +0.000 A 
ATOM     21  C   UNL     1      46.337   5.196  13.491  0.00  0.00    +0.000 A 
BRANCH  20  22
ATOM     22  N   UNL     1      45.448   5.848  11.343  0.00  0.00    +0.000 N 
ATOM     23  C   UNL     1      43.999   5.951  11.561  0.00  0.00    +0.000 C 
ATOM     24  C   UNL     1      43.290   4.748  10.903  0.00  0.00    +0.000 C 
ATOM     25  N   UNL     1      43.613   4.583   9.468  0.00  0.00    +0.000 NA
ATOM     26  C   UNL     1      45.084   4.482   9.322  0.00  0.00    +0.000 C 
ATOM     27  C   UNL     1      45.862   5.661   9.950  0.00  0.00    +0.000 C 
ATOM     28  H   UNL     1      43.309   5.429   8.986  0.00  0.00    +0.000 HD
ENDBRANCH  20  22
ENDBRANCH  15  16
ENDBRANCH   1  15
TORSDOF 6
ENDMDL
MODEL 6
REMARK VINA RESULT:    -5.981      2.446      3.103
REMARK INTER + INTRA:          -9.795
REMARK INTER:                  -8.452
REMARK INTRA:                  -1.342
REMARK UNBOUND:                -1.715
REMARK  Name = 
REMARK  7 active torsions:
REMARK  status: ('A' for Active; 'I' for Inactive)
REMARK    1  A    between atoms: C_1  and  C_2
REMARK    2  A    between atoms: C_2  and  C_3
REMARK    3  A    between atoms: C_5  and  C_6
REMARK    4  A    between atoms: C_11  and  O_12
REMARK    5  A    between atoms: O_12  and  C_13
REMARK    6  A    between atoms: C_13  and  C_14
REMARK    7  A    between atoms: C_18  and  N_19
REMARK                            x       y       z     vdW  Elec       q    Type
REMARK                         _______ _______ _______ _____ _____    ______ ____
ROOT
ATOM      1  O   UNL     1      47.593   4.992  13.603  0.00  0.00    +0.000 OA
ENDROOT
BRANCH   1   7
ATOM      2  C   UNL     1      47.808   7.474  13.456  0.00  0.00    +0.000 A 
ATOM      3  C   UNL     1      48.165   8.630  14.185  0.00  0.00    +0.000 A 
ATOM      4  C   UNL     1      48.595   8.581  15.516  0.00  0.00    +0.000 A 
ATOM      5  C   UNL     1      48.679   7.338  16.140  0.00  0.00    +0.000 A 
ATOM      6  C   UNL     1      48.348   6.179  15.430  0.00  0.00    +0.000 A 
ATOM      7  C   UNL     1      47.927   6.228  14.089  0.00  0.00    +0.000 A 
BRANCH   4   8
ATOM      8  C   UNL     1      48.897   9.879  16.173  0.00  0.00    +0.000 C 
ATOM      9  N   UNL     1      47.943  10.455  16.964  0.00  0.00    +0.000 N 
ATOM     10  O   UNL     1      49.976  10.448  16.020  0.00  0.00    +0.000 OA
ATOM     11  H   UNL     1      47.033  10.073  17.152  0.00  0.00    +0.000 HD
ATOM     12  H   UNL     1      48.186  11.341  17.390  0.00  0.00    +0.000 HD
ENDBRANCH   4   8
BRANCH   2  14
ATOM     13  C   UNL     1      45.689   7.962  12.225  0.00  0.00    +0.000 C 
ATOM     14  C   UNL     1      47.191   7.749  12.104  0.00  0.00    +0.000 C 
ENDBRANCH   2  14
ENDBRANCH   1   7
BRANCH   1  15
ATOM     15  C   UNL     1      46.374   4.395  14.043  0.00  0.00    +0.000 C 
BRANCH  15  16
ATOM     16  C   UNL     1      45.304   4.467  12.980  0.00  0.00    +0.000 A 
ATOM     17  C   UNL     1      44.024   4.940  13.281  0.00  0.00    +0.000 A 
ATOM     18  C   UNL     1      43.019   4.878  12.321  0.00  0.00    +0.000 A 
ATOM     19  C   UNL     1      43.289   4.352  11.052  0.00  0.00    +0.000 A 
ATOM     20  C   UNL     1      44.561   3.873  10.712  0.00  0.00    +0.000 A 
ATOM     21  C   UNL     1      45.539   3.916  11.712  0.00  0.00    +0.000 A 
BRANCH  20  22
ATOM     22  N   UNL     1      44.865   3.419   9.448  0.00  0.00    +0.000 N 
ATOM     23  C   UNL     1      44.745   1.996   9.108  0.00  0.00    +0.000 C 
ATOM     24  C   UNL     1      46.012   1.536   8.354  0.00  0.00    +0.000 C 
ATOM     25  N   UNL     1      46.321   2.356   7.162  0.00  0.00    +0.000 NA
ATOM     26  C   UNL     1      46.431   3.773   7.576  0.00  0.00    +0.000 C 
ATOM     27  C   UNL     1      45.191   4.308   8.330  0.00  0.00    +0.000 C 
ATOM     28  H   UNL     1      45.530   2.278   6.522  0.00  0.00    +0.000 HD
ENDBRANCH  20  22
ENDBRANCH  15  16
ENDBRANCH   1  15
TORSDOF 6
ENDMDL
MODEL 7
REMARK VINA RESULT:    -5.902      3.980      5.669
REMARK INTER + INTRA:          -9.688
REMARK INTER:                  -8.774
REMARK INTRA:                  -0.914
REMARK UNBOUND:                -1.715
REMARK  Name = 
REMARK  7 active torsions:
REMARK  status: ('A' for Active; 'I' for Inactive)
REMARK    1  A    between atoms: C_1  and  C_2
REMARK    2  A    between atoms: C_2  and  C_3
REMARK    3  A    between atoms: C_5  and  C_6
REMARK    4  A    between atoms: C_11  and  O_12
REMARK    5  A    between atoms: O_12  and  C_13
REMARK    6  A    between atoms: C_13  and  C_14
REMARK    7  A    between atoms: C_18  and  N_19
REMARK                            x       y       z     vdW  Elec       q    Type
REMARK                         _______ _______ _______ _____ _____    ______ ____
ROOT
ATOM      1  O   UNL     1      48.700   7.026  15.846  0.00  0.00    +0.000 OA
ENDROOT
BRANCH   1   7
ATOM      2  C   UNL     1      48.880   4.840  17.040  0.00  0.00    +0.000 A 
ATOM      3  C   UNL     1      49.792   3.943  17.639  0.00  0.00    +0.000 A 
ATOM      4  C   UNL     1      51.168   4.191  17.695  0.00  0.00    +0.000 A 
ATOM      5  C   UNL     1      51.653   5.373  17.141  0.00  0.00    +0.000 A 
ATOM      6  C   UNL     1      50.765   6.285  16.559  0.00  0.00    +0.000 A 
ATOM      7  C   UNL     1      49.380   6.041  16.513  0.00  0.00    +0.000 A 
BRANCH   4   8
ATOM      8  C   UNL     1      52.015   3.140  18.318  0.00  0.00    +0.000 C 
ATOM      9  N   UNL     1      51.837   1.839  17.937  0.00  0.00    +0.000 N 
ATOM     10  O   UNL     1      52.864   3.409  19.165  0.00  0.00    +0.000 OA
ATOM     11  H   UNL     1      51.173   1.516  17.256  0.00  0.00    +0.000 HD
ATOM     12  H   UNL     1      52.430   1.153  18.388  0.00  0.00    +0.000 HD
ENDBRANCH   4   8
BRANCH   2  14
ATOM     13  C   UNL     1      47.359   2.913  17.500  0.00  0.00    +0.000 C 
ATOM     14  C   UNL     1      47.471   4.311  16.910  0.00  0.00    +0.000 C 
ENDBRANCH   2  14
ENDBRANCH   1   7
BRANCH   1  15
ATOM     15  C   UNL     1      48.970   7.218  14.458  0.00  0.00    +0.000 C 
BRANCH  15  16
ATOM     16  C   UNL     1      47.696   7.320  13.654  0.00  0.00    +0.000 A 
ATOM     17  C   UNL     1      47.006   8.532  13.555  0.00  0.00    +0.000 A 
ATOM     18  C   UNL     1      45.770   8.575  12.917  0.00  0.00    +0.000 A 
ATOM     19  C   UNL     1      45.221   7.411  12.366  0.00  0.00    +0.000 A 
ATOM     20  C   UNL     1      45.886   6.180  12.441  0.00  0.00    +0.000 A 
ATOM     21  C   UNL     1      47.109   6.164  13.121  0.00  0.00    +0.000 A 
BRANCH  20  22
ATOM     22  N   UNL     1      45.397   5.040  11.842  0.00  0.00    +0.000 N 
ATOM     23  C   UNL     1      45.134   4.999  10.398  0.00  0.00    +0.000 C 
ATOM     24  C   UNL     1      43.746   4.371  10.144  0.00  0.00    +0.000 C 
ATOM     25  N   UNL     1      43.578   3.038  10.765  0.00  0.00    +0.000 NA
ATOM     26  C   UNL     1      43.854   3.153  12.215  0.00  0.00    +0.000 C 
ATOM     27  C   UNL     1      45.234   3.766  12.548  0.00  0.00    +0.000 C 
ATOM     28  H   UNL     1      44.281   2.420  10.361  0.00  0.00    +0.000 HD
ENDBRANCH  20  22
ENDBRANCH  15  16
ENDBRANCH   1  15
TORSDOF 6
ENDMDL
MODEL 8
REMARK VINA RESULT:    -5.893      3.928      8.103
REMARK INTER + INTRA:          -9.675
REMARK INTER:                  -8.436
REMARK INTRA:                  -1.239
REMARK UNBOUND:                -1.715
REMARK  Name = 
REMARK  7 active torsions:
REMARK  status: ('A' for Active; 'I' for Inactive)
REMARK    1  A    between atoms: C_1  and  C_2
REMARK    2  A    between atoms: C_2  and  C_3
REMARK    3  A    between atoms: C_5  and  C_6
REMARK    4  A    between atoms: C_11  and  O_12
REMARK    5  A    between atoms: O_12  and  C_13
REMARK    6  A    between atoms: C_13  and  C_14
REMARK    7  A    between atoms: C_18  and  N_19
REMARK                            x       y       z     vdW  Elec       q    Type
REMARK                         _______ _______ _______ _____ _____    ______ ____
ROOT
ATOM      1  O   UNL     1      48.664   6.216  13.240  0.00  0.00    +0.000 OA
ENDROOT
BRANCH   1   7
ATOM      2  C   UNL     1      46.527   4.940  13.058  0.00  0.00    +0.000 A 
ATOM      3  C   UNL     1      45.198   5.008  12.584  0.00  0.00    +0.000 A 
ATOM      4  C   UNL     1      44.686   6.135  11.931  0.00  0.00    +0.000 A 
ATOM      5  C   UNL     1      45.527   7.229  11.738  0.00  0.00    +0.000 A 
ATOM      6  C   UNL     1      46.853   7.175  12.184  0.00  0.00    +0.000 A 
ATOM      7  C   UNL     1      47.370   6.038  12.829  0.00  0.00    +0.000 A 
BRANCH   4   8
ATOM      8  C   UNL     1      43.258   6.083  11.523  0.00  0.00    +0.000 C 
ATOM      9  N   UNL     1      42.647   7.237  11.118  0.00  0.00    +0.000 N 
ATOM     10  O   UNL     1      42.615   5.036  11.544  0.00  0.00    +0.000 OA
ATOM     11  H   UNL     1      43.084   8.140  11.064  0.00  0.00    +0.000 HD
ATOM     12  H   UNL     1      41.673   7.161  10.851  0.00  0.00    +0.000 HD
ENDBRANCH   4   8
BRANCH   2  14
ATOM     13  C   UNL     1      46.991   4.099  15.365  0.00  0.00    +0.000 C 
ATOM     14  C   UNL     1      46.833   3.722  13.899  0.00  0.00    +0.000 C 
ENDBRANCH   2  14
ENDBRANCH   1   7
BRANCH   1  15
ATOM     15  C   UNL     1      49.084   7.527  13.616  0.00  0.00    +0.000 C 
BRANCH  15  16
ATOM     16  C   UNL     1      48.763   7.821  15.062  0.00  0.00    +0.000 A 
ATOM     17  C   UNL     1      48.306   9.082  15.453  0.00  0.00    +0.000 A 
ATOM     18  C   UNL     1      48.139   9.369  16.804  0.00  0.00    +0.000 A 
ATOM     19  C   UNL     1      48.418   8.396  17.771  0.00  0.00    +0.000 A 
ATOM     20  C   UNL     1      48.873   7.119  17.417  0.00  0.00    +0.000 A 
ATOM     21  C   UNL     1      49.065   6.875  16.052  0.00  0.00    +0.000 A 
BRANCH  20  22
ATOM     22  N   UNL     1      49.083   6.126  18.347  0.00  0.00    +0.000 N 
ATOM     23  C   UNL     1      49.526   4.788  17.935  0.00  0.00    +0.000 C 
ATOM     24  C   UNL     1      48.670   3.718  18.649  0.00  0.00    +0.000 C 
ATOM     25  N   UNL     1      48.658   3.858  20.122  0.00  0.00    +0.000 NA
ATOM     26  C   UNL     1      48.201   5.224  20.466  0.00  0.00    +0.000 C 
ATOM     27  C   UNL     1      49.019   6.350  19.794  0.00  0.00    +0.000 C 
ATOM     28  H   UNL     1      49.620   3.759  20.448  0.00  0.00    +0.000 HD
ENDBRANCH  20  22
ENDBRANCH  15  16
ENDBRANCH   1  15
TORSDOF 6
ENDMDL
MODEL 9
REMARK VINA RESULT:    -5.852      1.685      2.529
REMARK INTER + INTRA:          -9.620
REMARK INTER:                  -8.784
REMARK INTRA:                  -0.836
REMARK UNBOUND:                -1.715
REMARK  Name = 
REMARK  7 active torsions:
REMARK  status: ('A' for Active; 'I' for Inactive)
REMARK    1  A    between atoms: C_1  and  C_2
REMARK    2  A    between atoms: C_2  and  C_3
REMARK    3  A    between atoms: C_5  and  C_6
REMARK    4  A    between atoms: C_11  and  O_12
REMARK    5  A    between atoms: O_12  and  C_13
REMARK    6  A    between atoms: C_13  and  C_14
REMARK    7  A    between atoms: C_18  and  N_19
REMARK                            x       y       z     vdW  Elec       q    Type
REMARK                         _______ _______ _______ _____ _____    ______ ____
ROOT
ATOM      1  O   UNL     1      45.455   6.905  10.979  0.00  0.00    +0.000 OA
ENDROOT
BRANCH   1   7
ATOM      2  C   UNL     1      46.827   8.393  12.439  0.00  0.00    +0.000 A 
ATOM      3  C   UNL     1      47.714   8.404  13.539  0.00  0.00    +0.000 A 
ATOM      4  C   UNL     1      48.106   7.238  14.204  0.00  0.00    +0.000 A 
ATOM      5  C   UNL     1      47.603   6.018  13.757  0.00  0.00    +0.000 A 
ATOM      6  C   UNL     1      46.738   5.982  12.658  0.00  0.00    +0.000 A 
ATOM      7  C   UNL     1      46.353   7.154  11.982  0.00  0.00    +0.000 A 
BRANCH   4   8
ATOM      8  C   UNL     1      49.011   7.402  15.372  0.00  0.00    +0.000 C 
ATOM      9  N   UNL     1      48.522   7.157  16.624  0.00  0.00    +0.000 N 
ATOM     10  O   UNL     1      50.181   7.755  15.240  0.00  0.00    +0.000 OA
ATOM     11  H   UNL     1      47.584   6.865  16.837  0.00  0.00    +0.000 HD
ATOM     12  H   UNL     1      49.169   7.284  17.393  0.00  0.00    +0.000 HD
ENDBRANCH   4   8
BRANCH   2  14
ATOM     13  C   UNL     1      44.892   9.960  12.235  0.00  0.00    +0.000 C 
ATOM     14  C   UNL     1      46.379   9.761  11.979  0.00  0.00    +0.000 C 
ENDBRANCH   2  14
ENDBRANCH   1   7
BRANCH   1  15
ATOM     15  C   UNL     1      44.170   6.392  11.328  0.00  0.00    +0.000 C 
BRANCH  15  16
ATOM     16  C   UNL     1      44.042   4.929  10.977  0.00  0.00    +0.000 A 
ATOM     17  C   UNL     1      43.319   4.056  11.795  0.00  0.00    +0.000 A 
ATOM     18  C   UNL     1      43.320   2.692  11.523  0.00  0.00    +0.000 A 
ATOM     19  C   UNL     1      44.034   2.193  10.427  0.00  0.00    +0.000 A 
ATOM     20  C   UNL     1      44.765   3.038   9.582  0.00  0.00    +0.000 A 
ATOM     21  C   UNL     1      44.773   4.400   9.905  0.00  0.00    +0.000 A 
BRANCH  20  22
ATOM     22  N   UNL     1      45.413   2.576   8.458  0.00  0.00    +0.000 N 
ATOM     23  C   UNL     1      45.549   1.137   8.202  0.00  0.00    +0.000 C 
ATOM     24  C   UNL     1      47.005   0.819   7.797  0.00  0.00    +0.000 C 
ATOM     25  N   UNL     1      47.489   1.622   6.652  0.00  0.00    +0.000 NA
ATOM     26  C   UNL     1      47.326   3.057   6.978  0.00  0.00    +0.000 C 
ATOM     27  C   UNL     1      45.888   3.453   7.384  0.00  0.00    +0.000 C 
ATOM     28  H   UNL     1      46.888   1.413   5.855  0.00  0.00    +0.000 HD
ENDBRANCH  20  22
ENDBRANCH  15  16
ENDBRANCH   1  15
TORSDOF 6
ENDMDL
