MODEL 1
REMARK VINA RESULT:    -7.667      0.000      0.000
REMARK INTER + INTRA:         -10.782
REMARK INTER:                  -9.908
REMARK INTRA:                  -0.874
REMARK UNBOUND:                -0.874
REMARK  Name = 
REMARK  5 active torsions:
REMARK  status: ('A' for Active; 'I' for Inactive)
REMARK    1  A    between atoms: C_2  and  C_3
REMARK    2  A    between atoms: C_8  and  N_9
REMARK    3  A    between atoms: N_9  and  C_10
REMARK    4  A    between atoms: C_10  and  C_11
REMARK    5  A    between atoms: C_15  and  C_16
REMARK                            x       y       z     vdW  Elec       q    Type
REMARK                         _______ _______ _______ _____ _____    ______ ____
ROOT
ATOM      1  C   UNL     1      43.799   5.750  11.105  0.00  0.00    +0.000 C 
ATOM      2  C   UNL     1      42.556   5.300  11.883  0.00  0.00    +0.000 C 
ATOM      3  C   UNL     1      42.727   6.735  11.532  0.00  0.00    +0.000 C 
ENDROOT
BRANCH   1   4
ATOM      4  C   UNL     1      45.123   5.770  11.875  0.00  0.00    +0.000 A 
ATOM      5  C   UNL     1      45.487   4.723  12.733  0.00  0.00    +0.000 A 
ATOM      6  C   UNL     1      46.724   4.697  13.370  0.00  0.00    +0.000 A 
ATOM      7  C   UNL     1      47.646   5.715  13.139  0.00  0.00    +0.000 A 
ATOM      8  C   UNL     1      47.353   6.777  12.268  0.00  0.00    +0.000 A 
ATOM      9  C   UNL     1      46.068   6.801  11.689  0.00  0.00    +0.000 A 
BRANCH   8  10
ATOM     10  C   UNL     1      48.386   7.767  11.880  0.00  0.00    +0.000 A 
ATOM     11  C   UNL     1      48.073   9.140  11.815  0.00  0.00    +0.000 A 
ATOM     12  C   UNL     1      49.047  10.103  11.541  0.00  0.00    +0.000 A 
ATOM     13  C   UNL     1      50.363   9.710  11.335  0.00  0.00    +0.000 A 
ATOM     14 CL   UNL     1      51.573  10.897  11.040  0.00  0.00    +0.000 Cl
ATOM     15  C   UNL     1      50.706   8.362  11.380  0.00  0.00    +0.000 A 
ATOM     16  C   UNL     1      49.723   7.399  11.641  0.00  0.00    +0.000 A 
ENDBRANCH   8  10
ENDBRANCH   1   4
BRANCH   1  17
ATOM     17  N   UNL     1      43.881   5.180   9.766  0.00  0.00    +0.000 N 
ATOM     18  H   UNL     1      43.189   5.462   9.077  0.00  0.00    +0.000 HD
BRANCH  17  24
ATOM     19  C   UNL     1      44.592   2.780   9.650  0.00  0.00    +0.000 A 
ATOM     20  C   UNL     1      45.427   1.866   8.979  0.00  0.00    +0.000 A 
ATOM     21  C   UNL     1      46.253   2.299   7.948  0.00  0.00    +0.000 A 
ATOM     22  C   UNL     1      46.212   3.633   7.618  0.00  0.00    +0.000 A 
ATOM     23  N   UNL     1      45.405   4.525   8.233  0.00  0.00    +0.000 NA
ATOM     24  C   UNL     1      44.595   4.112   9.245  0.00  0.00    +0.000 A 
BRANCH  19  26
ATOM     25  N   UNL     1      43.107   1.905  11.582  0.00  0.00    +0.000 NA
ATOM     26  C   UNL     1      43.808   2.253  10.722  0.00  0.00    +0.000 C 
ENDBRANCH  19  26
ENDBRANCH  17  24
ENDBRANCH   1  17
TORSDOF 5
ENDMDL
MODEL 2
REMARK VINA RESULT:    -7.400      3.480      6.593
REMARK INTER + INTRA:         -10.437
REMARK INTER:                  -9.249
REMARK INTRA:                  -1.188
REMARK UNBOUND:                -0.874
REMARK  Name = 
REMARK  5 active torsions:
REMARK  status: ('A' for Active; 'I' for Inactive)
REMARK    1  A    between atoms: C_2  and  C_3
REMARK    2  A    between atoms: C_8  and  N_9
REMARK    3  A    between atoms: N_9  and  C_10
REMARK    4  A    between atoms: C_10  and  C_11
REMARK    5  A    between atoms: C_15  and  C_16
REMARK                            x       y       z     vdW  Elec       q    Type
REMARK                         _______ _______ _______ _____ _____    ______ ____
ROOT
ATOM      1  C   UNL     1      46.352   7.577  12.638  0.00  0.00    +0.000 C 
ATOM      2  C   UNL     1      46.602   8.899  11.899  0.00  0.00    +0.000 C 
ATOM      3  C   UNL     1      45.788   8.891  13.144  0.00  0.00    +0.000 C 
ENDROOT
BRANCH   1   4
ATOM      4  C   UNL     1      45.376   6.597  11.981  0.00  0.00    +0.000 A 
ATOM      5  C   UNL     1      43.993   6.688  12.190  0.00  0.00    +0.000 A 
ATOM      6  C   UNL     1      43.098   5.851  11.531  0.00  0.00    +0.000 A 
ATOM      7  C   UNL     1      43.569   4.912  10.616  0.00  0.00    +0.000 A 
ATOM      8  C   UNL     1      44.940   4.790  10.341  0.00  0.00    +0.000 A 
ATOM      9  C   UNL     1      45.821   5.612  11.073  0.00  0.00    +0.000 A 
BRANCH   8  10
ATOM     10  C   UNL     1      45.435   3.921   9.247  0.00  0.00    +0.000 A 
ATOM     11  C   UNL     1      46.072   4.481   8.120  0.00  0.00    +0.000 A 
ATOM     12  C   UNL     1      46.628   3.681   7.119  0.00  0.00    +0.000 A 
ATOM     13  C   UNL     1      46.565   2.298   7.229  0.00  0.00    +0.000 A 
ATOM     14 CL   UNL     1      47.287   1.311   6.019  0.00  0.00    +0.000 Cl
ATOM     15  C   UNL     1      45.934   1.711   8.321  0.00  0.00    +0.000 A 
ATOM     16  C   UNL     1      45.366   2.517   9.316  0.00  0.00    +0.000 A 
ENDBRANCH   8  10
ENDBRANCH   1   4
BRANCH   1  17
ATOM     17  N   UNL     1      47.568   6.968  13.161  0.00  0.00    +0.000 N 
ATOM     18  H   UNL     1      48.307   6.724  12.506  0.00  0.00    +0.000 HD
BRANCH  17  24
ATOM     19  C   UNL     1      47.598   5.135  14.869  0.00  0.00    +0.000 A 
ATOM     20  C   UNL     1      47.999   4.796  16.175  0.00  0.00    +0.000 A 
ATOM     21  C   UNL     1      48.647   5.731  16.974  0.00  0.00    +0.000 A 
ATOM     22  C   UNL     1      48.876   6.976  16.437  0.00  0.00    +0.000 A 
ATOM     23  N   UNL     1      48.519   7.319  15.180  0.00  0.00    +0.000 NA
ATOM     24  C   UNL     1      47.883   6.411  14.391  0.00  0.00    +0.000 A 
BRANCH  19  26
ATOM     25  N   UNL     1      46.388   3.231  13.598  0.00  0.00    +0.000 NA
ATOM     26  C   UNL     1      46.905   4.124  14.136  0.00  0.00    +0.000 C 
ENDBRANCH  19  26
ENDBRANCH  17  24
ENDBRANCH   1  17
TORSDOF 5
ENDMDL
MODEL 3
REMARK VINA RESULT:    -7.169      2.717      4.007
REMARK INTER + INTRA:         -10.138
REMARK INTER:                  -9.372
REMARK INTRA:                  -0.767
REMARK UNBOUND:                -0.874
REMARK  Name = 
REMARK  5 active torsions:
REMARK  status: ('A' for Active; 'I' for Inactive)
REMARK    1  A    between atoms: C_2  and  C_3
REMARK    2  A    between atoms: C_8  and  N_9
REMARK    3  A    between atoms: N_9  and  C_10
REMARK    4  A    between atoms: C_10  and  C_11
REMARK    5  A    between atoms: C_15  and  C_16
REMARK                            x       y       z     vdW  Elec       q    Type
REMARK                         _______ _______ _______ _____ _____    ______ ____
ROOT
ATOM      1  C   UNL     1      44.003   5.827  11.172  0.00  0.00    +0.000 C 
ATOM      2  C   UNL     1      42.995   5.293  12.198  0.00  0.00    +0.000 C 
ATOM      3  C   UNL     1      42.913   6.709  11.751  0.00  0.00    +0.000 C 
ENDROOT
BRANCH   1   4
ATOM      4  C   UNL     1      45.434   6.055  11.668  0.00  0.00    +0.000 A 
ATOM      5  C   UNL     1      46.293   6.964  11.036  0.00  0.00    +0.000 A 
ATOM      6  C   UNL     1      47.565   7.235  11.533  0.00  0.00    +0.000 A 
ATOM      7  C   UNL     1      48.000   6.616  12.702  0.00  0.00    +0.000 A 
ATOM      8  C   UNL     1      47.176   5.717  13.399  0.00  0.00    +0.000 A 
ATOM      9  C   UNL     1      45.920   5.422  12.831  0.00  0.00    +0.000 A 
BRANCH   8  10
ATOM     10  C   UNL     1      47.559   5.190  14.730  0.00  0.00    +0.000 A 
ATOM     11  C   UNL     1      48.360   5.958  15.600  0.00  0.00    +0.000 A 
ATOM     12  C   UNL     1      48.661   5.525  16.894  0.00  0.00    +0.000 A 
ATOM     13  C   UNL     1      48.157   4.314  17.349  0.00  0.00    +0.000 A 
ATOM     14 CL   UNL     1      48.489   3.799  18.956  0.00  0.00    +0.000 Cl
ATOM     15  C   UNL     1      47.372   3.525  16.513  0.00  0.00    +0.000 A 
ATOM     16  C   UNL     1      47.085   3.956  15.212  0.00  0.00    +0.000 A 
ENDBRANCH   8  10
ENDBRANCH   1   4
BRANCH   1  17
ATOM     17  N   UNL     1      43.906   5.176   9.872  0.00  0.00    +0.000 N 
ATOM     18  H   UNL     1      43.101   5.383   9.287  0.00  0.00    +0.000 HD
BRANCH  17  24
ATOM     19  C   UNL     1      44.582   2.769   9.693  0.00  0.00    +0.000 A 
ATOM     20  C   UNL     1      45.377   1.856   8.975  0.00  0.00    +0.000 A 
ATOM     21  C   UNL     1      46.165   2.294   7.916  0.00  0.00    +0.000 A 
ATOM     22  C   UNL     1      46.127   3.633   7.608  0.00  0.00    +0.000 A 
ATOM     23  N   UNL     1      45.357   4.525   8.268  0.00  0.00    +0.000 NA
ATOM     24  C   UNL     1      44.584   4.107   9.307  0.00  0.00    +0.000 A 
BRANCH  19  26
ATOM     25  N   UNL     1      43.160   1.771  11.613  0.00  0.00    +0.000 NA
ATOM     26  C   UNL     1      43.837   2.236  10.789  0.00  0.00    +0.000 C 
ENDBRANCH  19  26
ENDBRANCH  17  24
ENDBRANCH   1  17
TORSDOF 5
ENDMDL
MODEL 4
REMARK VINA RESULT:    -7.127      4.274      7.324
REMARK INTER + INTRA:         -10.085
REMARK INTER:                  -8.797
REMARK INTRA:                  -1.287
REMARK UNBOUND:                -0.874
REMARK  Name = 
REMARK  5 active torsions:
REMARK  status: ('A' for Active; 'I' for Inactive)
REMARK    1  A    between atoms: C_2  and  C_3
REMARK    2  A    between atoms: C_8  and  N_9
REMARK    3  A    between atoms: N_9  and  C_10
REMARK    4  A    between atoms: C_10  and  C_11
REMARK    5  A    between atoms: C_15  and  C_16
REMARK                            x       y       z     vdW  Elec       q    Type
REMARK                         _______ _______ _______ _____ _____    ______ ____
ROOT
ATOM      1  C   UNL     1      48.952   7.652  14.248  0.00  0.00    +0.000 C 
ATOM      2  C   UNL     1      50.154   8.019  13.367  0.00  0.00    +0.000 C 
ATOM      3  C   UNL     1      49.671   8.980  14.393  0.00  0.00    +0.000 C 
ENDROOT
BRANCH   1   4
ATOM      4  C   UNL     1      47.577   7.663  13.575  0.00  0.00    +0.000 A 
ATOM      5  C   UNL     1      46.813   8.835  13.487  0.00  0.00    +0.000 A 
ATOM      6  C   UNL     1      45.600   8.867  12.804  0.00  0.00    +0.000 A 
ATOM      7  C   UNL     1      45.133   7.722  12.164  0.00  0.00    +0.000 A 
ATOM      8  C   UNL     1      45.865   6.524  12.190  0.00  0.00    +0.000 A 
ATOM      9  C   UNL     1      47.057   6.514  12.943  0.00  0.00    +0.000 A 
BRANCH   8  10
ATOM     10  C   UNL     1      45.466   5.356  11.370  0.00  0.00    +0.000 A 
ATOM     11  C   UNL     1      45.610   5.384   9.968  0.00  0.00    +0.000 A 
ATOM     12  C   UNL     1      45.328   4.266   9.179  0.00  0.00    +0.000 A 
ATOM     13  C   UNL     1      44.902   3.089   9.781  0.00  0.00    +0.000 A 
ATOM     14 CL   UNL     1      44.595   1.698   8.817  0.00  0.00    +0.000 Cl
ATOM     15  C   UNL     1      44.738   3.029  11.161  0.00  0.00    +0.000 A 
ATOM     16  C   UNL     1      45.009   4.157  11.947  0.00  0.00    +0.000 A 
ENDBRANCH   8  10
ENDBRANCH   1   4
BRANCH   1  17
ATOM     17  N   UNL     1      49.199   6.505  15.113  0.00  0.00    +0.000 N 
ATOM     18  H   UNL     1      49.818   5.772  14.779  0.00  0.00    +0.000 HD
BRANCH  17  24
ATOM     19  C   UNL     1      47.797   4.909  16.442  0.00  0.00    +0.000 A 
ATOM     20  C   UNL     1      47.240   4.659  17.711  0.00  0.00    +0.000 A 
ATOM     21  C   UNL     1      47.451   5.552  18.756  0.00  0.00    +0.000 A 
ATOM     22  C   UNL     1      48.215   6.665  18.497  0.00  0.00    +0.000 A 
ATOM     23  N   UNL     1      48.777   6.915  17.294  0.00  0.00    +0.000 NA
ATOM     24  C   UNL     1      48.575   6.049  16.265  0.00  0.00    +0.000 A 
BRANCH  19  26
ATOM     25  N   UNL     1      47.339   3.210  14.543  0.00  0.00    +0.000 NA
ATOM     26  C   UNL     1      47.495   3.958  15.420  0.00  0.00    +0.000 C 
ENDBRANCH  19  26
ENDBRANCH  17  24
ENDBRANCH   1  17
TORSDOF 5
ENDMDL
MODEL 5
REMARK VINA RESULT:    -7.067      3.443      6.708
REMARK INTER + INTRA:         -10.007
REMARK INTER:                  -8.916
REMARK INTRA:                  -1.091
REMARK UNBOUND:                -0.874
REMARK  Name = 
REMARK  5 active torsions:
REMARK  status: ('A' for Active; 'I' for Inactive)
REMARK    1  A    between atoms: C_2  and  C_3
REMARK    2  A    between atoms: C_8  and  N_9
REMARK    3  A    between atoms: N_9  and  C_10
REMARK    4  A    between atoms: C_10  and  C_11
REMARK    5  A    between atoms: C_15  and  C_16
REMARK                            x       y       z     vdW  Elec       q    Type
REMARK                         _______ _______ _______ _____ _____    ______ ____
ROOT
ATOM      1  C   UNL     1      45.851   5.303  13.146  0.00  0.00    +0.000 C 
ATOM      2  C   UNL     1      46.413   4.779  14.474  0.00  0.00    +0.000 C 
ATOM      3  C   UNL     1      47.343   5.164  13.379  0.00  0.00    +0.000 C 
ENDROOT
BRANCH   1   4
ATOM      4  C   UNL     1      45.181   4.275  12.230  0.00  0.00    +0.000 A 
ATOM      5  C   UNL     1      43.904   3.769  12.506  0.00  0.00    +0.000 A 
ATOM      6  C   UNL     1      43.258   2.898  11.633  0.00  0.00    +0.000 A 
ATOM      7  C   UNL     1      43.871   2.531  10.438  0.00  0.00    +0.000 A 
ATOM      8  C   UNL     1      45.138   3.026  10.089  0.00  0.00    +0.000 A 
ATOM      9  C   UNL     1      45.786   3.857  11.026  0.00  0.00    +0.000 A 
BRANCH   8  10
ATOM     10  C   UNL     1      45.720   2.784   8.747  0.00  0.00    +0.000 A 
ATOM     11  C   UNL     1      45.918   3.853   7.850  0.00  0.00    +0.000 A 
ATOM     12  C   UNL     1      46.547   3.668   6.616  0.00  0.00    +0.000 A 
ATOM     13  C   UNL     1      47.001   2.406   6.258  0.00  0.00    +0.000 A 
ATOM     14 CL   UNL     1      47.814   2.183   4.758  0.00  0.00    +0.000 Cl
ATOM     15  C   UNL     1      46.812   1.326   7.114  0.00  0.00    +0.000 A 
ATOM     16  C   UNL     1      46.168   1.513   8.344  0.00  0.00    +0.000 A 
ENDBRANCH   8  10
ENDBRANCH   1   4
BRANCH   1  17
ATOM     17  N   UNL     1      45.128   6.561  13.281  0.00  0.00    +0.000 N 
ATOM     18  H   UNL     1      44.240   6.559  13.774  0.00  0.00    +0.000 HD
BRANCH  17  24
ATOM     19  C   UNL     1      46.225   8.784  12.907  0.00  0.00    +0.000 A 
ATOM     20  C   UNL     1      46.161   9.980  12.167  0.00  0.00    +0.000 A 
ATOM     21  C   UNL     1      45.150  10.172  11.232  0.00  0.00    +0.000 A 
ATOM     22  C   UNL     1      44.238   9.158  11.065  0.00  0.00    +0.000 A 
ATOM     23  N   UNL     1      44.290   7.992  11.747  0.00  0.00    +0.000 NA
ATOM     24  C   UNL     1      45.274   7.796  12.666  0.00  0.00    +0.000 A 
BRANCH  19  26
ATOM     25  N   UNL     1      48.056   8.585  14.726  0.00  0.00    +0.000 NA
ATOM     26  C   UNL     1      47.274   8.690  13.872  0.00  0.00    +0.000 C 
ENDBRANCH  19  26
ENDBRANCH  17  24
ENDBRANCH   1  17
TORSDOF 5
ENDMDL
MODEL 6
REMARK VINA RESULT:    -6.859      3.149      6.464
REMARK INTER + INTRA:          -9.737
REMARK INTER:                  -8.346
REMARK INTRA:                  -1.391
REMARK UNBOUND:                -0.874
REMARK  Name = 
REMARK  5 active torsions:
REMARK  status: ('A' for Active; 'I' for Inactive)
REMARK    1  A    between atoms: C_2  and  C_3
REMARK    2  A    between atoms: C_8  and  N_9
REMARK    3  A    between atoms: N_9  and  C_10
REMARK    4  A    between atoms: C_10  and  C_11
REMARK    5  A    between atoms: C_15  and  C_16
REMARK                            x       y       z     vdW  Elec       q    Type
REMARK                         _______ _______ _______ _____ _____    ______ ____
ROOT
ATOM      1  C   UNL     1      46.665   4.730  14.319  0.00  0.00    +0.000 C 
ATOM      2  C   UNL     1      46.508   4.061  15.691  0.00  0.00    +0.000 C 
ATOM      3  C   UNL     1      47.542   3.567  14.744  0.00  0.00    +0.000 C 
ENDROOT
BRANCH   1   4
ATOM      4  C   UNL     1      45.569   4.448  13.288  0.00  0.00    +0.000 A 
ATOM      5  C   UNL     1      44.224   4.746  13.548  0.00  0.00    +0.000 A 
ATOM      6  C   UNL     1      43.236   4.568  12.583  0.00  0.00    +0.000 A 
ATOM      7  C   UNL     1      43.580   4.109  11.314  0.00  0.00    +0.000 A 
ATOM      8  C   UNL     1      44.913   3.821  10.981  0.00  0.00    +0.000 A 
ATOM      9  C   UNL     1      45.876   3.954  12.003  0.00  0.00    +0.000 A 
BRANCH   8  10
ATOM     10  C   UNL     1      45.312   3.503   9.590  0.00  0.00    +0.000 A 
ATOM     11  C   UNL     1      45.699   4.529   8.704  0.00  0.00    +0.000 A 
ATOM     12  C   UNL     1      46.165   4.250   7.416  0.00  0.00    +0.000 A 
ATOM     13  C   UNL     1      46.262   2.932   6.991  0.00  0.00    +0.000 A 
ATOM     14 CL   UNL     1      46.876   2.583   5.422  0.00  0.00    +0.000 Cl
ATOM     15  C   UNL     1      45.877   1.894   7.834  0.00  0.00    +0.000 A 
ATOM     16  C   UNL     1      45.397   2.179   9.119  0.00  0.00    +0.000 A 
ENDBRANCH   8  10
ENDBRANCH   1   4
BRANCH   1  17
ATOM     17  N   UNL     1      47.083   6.123  14.399  0.00  0.00    +0.000 N 
ATOM     18  H   UNL     1      46.642   6.721  15.093  0.00  0.00    +0.000 HD
BRANCH  17  24
ATOM     19  C   UNL     1      47.409   7.661  12.447  0.00  0.00    +0.000 A 
ATOM     20  C   UNL     1      48.364   8.393  11.716  0.00  0.00    +0.000 A 
ATOM     21  C   UNL     1      49.704   8.360  12.084  0.00  0.00    +0.000 A 
ATOM     22  C   UNL     1      50.045   7.598  13.176  0.00  0.00    +0.000 A 
ATOM     23  N   UNL     1      49.145   6.904  13.906  0.00  0.00    +0.000 NA
ATOM     24  C   UNL     1      47.831   6.927  13.553  0.00  0.00    +0.000 A 
BRANCH  19  26
ATOM     25  N   UNL     1      44.944   7.703  11.659  0.00  0.00    +0.000 NA
ATOM     26  C   UNL     1      46.063   7.723  11.973  0.00  0.00    +0.000 C 
ENDBRANCH  19  26
ENDBRANCH  17  24
ENDBRANCH   1  17
TORSDOF 5
ENDMDL
MODEL 7
REMARK VINA RESULT:    -6.511      5.393      7.774
REMARK INTER + INTRA:          -9.289
REMARK INTER:                  -8.009
REMARK INTRA:                  -1.280
REMARK UNBOUND:                -0.874
REMARK  Name = 
REMARK  5 active torsions:
REMARK  status: ('A' for Active; 'I' for Inactive)
REMARK    1  A    between atoms: C_2  and  C_3
REMARK    2  A    between atoms: C_8  and  N_9
REMARK    3  A    between atoms: N_9  and  C_10
REMARK    4  A    between atoms: C_10  and  C_11
REMARK    5  A    between atoms: C_15  and  C_16
REMARK                            x       y       z     vdW  Elec       q    Type
REMARK                         _______ _______ _______ _____ _____    ______ ____
ROOT
ATOM      1  C   UNL     1      48.859   6.250  18.033  0.00  0.00    +0.000 C 
ATOM      2  C   UNL     1      48.647   7.399  19.027  0.00  0.00    +0.000 C 
ATOM      3  C   UNL     1      47.509   6.511  18.672  0.00  0.00    +0.000 C 
ENDROOT
BRANCH   1   4
ATOM      4  C   UNL     1      49.030   6.638  16.561  0.00  0.00    +0.000 A 
ATOM      5  C   UNL     1      50.200   7.254  16.097  0.00  0.00    +0.000 A 
ATOM      6  C   UNL     1      50.393   7.533  14.746  0.00  0.00    +0.000 A 
ATOM      7  C   UNL     1      49.420   7.173  13.817  0.00  0.00    +0.000 A 
ATOM      8  C   UNL     1      48.238   6.527  14.215  0.00  0.00    +0.000 A 
ATOM      9  C   UNL     1      48.052   6.317  15.596  0.00  0.00    +0.000 A 
BRANCH   8  10
ATOM     10  C   UNL     1      47.281   5.985  13.221  0.00  0.00    +0.000 A 
ATOM     11  C   UNL     1      46.513   4.840  13.519  0.00  0.00    +0.000 A 
ATOM     12  C   UNL     1      45.540   4.361  12.638  0.00  0.00    +0.000 A 
ATOM     13  C   UNL     1      45.309   5.025  11.441  0.00  0.00    +0.000 A 
ATOM     14 CL   UNL     1      44.082   4.462  10.374  0.00  0.00    +0.000 Cl
ATOM     15  C   UNL     1      46.056   6.151  11.110  0.00  0.00    +0.000 A 
ATOM     16  C   UNL     1      47.041   6.620  11.989  0.00  0.00    +0.000 A 
ENDBRANCH   8  10
ENDBRANCH   1   4
BRANCH   1  17
ATOM     17  N   UNL     1      49.793   5.238  18.509  0.00  0.00    +0.000 N 
ATOM     18  H   UNL     1      50.452   5.494  19.239  0.00  0.00    +0.000 HD
BRANCH  17  24
ATOM     19  C   UNL     1      49.354   2.998  17.474  0.00  0.00    +0.000 A 
ATOM     20  C   UNL     1      49.954   1.795  17.054  0.00  0.00    +0.000 A 
ATOM     21  C   UNL     1      51.324   1.607  17.201  0.00  0.00    +0.000 A 
ATOM     22  C   UNL     1      52.050   2.632  17.760  0.00  0.00    +0.000 A 
ATOM     23  N   UNL     1      51.501   3.803  18.151  0.00  0.00    +0.000 NA
ATOM     24  C   UNL     1      50.161   3.996  18.014  0.00  0.00    +0.000 A 
BRANCH  19  26
ATOM     25  N   UNL     1      46.791   3.259  17.219  0.00  0.00    +0.000 NA
ATOM     26  C   UNL     1      47.937   3.087  17.320  0.00  0.00    +0.000 C 
ENDBRANCH  19  26
ENDBRANCH  17  24
ENDBRANCH   1  17
TORSDOF 5
ENDMDL
MODEL 8
REMARK VINA RESULT:    -6.296      3.706      5.083
REMARK INTER + INTRA:          -9.010
REMARK INTER:                  -7.856
REMARK INTRA:                  -1.154
REMARK UNBOUND:                -0.874
REMARK  Name = 
REMARK  5 active torsions:
REMARK  status: ('A' for Active; 'I' for Inactive)
REMARK    1  A    between atoms: C_2  and  C_3
REMARK    2  A    between atoms: C_8  and  N_9
REMARK    3  A    between atoms: N_9  and  C_10
REMARK    4  A    between atoms: C_10  and  C_11
REMARK    5  A    between atoms: C_15  and  C_16
REMARK                            x       y       z     vdW  Elec       q    Type
REMARK                         _______ _______ _______ _____ _____    ______ ____
ROOT
ATOM      1  C   UNL     1      45.912   7.643  12.696  0.00  0.00    +0.000 C 
ATOM      2  C   UNL     1      45.232   9.008  12.860  0.00  0.00    +0.000 C 
ATOM      3  C   UNL     1      45.444   8.448  11.499  0.00  0.00    +0.000 C 
ENDROOT
BRANCH   1   4
ATOM      4  C   UNL     1      47.418   7.587  12.965  0.00  0.00    +0.000 A 
ATOM      5  C   UNL     1      48.342   8.167  12.085  0.00  0.00    +0.000 A 
ATOM      6  C   UNL     1      49.705   8.191  12.367  0.00  0.00    +0.000 A 
ATOM      7  C   UNL     1      50.176   7.654  13.562  0.00  0.00    +0.000 A 
ATOM      8  C   UNL     1      49.299   7.085  14.500  0.00  0.00    +0.000 A 
ATOM      9  C   UNL     1      47.934   7.024  14.151  0.00  0.00    +0.000 A 
BRANCH   8  10
ATOM     10  C   UNL     1      49.766   6.672  15.844  0.00  0.00    +0.000 A 
ATOM     11  C   UNL     1      48.860   6.136  16.783  0.00  0.00    +0.000 A 
ATOM     12  C   UNL     1      49.288   5.655  18.023  0.00  0.00    +0.000 A 
ATOM     13  C   UNL     1      50.637   5.694  18.347  0.00  0.00    +0.000 A 
ATOM     14 CL   UNL     1      51.172   5.063  19.856  0.00  0.00    +0.000 Cl
ATOM     15  C   UNL     1      51.558   6.226  17.450  0.00  0.00    +0.000 A 
ATOM     16  C   UNL     1      51.123   6.720  16.214  0.00  0.00    +0.000 A 
ENDBRANCH   8  10
ENDBRANCH   1   4
BRANCH   1  17
ATOM     17  N   UNL     1      45.149   6.544  13.275  0.00  0.00    +0.000 N 
ATOM     18  H   UNL     1      45.050   6.504  14.286  0.00  0.00    +0.000 HD
BRANCH  17  24
ATOM     19  C   UNL     1      45.236   4.076  12.850  0.00  0.00    +0.000 A 
ATOM     20  C   UNL     1      44.591   3.003  12.206  0.00  0.00    +0.000 A 
ATOM     21  C   UNL     1      43.434   3.223  11.467  0.00  0.00    +0.000 A 
ATOM     22  C   UNL     1      42.958   4.511  11.400  0.00  0.00    +0.000 A 
ATOM     23  N   UNL     1      43.548   5.554  12.026  0.00  0.00    +0.000 NA
ATOM     24  C   UNL     1      44.681   5.349  12.750  0.00  0.00    +0.000 A 
BRANCH  19  26
ATOM     25  N   UNL     1      47.425   3.422  14.068  0.00  0.00    +0.000 NA
ATOM     26  C   UNL     1      46.439   3.762  13.553  0.00  0.00    +0.000 C 
ENDBRANCH  19  26
ENDBRANCH  17  24
ENDBRANCH   1  17
TORSDOF 5
ENDMDL
MODEL 9
REMARK VINA RESULT:    -6.117      4.389      5.878
REMARK INTER + INTRA:          -8.780
REMARK INTER:                  -7.853
REMARK INTRA:                  -0.926
REMARK UNBOUND:                -0.874
REMARK  Name = 
REMARK  5 active torsions:
REMARK  status: ('A' for Active; 'I' for Inactive)
REMARK    1  A    between atoms: C_2  and  C_3
REMARK    2  A    between atoms: C_8  and  N_9
REMARK    3  A    between atoms: N_9  and  C_10
REMARK    4  A    between atoms: C_10  and  C_11
REMARK    5  A    between atoms: C_15  and  C_16
REMARK                            x       y       z     vdW  Elec       q    Type
REMARK                         _______ _______ _______ _____ _____    ______ ____
ROOT
ATOM      1  C   UNL     1      47.401   7.473  13.079  0.00  0.00    +0.000 C 
ATOM      2  C   UNL     1      47.414   8.580  12.018  0.00  0.00    +0.000 C 
ATOM      3  C   UNL     1      48.212   7.344  11.804  0.00  0.00    +0.000 C 
ENDROOT
BRANCH   1   4
ATOM      4  C   UNL     1      48.164   7.755  14.376  0.00  0.00    +0.000 A 
ATOM      5  C   UNL     1      47.905   8.897  15.146  0.00  0.00    +0.000 A 
ATOM      6  C   UNL     1      48.538   9.115  16.367  0.00  0.00    +0.000 A 
ATOM      7  C   UNL     1      49.434   8.171  16.863  0.00  0.00    +0.000 A 
ATOM      8  C   UNL     1      49.715   6.992  16.153  0.00  0.00    +0.000 A 
ATOM      9  C   UNL     1      49.102   6.836  14.893  0.00  0.00    +0.000 A 
BRANCH   8  10
ATOM     10  C   UNL     1      50.527   5.905  16.750  0.00  0.00    +0.000 A 
ATOM     11  C   UNL     1      51.928   6.030  16.848  0.00  0.00    +0.000 A 
ATOM     12  C   UNL     1      52.708   5.063  17.487  0.00  0.00    +0.000 A 
ATOM     13  C   UNL     1      52.098   3.950  18.051  0.00  0.00    +0.000 A 
ATOM     14 CL   UNL     1      53.051   2.779  18.876  0.00  0.00    +0.000 Cl
ATOM     15  C   UNL     1      50.719   3.789  17.964  0.00  0.00    +0.000 A 
ATOM     16  C   UNL     1      49.942   4.754  17.310  0.00  0.00    +0.000 A 
ENDBRANCH   8  10
ENDBRANCH   1   4
BRANCH   1  17
ATOM     17  N   UNL     1      46.089   6.864  13.264  0.00  0.00    +0.000 N 
ATOM     18  H   UNL     1      45.546   7.126  14.082  0.00  0.00    +0.000 HD
BRANCH  17  24
ATOM     19  C   UNL     1      45.712   4.423  12.841  0.00  0.00    +0.000 A 
ATOM     20  C   UNL     1      44.961   3.495  12.095  0.00  0.00    +0.000 A 
ATOM     21  C   UNL     1      44.009   3.936  11.183  0.00  0.00    +0.000 A 
ATOM     22  C   UNL     1      43.836   5.293  11.051  0.00  0.00    +0.000 A 
ATOM     23  N   UNL     1      44.530   6.203  11.770  0.00  0.00    +0.000 NA
ATOM     24  C   UNL     1      45.466   5.782  12.663  0.00  0.00    +0.000 A 
BRANCH  19  26
ATOM     25  N   UNL     1      47.486   3.349  14.392  0.00  0.00    +0.000 NA
ATOM     26  C   UNL     1      46.695   3.880  13.724  0.00  0.00    +0.000 C 
ENDBRANCH  19  26
ENDBRANCH  17  24
ENDBRANCH   1  17
TORSDOF 5
ENDMDL
