MODEL 1
REMARK VINA RESULT:    -7.292      0.000      0.000
REMARK INTER + INTRA:         -13.140
REMARK INTER:                 -11.767
REMARK INTRA:                  -1.373
REMARK UNBOUND:                -1.373
REMARK  Name = 
REMARK  13 active torsions:
REMARK  status: ('A' for Active; 'I' for Inactive)
REMARK    1  A    between atoms: C_1  and  C_2
REMARK    2  A    between atoms: C_2  and  N_3
REMARK    3  A    between atoms: C_2  and  C_21
REMARK    4  A    between atoms: N_3  and  C_4
REMARK    5  A    between atoms: C_4  and  C_5
REMARK    6  A    between atoms: C_5  and  O_6
REMARK    7  A    between atoms: C_5  and  C_7
REMARK    8  A    between atoms: C_10  and  C_11
REMARK    9  A    between atoms: C_11  and  N_12
REMARK   10  A    between atoms: N_12  and  C_13
REMARK   11  A    between atoms: C_13  and  C_14
REMARK   12  A    between atoms: C_21  and  C_23
REMARK   13  A    between atoms: N_29  and  C_30
REMARK                            x       y       z     vdW  Elec       q    Type
REMARK                         _______ _______ _______ _____ _____    ______ ____
ROOT
ATOM      1  C   UNL     1      47.288   7.065  13.856  0.00  0.00    +0.000 C 
ENDROOT
BRANCH   1   2
ATOM      2  C   UNL     1      46.499   6.218  12.881  0.00  0.00    +0.000 A 
ATOM      3  C   UNL     1      45.875   5.050  13.338  0.00  0.00    +0.000 A 
ATOM      4  C   UNL     1      45.132   4.259  12.465  0.00  0.00    +0.000 A 
ATOM      5  C   UNL     1      44.995   4.626  11.115  0.00  0.00    +0.000 A 
ATOM      6  C   UNL     1      45.626   5.782  10.659  0.00  0.00    +0.000 A 
ATOM      7  C   UNL     1      46.388   6.560  11.529  0.00  0.00    +0.000 A 
BRANCH   5   8
ATOM      8  C   UNL     1      44.206   3.796  10.136  0.00  0.00    +0.000 C 
BRANCH   8   9
ATOM      9  N   UNL     1      44.268   4.364   8.799  0.00  0.00    +0.000 NA
ATOM     10  H   UNL     1      44.907   5.161   8.804  0.00  0.00    +0.000 HD
BRANCH   9  11
ATOM     11  C   UNL     1      44.751   3.381   7.826  0.00  0.00    +0.000 C 
BRANCH  11  12
ATOM     12  C   UNL     1      46.293   3.481   7.757  0.00  0.00    +0.000 C 
ATOM     13  C   UNL     1      46.970   2.128   7.768  0.00  0.00    +0.000 C 
ATOM     14  C   UNL     1      46.863   1.679   6.324  0.00  0.00    +0.000 C 
ATOM     15  C   UNL     1      46.854   2.973   5.518  0.00  0.00    +0.000 C 
ATOM     16  N   UNL     1      46.748   4.070   6.483  0.00  0.00    +0.000 NA
ATOM     17  H   UNL     1      46.048   4.752   6.179  0.00  0.00    +0.000 HD
ENDBRANCH  11  12
ENDBRANCH   9  11
ENDBRANCH   8   9
ENDBRANCH   5   8
ENDBRANCH   1   2
BRANCH   1  18
ATOM     18  O   UNL     1      46.828   8.423  13.826  0.00  0.00    +0.000 OA
ATOM     19  H   UNL     1      45.941   8.438  14.220  0.00  0.00    +0.000 HD
ENDBRANCH   1  18
BRANCH   1  20
ATOM     20  C   UNL     1      48.786   7.048  13.516  0.00  0.00    +0.000 C 
BRANCH  20  21
ATOM     21  N   UNL     1      49.574   6.523  14.648  0.00  0.00    +0.000 NA
ATOM     22  H   UNL     1      49.158   5.620  14.895  0.00  0.00    +0.000 HD
BRANCH  21  24
ATOM     23  C   UNL     1      50.927   8.118  16.005  0.00  0.00    +0.000 C 
ATOM     24  C   UNL     1      49.569   7.431  15.815  0.00  0.00    +0.000 C 
BRANCH  24  25
ATOM     25  C   UNL     1      49.141   6.671  17.093  0.00  0.00    +0.000 C 
ATOM     26  O   UNL     1      48.956   7.289  18.139  0.00  0.00    +0.000 OA
BRANCH  25  27
ATOM     27  C   UNL     1      48.965   5.207  17.033  0.00  0.00    +0.000 A 
ATOM     28  C   UNL     1      47.790   4.583  16.653  0.00  0.00    +0.000 A 
ATOM     29  S   UNL     1      47.885   2.876  16.713  0.00  0.00    +0.000 S 
ATOM     30  C   UNL     1      49.535   2.935  17.139  0.00  0.00    +0.000 A 
ATOM     31  N   UNL     1      50.263   1.784  17.242  0.00  0.00    +0.000 NA
ATOM     32  C   UNL     1      51.497   1.984  17.499  0.00  0.00    +0.000 A 
ATOM     33  N   UNL     1      52.110   3.208  17.696  0.00  0.00    +0.000 N 
ATOM     34  C   UNL     1      53.527   3.296  17.989  0.00  0.00    +0.000 C 
ATOM     35  C   UNL     1      51.381   4.399  17.688  0.00  0.00    +0.000 A 
ATOM     36  O   UNL     1      51.887   5.475  17.976  0.00  0.00    +0.000 OA
ATOM     37  C   UNL     1      49.983   4.226  17.318  0.00  0.00    +0.000 A 
ENDBRANCH  25  27
ENDBRANCH  24  25
ENDBRANCH  21  24
ENDBRANCH  20  21
ENDBRANCH   1  20
TORSDOF 11
ENDMDL
MODEL 2
REMARK VINA RESULT:    -7.242      2.302      3.129
REMARK INTER + INTRA:         -13.060
REMARK INTER:                 -11.499
REMARK INTRA:                  -1.561
REMARK UNBOUND:                -1.373
REMARK  Name = 
REMARK  13 active torsions:
REMARK  status: ('A' for Active; 'I' for Inactive)
REMARK    1  A    between atoms: C_1  and  C_2
REMARK    2  A    between atoms: C_2  and  N_3
REMARK    3  A    between atoms: C_2  and  C_21
REMARK    4  A    between atoms: N_3  and  C_4
REMARK    5  A    between atoms: C_4  and  C_5
REMARK    6  A    between atoms: C_5  and  O_6
REMARK    7  A    between atoms: C_5  and  C_7
REMARK    8  A    between atoms: C_10  and  C_11
REMARK    9  A    between atoms: C_11  and  N_12
REMARK   10  A    between atoms: N_12  and  C_13
REMARK   11  A    between atoms: C_13  and  C_14
REMARK   12  A    between atoms: C_21  and  C_23
REMARK   13  A    between atoms: N_29  and  C_30
REMARK                            x       y       z     vdW  Elec       q    Type
REMARK                         _______ _______ _______ _____ _____    ______ ____
ROOT
ATOM      1  C   UNL     1      47.466   7.196  13.742  0.00  0.00    +0.000 C 
ENDROOT
BRANCH   1   2
ATOM      2  C   UNL     1      46.634   6.301  12.850  0.00  0.00    +0.000 A 
ATOM      3  C   UNL     1      46.300   6.737  11.561  0.00  0.00    +0.000 A 
ATOM      4  C   UNL     1      45.548   5.927  10.714  0.00  0.00    +0.000 A 
ATOM      5  C   UNL     1      45.116   4.659  11.141  0.00  0.00    +0.000 A 
ATOM      6  C   UNL     1      45.438   4.231  12.428  0.00  0.00    +0.000 A 
ATOM      7  C   UNL     1      46.174   5.052  13.282  0.00  0.00    +0.000 A 
BRANCH   5   8
ATOM      8  C   UNL     1      44.293   3.755  10.261  0.00  0.00    +0.000 C 
BRANCH   8   9
ATOM      9  N   UNL     1      44.136   4.321   8.930  0.00  0.00    +0.000 NA
ATOM     10  H   UNL     1      44.670   5.189   8.871  0.00  0.00    +0.000 HD
BRANCH   9  11
ATOM     11  C   UNL     1      44.622   3.399   7.901  0.00  0.00    +0.000 C 
BRANCH  11  12
ATOM     12  C   UNL     1      46.168   3.387   7.949  0.00  0.00    +0.000 C 
ATOM     13  C   UNL     1      46.749   2.002   7.763  0.00  0.00    +0.000 C 
ATOM     14  C   UNL     1      46.722   1.817   6.259  0.00  0.00    +0.000 C 
ATOM     15  C   UNL     1      46.863   3.227   5.695  0.00  0.00    +0.000 C 
ATOM     16  N   UNL     1      46.757   4.147   6.830  0.00  0.00    +0.000 NA
ATOM     17  H   UNL     1      46.129   4.924   6.608  0.00  0.00    +0.000 HD
ENDBRANCH  11  12
ENDBRANCH   9  11
ENDBRANCH   8   9
ENDBRANCH   5   8
ENDBRANCH   1   2
BRANCH   1  18
ATOM     18  O   UNL     1      46.777   8.428  13.997  0.00  0.00    +0.000 OA
ATOM     19  H   UNL     1      47.298   9.142  13.597  0.00  0.00    +0.000 HD
ENDBRANCH   1  18
BRANCH   1  20
ATOM     20  C   UNL     1      48.820   7.519  13.093  0.00  0.00    +0.000 C 
BRANCH  20  21
ATOM     21  N   UNL     1      49.930   6.970  13.897  0.00  0.00    +0.000 NA
ATOM     22  H   UNL     1      49.508   6.311  14.559  0.00  0.00    +0.000 HD
BRANCH  21  24
ATOM     23  C   UNL     1      51.885   8.515  13.809  0.00  0.00    +0.000 C 
ATOM     24  C   UNL     1      50.681   8.018  14.620  0.00  0.00    +0.000 C 
BRANCH  24  25
ATOM     25  C   UNL     1      51.115   7.512  16.016  0.00  0.00    +0.000 C 
ATOM     26  O   UNL     1      52.176   6.904  16.143  0.00  0.00    +0.000 OA
BRANCH  25  27
ATOM     27  C   UNL     1      50.239   7.763  17.176  0.00  0.00    +0.000 A 
ATOM     28  C   UNL     1      50.268   8.922  17.931  0.00  0.00    +0.000 A 
ATOM     29  S   UNL     1      49.154   8.906  19.230  0.00  0.00    +0.000 S 
ATOM     30  C   UNL     1      48.530   7.398  18.740  0.00  0.00    +0.000 A 
ATOM     31  N   UNL     1      47.454   6.854  19.382  0.00  0.00    +0.000 NA
ATOM     32  C   UNL     1      47.055   5.757  18.865  0.00  0.00    +0.000 A 
ATOM     33  N   UNL     1      47.615   5.104  17.783  0.00  0.00    +0.000 N 
ATOM     34  C   UNL     1      47.064   3.854  17.297  0.00  0.00    +0.000 C 
ATOM     35  C   UNL     1      48.769   5.582  17.160  0.00  0.00    +0.000 A 
ATOM     36  O   UNL     1      49.342   4.954  16.279  0.00  0.00    +0.000 OA
ATOM     37  C   UNL     1      49.213   6.874  17.664  0.00  0.00    +0.000 A 
ENDBRANCH  25  27
ENDBRANCH  24  25
ENDBRANCH  21  24
ENDBRANCH  20  21
ENDBRANCH   1  20
TORSDOF 11
ENDMDL
MODEL 3
REMARK VINA RESULT:    -7.203      2.463      3.048
REMARK INTER + INTRA:         -12.997
REMARK INTER:                 -11.217
REMARK INTRA:                  -1.780
REMARK UNBOUND:                -1.373
REMARK  Name = 
REMARK  13 active torsions:
REMARK  status: ('A' for Active; 'I' for Inactive)
REMARK    1  A    between atoms: C_1  and  C_2
REMARK    2  A    between atoms: C_2  and  N_3
REMARK    3  A    between atoms: C_2  and  C_21
REMARK    4  A    between atoms: N_3  and  C_4
REMARK    5  A    between atoms: C_4  and  C_5
REMARK    6  A    between atoms: C_5  and  O_6
REMARK    7  A    between atoms: C_5  and  C_7
REMARK    8  A    between atoms: C_10  and  C_11
REMARK    9  A    between atoms: C_11  and  N_12
REMARK   10  A    between atoms: N_12  and  C_13
REMARK   11  A    between atoms: C_13  and  C_14
REMARK   12  A    between atoms: C_21  and  C_23
REMARK   13  A    between atoms: N_29  and  C_30
REMARK                            x       y       z     vdW  Elec       q    Type
REMARK                         _______ _______ _______ _____ _____    ______ ____
ROOT
ATOM      1  C   UNL     1      48.116   7.024  12.532  0.00  0.00    +0.000 C 
ENDROOT
BRANCH   1   2
ATOM      2  C   UNL     1      46.875   6.196  12.279  0.00  0.00    +0.000 A 
ATOM      3  C   UNL     1      46.574   5.132  13.138  0.00  0.00    +0.000 A 
ATOM      4  C   UNL     1      45.431   4.362  12.936  0.00  0.00    +0.000 A 
ATOM      5  C   UNL     1      44.562   4.647  11.869  0.00  0.00    +0.000 A 
ATOM      6  C   UNL     1      44.867   5.700  11.008  0.00  0.00    +0.000 A 
ATOM      7  C   UNL     1      46.024   6.455  11.199  0.00  0.00    +0.000 A 
BRANCH   5   8
ATOM      8  C   UNL     1      43.319   3.836  11.610  0.00  0.00    +0.000 C 
BRANCH   8   9
ATOM      9  N   UNL     1      43.651   2.527  11.069  0.00  0.00    +0.000 NA
ATOM     10  H   UNL     1      42.908   2.228  10.437  0.00  0.00    +0.000 HD
BRANCH   9  11
ATOM     11  C   UNL     1      44.914   2.566  10.328  0.00  0.00    +0.000 C 
BRANCH  11  12
ATOM     12  C   UNL     1      44.619   2.225   8.848  0.00  0.00    +0.000 C 
ATOM     13  C   UNL     1      44.675   3.437   7.945  0.00  0.00    +0.000 C 
ATOM     14  C   UNL     1      46.159   3.603   7.685  0.00  0.00    +0.000 C 
ATOM     15  C   UNL     1      46.728   2.192   7.780  0.00  0.00    +0.000 C 
ATOM     16  N   UNL     1      45.647   1.335   8.275  0.00  0.00    +0.000 NA
ATOM     17  H   UNL     1      45.986   0.719   9.018  0.00  0.00    +0.000 HD
ENDBRANCH  11  12
ENDBRANCH   9  11
ENDBRANCH   8   9
ENDBRANCH   5   8
ENDBRANCH   1   2
BRANCH   1  18
ATOM     18  O   UNL     1      49.087   6.261  13.262  0.00  0.00    +0.000 OA
ATOM     19  H   UNL     1      49.648   6.888  13.744  0.00  0.00    +0.000 HD
ENDBRANCH   1  18
BRANCH   1  20
ATOM     20  C   UNL     1      47.783   8.289  13.337  0.00  0.00    +0.000 C 
BRANCH  20  21
ATOM     21  N   UNL     1      47.718   7.990  14.781  0.00  0.00    +0.000 NA
ATOM     22  H   UNL     1      46.741   8.122  15.059  0.00  0.00    +0.000 HD
BRANCH  21  24
ATOM     23  C   UNL     1      48.963  10.149  14.834  0.00  0.00    +0.000 C 
ATOM     24  C   UNL     1      48.606   8.858  15.582  0.00  0.00    +0.000 C 
BRANCH  24  25
ATOM     25  C   UNL     1      49.878   8.088  16.010  0.00  0.00    +0.000 C 
ATOM     26  O   UNL     1      50.786   7.910  15.202  0.00  0.00    +0.000 OA
BRANCH  25  27
ATOM     27  C   UNL     1      49.976   7.573  17.390  0.00  0.00    +0.000 A 
ATOM     28  C   UNL     1      50.529   8.280  18.442  0.00  0.00    +0.000 A 
ATOM     29  S   UNL     1      50.527   7.407  19.913  0.00  0.00    +0.000 S 
ATOM     30  C   UNL     1      49.682   6.110  19.199  0.00  0.00    +0.000 A 
ATOM     31  N   UNL     1      49.263   5.056  19.959  0.00  0.00    +0.000 NA
ATOM     32  C   UNL     1      48.585   4.195  19.306  0.00  0.00    +0.000 A 
ATOM     33  N   UNL     1      48.283   4.236  17.957  0.00  0.00    +0.000 N 
ATOM     34  C   UNL     1      47.505   3.183  17.332  0.00  0.00    +0.000 C 
ATOM     35  C   UNL     1      48.771   5.249  17.130  0.00  0.00    +0.000 A 
ATOM     36  O   UNL     1      48.612   5.234  15.916  0.00  0.00    +0.000 OA
ATOM     37  C   UNL     1      49.482   6.298  17.848  0.00  0.00    +0.000 A 
ENDBRANCH  25  27
ENDBRANCH  24  25
ENDBRANCH  21  24
ENDBRANCH  20  21
ENDBRANCH   1  20
TORSDOF 11
ENDMDL
MODEL 4
REMARK VINA RESULT:    -7.153      2.719      9.326
REMARK INTER + INTRA:         -12.916
REMARK INTER:                 -11.322
REMARK INTRA:                  -1.594
REMARK UNBOUND:                -1.373
REMARK  Name = 
REMARK  13 active torsions:
REMARK  status: ('A' for Active; 'I' for Inactive)
REMARK    1  A    between atoms: C_1  and  C_2
REMARK    2  A    between atoms: C_2  and  N_3
REMARK    3  A    between atoms: C_2  and  C_21
REMARK    4  A    between atoms: N_3  and  C_4
REMARK    5  A    between atoms: C_4  and  C_5
REMARK    6  A    between atoms: C_5  and  O_6
REMARK    7  A    between atoms: C_5  and  C_7
REMARK    8  A    between atoms: C_10  and  C_11
REMARK    9  A    between atoms: C_11  and  N_12
REMARK   10  A    between atoms: N_12  and  C_13
REMARK   11  A    between atoms: C_13  and  C_14
REMARK   12  A    between atoms: C_21  and  C_23
REMARK   13  A    between atoms: N_29  and  C_30
REMARK                            x       y       z     vdW  Elec       q    Type
REMARK                         _______ _______ _______ _____ _____    ______ ____
ROOT
ATOM      1  C   UNL     1      46.986   4.382  14.634  0.00  0.00    +0.000 C 
ENDROOT
BRANCH   1   2
ATOM      2  C   UNL     1      47.542   4.544  16.031  0.00  0.00    +0.000 A 
ATOM      3  C   UNL     1      48.272   5.697  16.349  0.00  0.00    +0.000 A 
ATOM      4  C   UNL     1      48.784   5.878  17.631  0.00  0.00    +0.000 A 
ATOM      5  C   UNL     1      48.570   4.908  18.625  0.00  0.00    +0.000 A 
ATOM      6  C   UNL     1      47.853   3.755  18.306  0.00  0.00    +0.000 A 
ATOM      7  C   UNL     1      47.361   3.566  17.015  0.00  0.00    +0.000 A 
BRANCH   5   8
ATOM      8  C   UNL     1      49.112   5.060  20.023  0.00  0.00    +0.000 C 
BRANCH   8   9
ATOM      9  N   UNL     1      50.330   4.285  20.199  0.00  0.00    +0.000 NA
ATOM     10  H   UNL     1      50.366   3.552  19.490  0.00  0.00    +0.000 HD
BRANCH   9  11
ATOM     11  C   UNL     1      51.520   5.129  20.062  0.00  0.00    +0.000 C 
BRANCH  11  12
ATOM     12  C   UNL     1      52.563   4.366  19.212  0.00  0.00    +0.000 C 
ATOM     13  C   UNL     1      52.108   4.144  17.787  0.00  0.00    +0.000 C 
ATOM     14  C   UNL     1      52.423   5.466  17.116  0.00  0.00    +0.000 C 
ATOM     15  C   UNL     1      53.618   6.015  17.887  0.00  0.00    +0.000 C 
ATOM     16  N   UNL     1      53.808   5.140  19.048  0.00  0.00    +0.000 NA
ATOM     17  H   UNL     1      53.955   5.693  19.896  0.00  0.00    +0.000 HD
ENDBRANCH  11  12
ENDBRANCH   9  11
ENDBRANCH   8   9
ENDBRANCH   5   8
ENDBRANCH   1   2
BRANCH   1  18
ATOM     18  O   UNL     1      47.469   3.169  14.040  0.00  0.00    +0.000 OA
ATOM     19  H   UNL     1      47.104   2.429  14.550  0.00  0.00    +0.000 HD
ENDBRANCH   1  18
BRANCH   1  20
ATOM     20  C   UNL     1      47.390   5.561  13.737  0.00  0.00    +0.000 C 
BRANCH  20  21
ATOM     21  N   UNL     1      46.256   6.486  13.544  0.00  0.00    +0.000 NA
ATOM     22  H   UNL     1      45.409   5.953  13.763  0.00  0.00    +0.000 HD
BRANCH  21  24
ATOM     23  C   UNL     1      46.424   8.538  12.139  0.00  0.00    +0.000 C 
ATOM     24  C   UNL     1      46.188   7.023  12.169  0.00  0.00    +0.000 C 
BRANCH  24  25
ATOM     25  C   UNL     1      44.839   6.652  11.508  0.00  0.00    +0.000 C 
ATOM     26  O   UNL     1      44.103   7.539  11.078  0.00  0.00    +0.000 OA
BRANCH  25  27
ATOM     27  C   UNL     1      44.453   5.231  11.408  0.00  0.00    +0.000 A 
ATOM     28  C   UNL     1      43.636   4.585  12.319  0.00  0.00    +0.000 A 
ATOM     29  S   UNL     1      43.396   2.932  11.952  0.00  0.00    +0.000 S 
ATOM     30  C   UNL     1      44.286   3.074  10.505  0.00  0.00    +0.000 A 
ATOM     31  N   UNL     1      44.376   2.018   9.643  0.00  0.00    +0.000 NA
ATOM     32  C   UNL     1      45.015   2.289   8.571  0.00  0.00    +0.000 A 
ATOM     33  N   UNL     1      45.610   3.496   8.250  0.00  0.00    +0.000 N 
ATOM     34  C   UNL     1      46.315   3.671   6.995  0.00  0.00    +0.000 C 
ATOM     35  C   UNL     1      45.617   4.567   9.145  0.00  0.00    +0.000 A 
ATOM     36  O   UNL     1      46.239   5.598   8.923  0.00  0.00    +0.000 OA
ATOM     37  C   UNL     1      44.830   4.330  10.347  0.00  0.00    +0.000 A 
ENDBRANCH  25  27
ENDBRANCH  24  25
ENDBRANCH  21  24
ENDBRANCH  20  21
ENDBRANCH   1  20
TORSDOF 11
ENDMDL
MODEL 5
REMARK VINA RESULT:    -7.136      2.011      3.241
REMARK INTER + INTRA:         -12.889
REMARK INTER:                 -11.160
REMARK INTRA:                  -1.729
REMARK UNBOUND:                -1.373
REMARK  Name = 
REMARK  13 active torsions:
REMARK  status: ('A' for Active; 'I' for Inactive)
REMARK    1  A    between atoms: C_1  and  C_2
REMARK    2  A    between atoms: C_2  and  N_3
REMARK    3  A    between atoms: C_2  and  C_21
REMARK    4  A    between atoms: N_3  and  C_4
REMARK    5  A    between atoms: C_4  and  C_5
REMARK    6  A    between atoms: C_5  and  O_6
REMARK    7  A    between atoms: C_5  and  C_7
REMARK    8  A    between atoms: C_10  and  C_11
REMARK    9  A    between atoms: C_11  and  N_12
REMARK   10  A    between atoms: N_12  and  C_13
REMARK   11  A    between atoms: C_13  and  C_14
REMARK   12  A    between atoms: C_21  and  C_23
REMARK   13  A    between atoms: N_29  and  C_30
REMARK                            x       y       z     vdW  Elec       q    Type
REMARK                         _______ _______ _______ _____ _____    ______ ____
ROOT
ATOM      1  C   UNL     1      47.225   5.596  14.144  0.00  0.00    +0.000 C 
ENDROOT
BRANCH   1   2
ATOM      2  C   UNL     1      46.379   5.293  12.927  0.00  0.00    +0.000 A 
ATOM      3  C   UNL     1      45.778   4.034  12.806  0.00  0.00    +0.000 A 
ATOM      4  C   UNL     1      44.983   3.733  11.704  0.00  0.00    +0.000 A 
ATOM      5  C   UNL     1      44.770   4.691  10.698  0.00  0.00    +0.000 A 
ATOM      6  C   UNL     1      45.378   5.941  10.812  0.00  0.00    +0.000 A 
ATOM      7  C   UNL     1      46.191   6.233  11.907  0.00  0.00    +0.000 A 
BRANCH   5   8
ATOM      8  C   UNL     1      43.924   4.405   9.484  0.00  0.00    +0.000 C 
BRANCH   8   9
ATOM      9  N   UNL     1      44.291   3.134   8.879  0.00  0.00    +0.000 NA
ATOM     10  H   UNL     1      43.466   2.535   8.836  0.00  0.00    +0.000 HD
BRANCH   9  11
ATOM     11  C   UNL     1      44.806   3.323   7.521  0.00  0.00    +0.000 C 
BRANCH  11  12
ATOM     12  C   UNL     1      46.349   3.413   7.594  0.00  0.00    +0.000 C 
ATOM     13  C   UNL     1      47.017   2.056   7.571  0.00  0.00    +0.000 C 
ATOM     14  C   UNL     1      47.036   1.709   6.095  0.00  0.00    +0.000 C 
ATOM     15  C   UNL     1      47.104   3.055   5.383  0.00  0.00    +0.000 C 
ATOM     16  N   UNL     1      46.916   4.084   6.410  0.00  0.00    +0.000 NA
ATOM     17  H   UNL     1      46.248   4.792   6.093  0.00  0.00    +0.000 HD
ENDBRANCH  11  12
ENDBRANCH   9  11
ENDBRANCH   8   9
ENDBRANCH   5   8
ENDBRANCH   1   2
BRANCH   1  18
ATOM     18  O   UNL     1      48.584   5.847  13.759  0.00  0.00    +0.000 OA
ATOM     19  H   UNL     1      48.971   4.999  13.489  0.00  0.00    +0.000 HD
ENDBRANCH   1  18
BRANCH   1  20
ATOM     20  C   UNL     1      47.205   4.425  15.137  0.00  0.00    +0.000 C 
BRANCH  20  21
ATOM     21  N   UNL     1      47.502   4.893  16.505  0.00  0.00    +0.000 NA
ATOM     22  H   UNL     1      47.915   5.826  16.408  0.00  0.00    +0.000 HD
BRANCH  21  24
ATOM     23  C   UNL     1      47.673   2.861  17.938  0.00  0.00    +0.000 C 
ATOM     24  C   UNL     1      48.425   3.992  17.227  0.00  0.00    +0.000 C 
BRANCH  24  25
ATOM     25  C   UNL     1      49.302   4.794  18.219  0.00  0.00    +0.000 C 
ATOM     26  O   UNL     1      48.789   5.310  19.209  0.00  0.00    +0.000 OA
BRANCH  25  27
ATOM     27  C   UNL     1      50.747   4.929  17.953  0.00  0.00    +0.000 A 
ATOM     28  C   UNL     1      51.715   4.106  18.501  0.00  0.00    +0.000 A 
ATOM     29  S   UNL     1      53.304   4.531  18.029  0.00  0.00    +0.000 S 
ATOM     30  C   UNL     1      52.721   5.752  16.992  0.00  0.00    +0.000 A 
ATOM     31  N   UNL     1      53.582   6.445  16.189  0.00  0.00    +0.000 NA
ATOM     32  C   UNL     1      52.999   7.278  15.418  0.00  0.00    +0.000 A 
ATOM     33  N   UNL     1      51.641   7.535  15.358  0.00  0.00    +0.000 N 
ATOM     34  C   UNL     1      51.106   8.518  14.436  0.00  0.00    +0.000 C 
ATOM     35  C   UNL     1      50.742   6.913  16.226  0.00  0.00    +0.000 A 
ATOM     36  O   UNL     1      49.557   7.217  16.265  0.00  0.00    +0.000 OA
ATOM     37  C   UNL     1      51.353   5.894  17.069  0.00  0.00    +0.000 A 
ENDBRANCH  25  27
ENDBRANCH  24  25
ENDBRANCH  21  24
ENDBRANCH  20  21
ENDBRANCH   1  20
TORSDOF 11
ENDMDL
MODEL 6
REMARK VINA RESULT:    -7.036      2.096      2.978
REMARK INTER + INTRA:         -12.728
REMARK INTER:                 -11.037
REMARK INTRA:                  -1.690
REMARK UNBOUND:                -1.373
REMARK  Name = 
REMARK  13 active torsions:
REMARK  status: ('A' for Active; 'I' for Inactive)
REMARK    1  A    between atoms: C_1  and  C_2
REMARK    2  A    between atoms: C_2  and  N_3
REMARK    3  A    between atoms: C_2  and  C_21
REMARK    4  A    between atoms: N_3  and  C_4
REMARK    5  A    between atoms: C_4  and  C_5
REMARK    6  A    between atoms: C_5  and  O_6
REMARK    7  A    between atoms: C_5  and  C_7
REMARK    8  A    between atoms: C_10  and  C_11
REMARK    9  A    between atoms: C_11  and  N_12
REMARK   10  A    between atoms: N_12  and  C_13
REMARK   11  A    between atoms: C_13  and  C_14
REMARK   12  A    between atoms: C_21  and  C_23
REMARK   13  A    between atoms: N_29  and  C_30
REMARK                            x       y       z     vdW  Elec       q    Type
REMARK                         _______ _______ _______ _____ _____    ______ ____
ROOT
ATOM      1  C   UNL     1      48.706   7.430  13.831  0.00  0.00    +0.000 C 
ENDROOT
BRANCH   1   2
ATOM      2  C   UNL     1      47.496   6.577  13.518  0.00  0.00    +0.000 A 
ATOM      3  C   UNL     1      46.503   7.082  12.669  0.00  0.00    +0.000 A 
ATOM      4  C   UNL     1      45.386   6.313  12.353  0.00  0.00    +0.000 A 
ATOM      5  C   UNL     1      45.242   5.018  12.880  0.00  0.00    +0.000 A 
ATOM      6  C   UNL     1      46.225   4.521  13.735  0.00  0.00    +0.000 A 
ATOM      7  C   UNL     1      47.332   5.301  14.067  0.00  0.00    +0.000 A 
BRANCH   5   8
ATOM      8  C   UNL     1      44.046   4.156  12.571  0.00  0.00    +0.000 C 
BRANCH   8   9
ATOM      9  N   UNL     1      44.446   2.925  11.907  0.00  0.00    +0.000 NA
ATOM     10  H   UNL     1      43.611   2.412  11.623  0.00  0.00    +0.000 HD
BRANCH   9  11
ATOM     11  C   UNL     1      45.255   3.203  10.718  0.00  0.00    +0.000 C 
BRANCH  11  12
ATOM     12  C   UNL     1      44.541   2.590   9.490  0.00  0.00    +0.000 C 
ATOM     13  C   UNL     1      44.564   3.503   8.284  0.00  0.00    +0.000 C 
ATOM     14  C   UNL     1      45.940   3.260   7.695  0.00  0.00    +0.000 C 
ATOM     15  C   UNL     1      46.274   1.823   8.077  0.00  0.00    +0.000 C 
ATOM     16  N   UNL     1      45.228   1.379   9.004  0.00  0.00    +0.000 NA
ATOM     17  H   UNL     1      45.640   0.901   9.809  0.00  0.00    +0.000 HD
ENDBRANCH  11  12
ENDBRANCH   9  11
ENDBRANCH   8   9
ENDBRANCH   5   8
ENDBRANCH   1   2
BRANCH   1  18
ATOM     18  O   UNL     1      49.738   6.635  14.431  0.00  0.00    +0.000 OA
ATOM     19  H   UNL     1      49.699   6.783  15.390  0.00  0.00    +0.000 HD
ENDBRANCH   1  18
BRANCH   1  20
ATOM     20  C   UNL     1      48.345   8.571  14.794  0.00  0.00    +0.000 C 
BRANCH  20  21
ATOM     21  N   UNL     1      48.146   8.057  16.164  0.00  0.00    +0.000 NA
ATOM     22  H   UNL     1      47.135   8.072  16.333  0.00  0.00    +0.000 HD
BRANCH  21  24
ATOM     23  C   UNL     1      49.974   9.704  16.561  0.00  0.00    +0.000 C 
ATOM     24  C   UNL     1      48.852   8.863  17.181  0.00  0.00    +0.000 C 
BRANCH  24  25
ATOM     25  C   UNL     1      49.391   7.957  18.314  0.00  0.00    +0.000 C 
ATOM     26  O   UNL     1      49.079   8.185  19.481  0.00  0.00    +0.000 OA
BRANCH  25  27
ATOM     27  C   UNL     1      50.281   6.831  17.971  0.00  0.00    +0.000 A 
ATOM     28  C   UNL     1      51.660   6.924  17.911  0.00  0.00    +0.000 A 
ATOM     29  S   UNL     1      52.414   5.458  17.456  0.00  0.00    +0.000 S 
ATOM     30  C   UNL     1      50.920   4.637  17.442  0.00  0.00    +0.000 A 
ATOM     31  N   UNL     1      50.874   3.290  17.226  0.00  0.00    +0.000 NA
ATOM     32  C   UNL     1      49.698   2.800  17.311  0.00  0.00    +0.000 A 
ATOM     33  N   UNL     1      48.532   3.499  17.565  0.00  0.00    +0.000 N 
ATOM     34  C   UNL     1      47.253   2.819  17.629  0.00  0.00    +0.000 C 
ATOM     35  C   UNL     1      48.528   4.888  17.700  0.00  0.00    +0.000 A 
ATOM     36  O   UNL     1      47.491   5.530  17.807  0.00  0.00    +0.000 OA
ATOM     37  C   UNL     1      49.859   5.480  17.691  0.00  0.00    +0.000 A 
ENDBRANCH  25  27
ENDBRANCH  24  25
ENDBRANCH  21  24
ENDBRANCH  20  21
ENDBRANCH   1  20
TORSDOF 11
ENDMDL
MODEL 7
REMARK VINA RESULT:    -6.993      2.323      8.329
REMARK INTER + INTRA:         -12.658
REMARK INTER:                 -11.129
REMARK INTRA:                  -1.529
REMARK UNBOUND:                -1.373
REMARK  Name = 
REMARK  13 active torsions:
REMARK  status: ('A' for Active; 'I' for Inactive)
REMARK    1  A    between atoms: C_1  and  C_2
REMARK    2  A    between atoms: C_2  and  N_3
REMARK    3  A    between atoms: C_2  and  C_21
REMARK    4  A    between atoms: N_3  and  C_4
REMARK    5  A    between atoms: C_4  and  C_5
REMARK    6  A    between atoms: C_5  and  O_6
REMARK    7  A    between atoms: C_5  and  C_7
REMARK    8  A    between atoms: C_10  and  C_11
REMARK    9  A    between atoms: C_11  and  N_12
REMARK   10  A    between atoms: N_12  and  C_13
REMARK   11  A    between atoms: C_13  and  C_14
REMARK   12  A    between atoms: C_21  and  C_23
REMARK   13  A    between atoms: N_29  and  C_30
REMARK                            x       y       z     vdW  Elec       q    Type
REMARK                         _______ _______ _______ _____ _____    ______ ____
ROOT
ATOM      1  C   UNL     1      48.475   8.928  15.373  0.00  0.00    +0.000 C 
ENDROOT
BRANCH   1   2
ATOM      2  C   UNL     1      49.071   7.856  16.259  0.00  0.00    +0.000 A 
ATOM      3  C   UNL     1      48.591   7.701  17.566  0.00  0.00    +0.000 A 
ATOM      4  C   UNL     1      49.111   6.713  18.397  0.00  0.00    +0.000 A 
ATOM      5  C   UNL     1      50.124   5.855  17.934  0.00  0.00    +0.000 A 
ATOM      6  C   UNL     1      50.610   6.017  16.638  0.00  0.00    +0.000 A 
ATOM      7  C   UNL     1      50.102   7.021  15.814  0.00  0.00    +0.000 A 
BRANCH   5   8
ATOM      8  C   UNL     1      50.721   4.779  18.803  0.00  0.00    +0.000 C 
BRANCH   8   9
ATOM      9  N   UNL     1      49.975   3.536  18.683  0.00  0.00    +0.000 NA
ATOM     10  H   UNL     1      48.994   3.712  18.906  0.00  0.00    +0.000 HD
BRANCH   9  11
ATOM     11  C   UNL     1      50.059   2.996  17.325  0.00  0.00    +0.000 C 
BRANCH  11  12
ATOM     12  C   UNL     1      48.709   2.319  16.985  0.00  0.00    +0.000 C 
ATOM     13  C   UNL     1      47.552   2.894  17.772  0.00  0.00    +0.000 C 
ATOM     14  C   UNL     1      47.199   4.148  16.997  0.00  0.00    +0.000 C 
ATOM     15  C   UNL     1      47.590   3.835  15.558  0.00  0.00    +0.000 C 
ATOM     16  N   UNL     1      48.312   2.559  15.586  0.00  0.00    +0.000 NA
ATOM     17  H   UNL     1      49.162   2.613  15.018  0.00  0.00    +0.000 HD
ENDBRANCH  11  12
ENDBRANCH   9  11
ENDBRANCH   8   9
ENDBRANCH   5   8
ENDBRANCH   1   2
BRANCH   1  18
ATOM     18  O   UNL     1      47.160   9.279  15.827  0.00  0.00    +0.000 OA
ATOM     19  H   UNL     1      46.734   9.789  15.120  0.00  0.00    +0.000 HD
ENDBRANCH   1  18
BRANCH   1  20
ATOM     20  C   UNL     1      48.380   8.453  13.917  0.00  0.00    +0.000 C 
BRANCH  20  21
ATOM     21  N   UNL     1      47.083   7.794  13.664  0.00  0.00    +0.000 NA
ATOM     22  H   UNL     1      46.886   7.220  14.490  0.00  0.00    +0.000 HD
BRANCH  21  24
ATOM     23  C   UNL     1      48.102   7.481  11.411  0.00  0.00    +0.000 C 
ATOM     24  C   UNL     1      47.097   6.959  12.445  0.00  0.00    +0.000 C 
BRANCH  24  25
ATOM     25  C   UNL     1      45.676   6.852  11.842  0.00  0.00    +0.000 C 
ATOM     26  O   UNL     1      45.135   7.851  11.371  0.00  0.00    +0.000 OA
BRANCH  25  27
ATOM     27  C   UNL     1      44.989   5.546  11.848  0.00  0.00    +0.000 A 
ATOM     28  C   UNL     1      44.220   5.081  12.900  0.00  0.00    +0.000 A 
ATOM     29  S   UNL     1      43.578   3.519  12.624  0.00  0.00    +0.000 S 
ATOM     30  C   UNL     1      44.220   3.481  11.045  0.00  0.00    +0.000 A 
ATOM     31  N   UNL     1      43.939   2.438  10.210  0.00  0.00    +0.000 NA
ATOM     32  C   UNL     1      44.429   2.577   9.039  0.00  0.00    +0.000 A 
ATOM     33  N   UNL     1      45.202   3.632   8.590  0.00  0.00    +0.000 N 
ATOM     34  C   UNL     1      45.705   3.664   7.230  0.00  0.00    +0.000 C 
ATOM     35  C   UNL     1      45.587   4.670   9.441  0.00  0.00    +0.000 A 
ATOM     36  O   UNL     1      46.365   5.546   9.090  0.00  0.00    +0.000 OA
ATOM     37  C   UNL     1      44.982   4.595  10.764  0.00  0.00    +0.000 A 
ENDBRANCH  25  27
ENDBRANCH  24  25
ENDBRANCH  21  24
ENDBRANCH  20  21
ENDBRANCH   1  20
TORSDOF 11
ENDMDL
MODEL 8
REMARK VINA RESULT:    -6.814      1.597      2.206
REMARK INTER + INTRA:         -12.369
REMARK INTER:                 -10.924
REMARK INTRA:                  -1.445
REMARK UNBOUND:                -1.373
REMARK  Name = 
REMARK  13 active torsions:
REMARK  status: ('A' for Active; 'I' for Inactive)
REMARK    1  A    between atoms: C_1  and  C_2
REMARK    2  A    between atoms: C_2  and  N_3
REMARK    3  A    between atoms: C_2  and  C_21
REMARK    4  A    between atoms: N_3  and  C_4
REMARK    5  A    between atoms: C_4  and  C_5
REMARK    6  A    between atoms: C_5  and  O_6
REMARK    7  A    between atoms: C_5  and  C_7
REMARK    8  A    between atoms: C_10  and  C_11
REMARK    9  A    between atoms: C_11  and  N_12
REMARK   10  A    between atoms: N_12  and  C_13
REMARK   11  A    between atoms: C_13  and  C_14
REMARK   12  A    between atoms: C_21  and  C_23
REMARK   13  A    between atoms: N_29  and  C_30
REMARK                            x       y       z     vdW  Elec       q    Type
REMARK                         _______ _______ _______ _____ _____    ______ ____
ROOT
ATOM      1  C   UNL     1      48.845   7.613  14.063  0.00  0.00    +0.000 C 
ENDROOT
BRANCH   1   2
ATOM      2  C   UNL     1      47.649   6.748  13.729  0.00  0.00    +0.000 A 
ATOM      3  C   UNL     1      46.663   7.245  12.867  0.00  0.00    +0.000 A 
ATOM      4  C   UNL     1      45.559   6.465  12.532  0.00  0.00    +0.000 A 
ATOM      5  C   UNL     1      45.423   5.166  13.051  0.00  0.00    +0.000 A 
ATOM      6  C   UNL     1      46.399   4.676  13.917  0.00  0.00    +0.000 A 
ATOM      7  C   UNL     1      47.492   5.467  14.269  0.00  0.00    +0.000 A 
BRANCH   5   8
ATOM      8  C   UNL     1      44.241   4.291  12.720  0.00  0.00    +0.000 C 
BRANCH   8   9
ATOM      9  N   UNL     1      44.044   4.200  11.282  0.00  0.00    +0.000 NA
ATOM     10  H   UNL     1      44.166   5.125  10.868  0.00  0.00    +0.000 HD
BRANCH   9  11
ATOM     11  C   UNL     1      45.008   3.281  10.672  0.00  0.00    +0.000 C 
BRANCH  11  12
ATOM     12  C   UNL     1      44.399   2.738   9.358  0.00  0.00    +0.000 C 
ATOM     13  C   UNL     1      44.656   3.644   8.174  0.00  0.00    +0.000 C 
ATOM     14  C   UNL     1      46.065   3.273   7.758  0.00  0.00    +0.000 C 
ATOM     15  C   UNL     1      46.214   1.811   8.161  0.00  0.00    +0.000 C 
ATOM     16  N   UNL     1      45.025   1.468   8.947  0.00  0.00    +0.000 NA
ATOM     17  H   UNL     1      45.287   0.953   9.792  0.00  0.00    +0.000 HD
ENDBRANCH  11  12
ENDBRANCH   9  11
ENDBRANCH   8   9
ENDBRANCH   5   8
ENDBRANCH   1   2
BRANCH   1  18
ATOM     18  O   UNL     1      50.038   6.819  14.118  0.00  0.00    +0.000 OA
ATOM     19  H   UNL     1      50.794   7.425  14.064  0.00  0.00    +0.000 HD
ENDBRANCH   1  18
BRANCH   1  20
ATOM     20  C   UNL     1      48.660   8.312  15.417  0.00  0.00    +0.000 C 
BRANCH  20  21
ATOM     21  N   UNL     1      49.126   7.450  16.521  0.00  0.00    +0.000 NA
ATOM     22  H   UNL     1      48.805   6.502  16.301  0.00  0.00    +0.000 HD
BRANCH  21  24
ATOM     23  C   UNL     1      49.407   9.058  18.404  0.00  0.00    +0.000 C 
ATOM     24  C   UNL     1      48.608   7.879  17.836  0.00  0.00    +0.000 C 
BRANCH  24  25
ATOM     25  C   UNL     1      48.584   6.690  18.826  0.00  0.00    +0.000 C 
ATOM     26  O   UNL     1      48.694   6.895  20.033  0.00  0.00    +0.000 OA
BRANCH  25  27
ATOM     27  C   UNL     1      48.435   5.319  18.299  0.00  0.00    +0.000 A 
ATOM     28  C   UNL     1      47.229   4.771  17.898  0.00  0.00    +0.000 A 
ATOM     29  S   UNL     1      47.372   3.153  17.362  0.00  0.00    +0.000 S 
ATOM     30  C   UNL     1      49.066   3.190  17.547  0.00  0.00    +0.000 A 
ATOM     31  N   UNL     1      49.827   2.127  17.151  0.00  0.00    +0.000 NA
ATOM     32  C   UNL     1      51.082   2.322  17.285  0.00  0.00    +0.000 A 
ATOM     33  N   UNL     1      51.689   3.454  17.797  0.00  0.00    +0.000 N 
ATOM     34  C   UNL     1      53.133   3.545  17.901  0.00  0.00    +0.000 C 
ATOM     35  C   UNL     1      50.942   4.522  18.296  0.00  0.00    +0.000 A 
ATOM     36  O   UNL     1      51.462   5.476  18.858  0.00  0.00    +0.000 OA
ATOM     37  C   UNL     1      49.507   4.378  18.088  0.00  0.00    +0.000 A 
ENDBRANCH  25  27
ENDBRANCH  24  25
ENDBRANCH  21  24
ENDBRANCH  20  21
ENDBRANCH   1  20
TORSDOF 11
ENDMDL
MODEL 9
REMARK VINA RESULT:    -6.760      2.539      3.198
REMARK INTER + INTRA:         -12.282
REMARK INTER:                 -10.732
REMARK INTRA:                  -1.551
REMARK UNBOUND:                -1.373
REMARK  Name = 
REMARK  13 active torsions:
REMARK  status: ('A' for Active; 'I' for Inactive)
REMARK    1  A    between atoms: C_1  and  C_2
REMARK    2  A    between atoms: C_2  and  N_3
REMARK    3  A    between atoms: C_2  and  C_21
REMARK    4  A    between atoms: N_3  and  C_4
REMARK    5  A    between atoms: C_4  and  C_5
REMARK    6  A    between atoms: C_5  and  O_6
REMARK    7  A    between atoms: C_5  and  C_7
REMARK    8  A    between atoms: C_10  and  C_11
REMARK    9  A    between atoms: C_11  and  N_12
REMARK   10  A    between atoms: N_12  and  C_13
REMARK   11  A    between atoms: C_13  and  C_14
REMARK   12  A    between atoms: C_21  and  C_23
REMARK   13  A    between atoms: N_29  and  C_30
REMARK                            x       y       z     vdW  Elec       q    Type
REMARK                         _______ _______ _______ _____ _____    ______ ____
ROOT
ATOM      1  C   UNL     1      45.282   7.841  12.741  0.00  0.00    +0.000 C 
ENDROOT
BRANCH   1   2
ATOM      2  C   UNL     1      44.972   6.511  12.090  0.00  0.00    +0.000 A 
ATOM      3  C   UNL     1      45.886   5.457  12.215  0.00  0.00    +0.000 A 
ATOM      4  C   UNL     1      45.619   4.218  11.637  0.00  0.00    +0.000 A 
ATOM      5  C   UNL     1      44.426   4.008  10.925  0.00  0.00    +0.000 A 
ATOM      6  C   UNL     1      43.522   5.061  10.791  0.00  0.00    +0.000 A 
ATOM      7  C   UNL     1      43.801   6.307  11.351  0.00  0.00    +0.000 A 
BRANCH   5   8
ATOM      8  C   UNL     1      44.101   2.687  10.278  0.00  0.00    +0.000 C 
BRANCH   8   9
ATOM      9  N   UNL     1      45.247   2.165   9.549  0.00  0.00    +0.000 NA
ATOM     10  H   UNL     1      45.198   1.146   9.534  0.00  0.00    +0.000 HD
BRANCH   9  11
ATOM     11  C   UNL     1      45.265   2.656   8.169  0.00  0.00    +0.000 C 
BRANCH  11  12
ATOM     12  C   UNL     1      46.716   3.057   7.814  0.00  0.00    +0.000 C 
ATOM     13  C   UNL     1      47.526   1.902   7.265  0.00  0.00    +0.000 C 
ATOM     14  C   UNL     1      47.108   1.851   5.809  0.00  0.00    +0.000 C 
ATOM     15  C   UNL     1      46.745   3.290   5.461  0.00  0.00    +0.000 C 
ATOM     16  N   UNL     1      46.760   4.044   6.718  0.00  0.00    +0.000 NA
ATOM     17  H   UNL     1      45.931   4.639   6.792  0.00  0.00    +0.000 HD
ENDBRANCH  11  12
ENDBRANCH   9  11
ENDBRANCH   8   9
ENDBRANCH   5   8
ENDBRANCH   1   2
BRANCH   1  18
ATOM     18  O   UNL     1      44.772   8.919  11.945  0.00  0.00    +0.000 OA
ATOM     19  H   UNL     1      45.505   9.254  11.403  0.00  0.00    +0.000 HD
ENDBRANCH   1  18
BRANCH   1  20
ATOM     20  C   UNL     1      46.796   8.033  12.913  0.00  0.00    +0.000 C 
BRANCH  20  21
ATOM     21  N   UNL     1      47.118   8.455  14.290  0.00  0.00    +0.000 NA
ATOM     22  H   UNL     1      46.335   9.038  14.603  0.00  0.00    +0.000 HD
BRANCH  21  24
ATOM     23  C   UNL     1      48.666   9.992  13.085  0.00  0.00    +0.000 C 
ATOM     24  C   UNL     1      48.388   9.207  14.372  0.00  0.00    +0.000 C 
BRANCH  24  25
ATOM     25  C   UNL     1      49.561   8.257  14.715  0.00  0.00    +0.000 C 
ATOM     26  O   UNL     1      50.256   7.794  13.813  0.00  0.00    +0.000 OA
BRANCH  25  27
ATOM     27  C   UNL     1      49.822   7.918  16.127  0.00  0.00    +0.000 A 
ATOM     28  C   UNL     1      50.549   8.716  16.992  0.00  0.00    +0.000 A 
ATOM     29  S   UNL     1      50.707   8.041  18.556  0.00  0.00    +0.000 S 
ATOM     30  C   UNL     1      49.708   6.723  18.141  0.00  0.00    +0.000 A 
ATOM     31  N   UNL     1      49.347   5.806  19.086  0.00  0.00    +0.000 NA
ATOM     32  C   UNL     1      48.543   4.915  18.649  0.00  0.00    +0.000 A 
ATOM     33  N   UNL     1      48.061   4.802  17.358  0.00  0.00    +0.000 N 
ATOM     34  C   UNL     1      47.154   3.733  16.989  0.00  0.00    +0.000 C 
ATOM     35  C   UNL     1      48.480   5.666  16.345  0.00  0.00    +0.000 A 
ATOM     36  O   UNL     1      48.155   5.506  15.176  0.00  0.00    +0.000 OA
ATOM     37  C   UNL     1      49.334   6.748  16.815  0.00  0.00    +0.000 A 
ENDBRANCH  25  27
ENDBRANCH  24  25
ENDBRANCH  21  24
ENDBRANCH  20  21
ENDBRANCH   1  20
TORSDOF 11
ENDMDL
