MODEL 1
REMARK VINA RESULT:    -8.171      0.000      0.000
REMARK INTER + INTRA:         -13.491
REMARK INTER:                 -11.993
REMARK INTRA:                  -1.498
REMARK UNBOUND:                -1.498
REMARK  Name = 
REMARK  9 active torsions:
REMARK  status: ('A' for Active; 'I' for Inactive)
REMARK    1  A    between atoms: C_1  and  O_2
REMARK    2  A    between atoms: O_2  and  C_3
REMARK    3  A    between atoms: C_10  and  C_11
REMARK    4  A    between atoms: N_13  and  C_14
REMARK    5  A    between atoms: C_14  and  C_15
REMARK    6  A    between atoms: C_18  and  C_19
REMARK    7  A    between atoms: C_19  and  C_20
REMARK    8  A    between atoms: C_20  and  C_21
REMARK    9  A    between atoms: C_21  and  C_22
REMARK                            x       y       z     vdW  Elec       q    Type
REMARK                         _______ _______ _______ _____ _____    ______ ____
ROOT
ATOM      1  C   UNL     1      47.223   8.331  13.420  0.00  0.00    +0.000 C 
ENDROOT
BRANCH   1   2
ATOM      2  C   UNL     1      46.327   7.473  12.554  0.00  0.00    +0.000 A 
ATOM      3  C   UNL     1      46.808   6.282  11.993  0.00  0.00    +0.000 A 
ATOM      4  C   UNL     1      45.956   5.427  11.278  0.00  0.00    +0.000 A 
ATOM      5  C   UNL     1      44.610   5.759  11.066  0.00  0.00    +0.000 A 
ATOM      6  C   UNL     1      44.153   6.990  11.558  0.00  0.00    +0.000 A 
ATOM      7  C   UNL     1      44.999   7.834  12.294  0.00  0.00    +0.000 A 
BRANCH   5   8
ATOM      8  C   UNL     1      43.679   4.838  10.302  0.00  0.00    +0.000 C 
BRANCH   8   9
ATOM      9  C   UNL     1      44.395   3.638   9.663  0.00  0.00    +0.000 C 
BRANCH   9  10
ATOM     10  C   UNL     1      44.727   3.856   8.181  0.00  0.00    +0.000 C 
BRANCH  10  11
ATOM     11  C   UNL     1      45.851   2.946   7.745  0.00  0.00    +0.000 A 
ATOM     12  C   UNL     1      46.818   3.384   6.835  0.00  0.00    +0.000 A 
ATOM     13  C   UNL     1      47.799   2.493   6.423  0.00  0.00    +0.000 A 
ATOM     14  N   UNL     1      47.879   1.213   6.845  0.00  0.00    +0.000 NA
ATOM     15  C   UNL     1      46.935   0.808   7.720  0.00  0.00    +0.000 A 
ATOM     16  C   UNL     1      45.918   1.623   8.194  0.00  0.00    +0.000 A 
ENDBRANCH  10  11
ENDBRANCH   9  10
ENDBRANCH   8   9
ENDBRANCH   5   8
ENDBRANCH   1   2
BRANCH   1  19
ATOM     17  C   UNL     1      48.967   7.160  14.742  0.00  0.00    +0.000 C 
ATOM     18  O   UNL     1      49.817   7.324  13.874  0.00  0.00    +0.000 OA
ATOM     19  N   UNL     1      47.683   7.621  14.585  0.00  0.00    +0.000 N 
ATOM     20  H   UNL     1      47.001   7.452  15.311  0.00  0.00    +0.000 HD
BRANCH  17  28
ATOM     21  C   UNL     1      47.616   4.386  16.281  0.00  0.00    +0.000 A 
ATOM     22  N   UNL     1      47.293   3.343  17.070  0.00  0.00    +0.000 NA
ATOM     23  C   UNL     1      47.987   3.169  18.196  0.00  0.00    +0.000 A 
ATOM     24  N   UNL     1      48.984   3.927  18.645  0.00  0.00    +0.000 NA
ATOM     25  C   UNL     1      49.280   4.951  17.822  0.00  0.00    +0.000 A 
ATOM     26  S   UNL     1      50.529   6.024  18.236  0.00  0.00    +0.000 S 
ATOM     27  C   UNL     1      50.284   6.936  16.820  0.00  0.00    +0.000 A 
ATOM     28  C   UNL     1      49.268   6.450  16.002  0.00  0.00    +0.000 A 
ATOM     29  C   UNL     1      48.663   5.264  16.617  0.00  0.00    +0.000 A 
BRANCH  21  31
ATOM     30  C   UNL     1      47.114   3.481  14.189  0.00  0.00    +0.000 C 
ATOM     31  O   UNL     1      46.907   4.548  15.112  0.00  0.00    +0.000 OA
ENDBRANCH  21  31
ENDBRANCH  17  28
ENDBRANCH   1  19
TORSDOF 8
ENDMDL
MODEL 2
REMARK VINA RESULT:    -8.021      1.445      1.742
REMARK INTER + INTRA:         -13.271
REMARK INTER:                 -12.143
REMARK INTRA:                  -1.128
REMARK UNBOUND:                -1.498
REMARK  Name = 
REMARK  9 active torsions:
REMARK  status: ('A' for Active; 'I' for Inactive)
REMARK    1  A    between atoms: C_1  and  O_2
REMARK    2  A    between atoms: O_2  and  C_3
REMARK    3  A    between atoms: C_10  and  C_11
REMARK    4  A    between atoms: N_13  and  C_14
REMARK    5  A    between atoms: C_14  and  C_15
REMARK    6  A    between atoms: C_18  and  C_19
REMARK    7  A    between atoms: C_19  and  C_20
REMARK    8  A    between atoms: C_20  and  C_21
REMARK    9  A    between atoms: C_21  and  C_22
REMARK                            x       y       z     vdW  Elec       q    Type
REMARK                         _______ _______ _______ _____ _____    ______ ____
ROOT
ATOM      1  C   UNL     1      48.035   7.119  13.344  0.00  0.00    +0.000 C 
ENDROOT
BRANCH   1   2
ATOM      2  C   UNL     1      46.905   6.319  12.734  0.00  0.00    +0.000 A 
ATOM      3  C   UNL     1      46.370   6.679  11.489  0.00  0.00    +0.000 A 
ATOM      4  C   UNL     1      45.397   5.882  10.867  0.00  0.00    +0.000 A 
ATOM      5  C   UNL     1      44.899   4.729  11.491  0.00  0.00    +0.000 A 
ATOM      6  C   UNL     1      45.377   4.419  12.772  0.00  0.00    +0.000 A 
ATOM      7  C   UNL     1      46.367   5.201  13.385  0.00  0.00    +0.000 A 
BRANCH   5   8
ATOM      8  C   UNL     1      43.853   3.858  10.823  0.00  0.00    +0.000 C 
BRANCH   8   9
ATOM      9  C   UNL     1      44.438   2.882   9.791  0.00  0.00    +0.000 C 
BRANCH   9  10
ATOM     10  C   UNL     1      44.783   3.555   8.456  0.00  0.00    +0.000 C 
BRANCH  10  11
ATOM     11  C   UNL     1      45.886   2.804   7.747  0.00  0.00    +0.000 A 
ATOM     12  C   UNL     1      46.526   3.353   6.633  0.00  0.00    +0.000 A 
ATOM     13  C   UNL     1      47.495   2.601   5.983  0.00  0.00    +0.000 A 
ATOM     14  N   UNL     1      47.861   1.357   6.359  0.00  0.00    +0.000 NA
ATOM     15  C   UNL     1      47.229   0.843   7.435  0.00  0.00    +0.000 A 
ATOM     16  C   UNL     1      46.252   1.517   8.153  0.00  0.00    +0.000 A 
ENDBRANCH  10  11
ENDBRANCH   9  10
ENDBRANCH   8   9
ENDBRANCH   5   8
ENDBRANCH   1   2
BRANCH   1  19
ATOM     17  C   UNL     1      49.090   6.975  15.586  0.00  0.00    +0.000 C 
ATOM     18  O   UNL     1      50.214   6.847  15.112  0.00  0.00    +0.000 OA
ATOM     19  N   UNL     1      47.984   7.108  14.782  0.00  0.00    +0.000 N 
ATOM     20  H   UNL     1      47.070   7.192  15.204  0.00  0.00    +0.000 HD
BRANCH  17  28
ATOM     21  C   UNL     1      48.834   4.488  17.960  0.00  0.00    +0.000 A 
ATOM     22  N   UNL     1      48.713   3.731  19.068  0.00  0.00    +0.000 NA
ATOM     23  C   UNL     1      48.502   4.350  20.231  0.00  0.00    +0.000 A 
ATOM     24  N   UNL     1      48.392   5.660  20.430  0.00  0.00    +0.000 NA
ATOM     25  C   UNL     1      48.528   6.379  19.300  0.00  0.00    +0.000 A 
ATOM     26  S   UNL     1      48.416   8.071  19.365  0.00  0.00    +0.000 S 
ATOM     27  C   UNL     1      48.671   8.204  17.687  0.00  0.00    +0.000 A 
ATOM     28  C   UNL     1      48.856   6.984  17.044  0.00  0.00    +0.000 A 
ATOM     29  C   UNL     1      48.758   5.892  18.019  0.00  0.00    +0.000 A 
BRANCH  21  31
ATOM     30  C   UNL     1      47.884   3.287  16.198  0.00  0.00    +0.000 C 
ATOM     31  O   UNL     1      49.069   3.843  16.766  0.00  0.00    +0.000 OA
ENDBRANCH  21  31
ENDBRANCH  17  28
ENDBRANCH   1  19
TORSDOF 8
ENDMDL
MODEL 3
REMARK VINA RESULT:    -7.793      2.097      2.949
REMARK INTER + INTRA:         -12.935
REMARK INTER:                 -11.787
REMARK INTRA:                  -1.148
REMARK UNBOUND:                -1.498
REMARK  Name = 
REMARK  9 active torsions:
REMARK  status: ('A' for Active; 'I' for Inactive)
REMARK    1  A    between atoms: C_1  and  O_2
REMARK    2  A    between atoms: O_2  and  C_3
REMARK    3  A    between atoms: C_10  and  C_11
REMARK    4  A    between atoms: N_13  and  C_14
REMARK    5  A    between atoms: C_14  and  C_15
REMARK    6  A    between atoms: C_18  and  C_19
REMARK    7  A    between atoms: C_19  and  C_20
REMARK    8  A    between atoms: C_20  and  C_21
REMARK    9  A    between atoms: C_21  and  C_22
REMARK                            x       y       z     vdW  Elec       q    Type
REMARK                         _______ _______ _______ _____ _____    ______ ____
ROOT
ATOM      1  C   UNL     1      48.060   6.633  13.725  0.00  0.00    +0.000 C 
ENDROOT
BRANCH   1   2
ATOM      2  C   UNL     1      46.888   6.079  12.944  0.00  0.00    +0.000 A 
ATOM      3  C   UNL     1      46.374   6.776  11.842  0.00  0.00    +0.000 A 
ATOM      4  C   UNL     1      45.360   6.221  11.047  0.00  0.00    +0.000 A 
ATOM      5  C   UNL     1      44.799   4.974  11.359  0.00  0.00    +0.000 A 
ATOM      6  C   UNL     1      45.258   4.317  12.509  0.00  0.00    +0.000 A 
ATOM      7  C   UNL     1      46.289   4.861  13.291  0.00  0.00    +0.000 A 
BRANCH   5   8
ATOM      8  C   UNL     1      43.708   4.362  10.502  0.00  0.00    +0.000 C 
BRANCH   8   9
ATOM      9  C   UNL     1      44.228   3.318   9.502  0.00  0.00    +0.000 C 
BRANCH   9  10
ATOM     10  C   UNL     1      44.916   3.947   8.282  0.00  0.00    +0.000 C 
BRANCH  10  11
ATOM     11  C   UNL     1      45.916   2.988   7.679  0.00  0.00    +0.000 A 
ATOM     12  C   UNL     1      46.072   1.697   8.192  0.00  0.00    +0.000 A 
ATOM     13  C   UNL     1      47.042   0.873   7.639  0.00  0.00    +0.000 A 
ATOM     14  N   UNL     1      47.858   1.242   6.629  0.00  0.00    +0.000 NA
ATOM     15  C   UNL     1      47.695   2.493   6.150  0.00  0.00    +0.000 A 
ATOM     16  C   UNL     1      46.751   3.389   6.632  0.00  0.00    +0.000 A 
ENDBRANCH  10  11
ENDBRANCH   9  10
ENDBRANCH   8   9
ENDBRANCH   5   8
ENDBRANCH   1   2
BRANCH   1  19
ATOM     17  C   UNL     1      49.071   6.309  15.968  0.00  0.00    +0.000 C 
ATOM     18  O   UNL     1      50.182   6.654  15.580  0.00  0.00    +0.000 OA
ATOM     19  N   UNL     1      47.994   6.272  15.117  0.00  0.00    +0.000 N 
ATOM     20  H   UNL     1      47.097   5.965  15.464  0.00  0.00    +0.000 HD
BRANCH  17  28
ATOM     21  C   UNL     1      47.947   7.993  18.759  0.00  0.00    +0.000 A 
ATOM     22  N   UNL     1      47.523   8.399  19.972  0.00  0.00    +0.000 NA
ATOM     23  C   UNL     1      47.499   7.503  20.960  0.00  0.00    +0.000 A 
ATOM     24  N   UNL     1      47.858   6.224  20.888  0.00  0.00    +0.000 NA
ATOM     25  C   UNL     1      48.266   5.859  19.658  0.00  0.00    +0.000 A 
ATOM     26  S   UNL     1      48.762   4.260  19.380  0.00  0.00    +0.000 S 
ATOM     27  C   UNL     1      49.091   4.592  17.744  0.00  0.00    +0.000 A 
ATOM     28  C   UNL     1      48.827   5.905  17.368  0.00  0.00    +0.000 A 
ATOM     29  C   UNL     1      48.341   6.663  18.526  0.00  0.00    +0.000 A 
BRANCH  21  31
ATOM     30  C   UNL     1      49.185   9.631  17.648  0.00  0.00    +0.000 C 
ATOM     31  O   UNL     1      47.952   8.919  17.739  0.00  0.00    +0.000 OA
ENDBRANCH  21  31
ENDBRANCH  17  28
ENDBRANCH   1  19
TORSDOF 8
ENDMDL
MODEL 4
REMARK VINA RESULT:    -7.366      2.169      3.659
REMARK INTER + INTRA:         -12.308
REMARK INTER:                 -10.898
REMARK INTRA:                  -1.411
REMARK UNBOUND:                -1.498
REMARK  Name = 
REMARK  9 active torsions:
REMARK  status: ('A' for Active; 'I' for Inactive)
REMARK    1  A    between atoms: C_1  and  O_2
REMARK    2  A    between atoms: O_2  and  C_3
REMARK    3  A    between atoms: C_10  and  C_11
REMARK    4  A    between atoms: N_13  and  C_14
REMARK    5  A    between atoms: C_14  and  C_15
REMARK    6  A    between atoms: C_18  and  C_19
REMARK    7  A    between atoms: C_19  and  C_20
REMARK    8  A    between atoms: C_20  and  C_21
REMARK    9  A    between atoms: C_21  and  C_22
REMARK                            x       y       z     vdW  Elec       q    Type
REMARK                         _______ _______ _______ _____ _____    ______ ____
ROOT
ATOM      1  C   UNL     1      47.447   3.997  15.476  0.00  0.00    +0.000 C 
ENDROOT
BRANCH   1   2
ATOM      2  C   UNL     1      46.845   4.364  14.137  0.00  0.00    +0.000 A 
ATOM      3  C   UNL     1      46.172   3.402  13.372  0.00  0.00    +0.000 A 
ATOM      4  C   UNL     1      45.518   3.757  12.182  0.00  0.00    +0.000 A 
ATOM      5  C   UNL     1      45.558   5.074  11.701  0.00  0.00    +0.000 A 
ATOM      6  C   UNL     1      46.301   6.015  12.426  0.00  0.00    +0.000 A 
ATOM      7  C   UNL     1      46.935   5.666  13.629  0.00  0.00    +0.000 A 
BRANCH   5   8
ATOM      8  C   UNL     1      44.848   5.469  10.420  0.00  0.00    +0.000 C 
BRANCH   8   9
ATOM      9  C   UNL     1      45.598   5.043   9.149  0.00  0.00    +0.000 C 
BRANCH   9  10
ATOM     10  C   UNL     1      44.904   3.899   8.397  0.00  0.00    +0.000 C 
BRANCH  10  11
ATOM     11  C   UNL     1      45.922   2.948   7.812  0.00  0.00    +0.000 A 
ATOM     12  C   UNL     1      45.957   1.606   8.203  0.00  0.00    +0.000 A 
ATOM     13  C   UNL     1      46.946   0.785   7.678  0.00  0.00    +0.000 A 
ATOM     14  N   UNL     1      47.890   1.204   6.808  0.00  0.00    +0.000 NA
ATOM     15  C   UNL     1      47.841   2.504   6.447  0.00  0.00    +0.000 A 
ATOM     16  C   UNL     1      46.890   3.401   6.912  0.00  0.00    +0.000 A 
ENDBRANCH  10  11
ENDBRANCH   9  10
ENDBRANCH   8   9
ENDBRANCH   5   8
ENDBRANCH   1   2
BRANCH   1  19
ATOM     17  C   UNL     1      48.286   5.186  17.487  0.00  0.00    +0.000 C 
ATOM     18  O   UNL     1      49.034   4.264  17.791  0.00  0.00    +0.000 OA
ATOM     19  N   UNL     1      47.482   5.120  16.375  0.00  0.00    +0.000 N 
ATOM     20  H   UNL     1      46.863   5.889  16.163  0.00  0.00    +0.000 HD
BRANCH  17  28
ATOM     21  C   UNL     1      48.544   8.544  16.744  0.00  0.00    +0.000 A 
ATOM     22  N   UNL     1      48.582   9.890  16.726  0.00  0.00    +0.000 NA
ATOM     23  C   UNL     1      48.404  10.538  17.878  0.00  0.00    +0.000 A 
ATOM     24  N   UNL     1      48.192   9.998  19.075  0.00  0.00    +0.000 NA
ATOM     25  C   UNL     1      48.153   8.652  19.047  0.00  0.00    +0.000 A 
ATOM     26  S   UNL     1      47.891   7.791  20.485  0.00  0.00    +0.000 S 
ATOM     27  C   UNL     1      47.978   6.300  19.670  0.00  0.00    +0.000 A 
ATOM     28  C   UNL     1      48.195   6.415  18.300  0.00  0.00    +0.000 A 
ATOM     29  C   UNL     1      48.309   7.832  17.935  0.00  0.00    +0.000 A 
BRANCH  21  31
ATOM     30  C   UNL     1      50.061   7.903  15.090  0.00  0.00    +0.000 C 
ATOM     31  O   UNL     1      48.711   7.881  15.548  0.00  0.00    +0.000 OA
ENDBRANCH  21  31
ENDBRANCH  17  28
ENDBRANCH   1  19
TORSDOF 8
ENDMDL
MODEL 5
REMARK VINA RESULT:    -7.149      1.938      3.739
REMARK INTER + INTRA:         -11.990
REMARK INTER:                 -10.635
REMARK INTRA:                  -1.355
REMARK UNBOUND:                -1.498
REMARK  Name = 
REMARK  9 active torsions:
REMARK  status: ('A' for Active; 'I' for Inactive)
REMARK    1  A    between atoms: C_1  and  O_2
REMARK    2  A    between atoms: O_2  and  C_3
REMARK    3  A    between atoms: C_10  and  C_11
REMARK    4  A    between atoms: N_13  and  C_14
REMARK    5  A    between atoms: C_14  and  C_15
REMARK    6  A    between atoms: C_18  and  C_19
REMARK    7  A    between atoms: C_19  and  C_20
REMARK    8  A    between atoms: C_20  and  C_21
REMARK    9  A    between atoms: C_21  and  C_22
REMARK                            x       y       z     vdW  Elec       q    Type
REMARK                         _______ _______ _______ _____ _____    ______ ____
ROOT
ATOM      1  C   UNL     1      47.149   4.533  14.860  0.00  0.00    +0.000 C 
ENDROOT
BRANCH   1   2
ATOM      2  C   UNL     1      46.203   4.550  13.679  0.00  0.00    +0.000 A 
ATOM      3  C   UNL     1      45.583   5.742  13.281  0.00  0.00    +0.000 A 
ATOM      4  C   UNL     1      44.791   5.790  12.124  0.00  0.00    +0.000 A 
ATOM      5  C   UNL     1      44.558   4.638  11.359  0.00  0.00    +0.000 A 
ATOM      6  C   UNL     1      45.112   3.431  11.806  0.00  0.00    +0.000 A 
ATOM      7  C   UNL     1      45.925   3.387  12.949  0.00  0.00    +0.000 A 
BRANCH   5   8
ATOM      8  C   UNL     1      43.710   4.682  10.103  0.00  0.00    +0.000 C 
BRANCH   8   9
ATOM      9  C   UNL     1      44.481   4.304   8.829  0.00  0.00    +0.000 C 
BRANCH   9  10
ATOM     10  C   UNL     1      44.513   2.791   8.574  0.00  0.00    +0.000 C 
BRANCH  10  11
ATOM     11  C   UNL     1      45.773   2.399   7.840  0.00  0.00    +0.000 A 
ATOM     12  C   UNL     1      46.358   3.260   6.907  0.00  0.00    +0.000 A 
ATOM     13  C   UNL     1      47.484   2.832   6.218  0.00  0.00    +0.000 A 
ATOM     14  N   UNL     1      48.057   1.621   6.389  0.00  0.00    +0.000 NA
ATOM     15  C   UNL     1      47.476   0.803   7.292  0.00  0.00    +0.000 A 
ATOM     16  C   UNL     1      46.352   1.140   8.032  0.00  0.00    +0.000 A 
ENDBRANCH  10  11
ENDBRANCH   9  10
ENDBRANCH   8   9
ENDBRANCH   5   8
ENDBRANCH   1   2
BRANCH   1  19
ATOM     17  C   UNL     1      48.697   6.119  15.978  0.00  0.00    +0.000 C 
ATOM     18  O   UNL     1      49.402   5.214  16.411  0.00  0.00    +0.000 OA
ATOM     19  N   UNL     1      47.582   5.857  15.220  0.00  0.00    +0.000 N 
ATOM     20  H   UNL     1      47.010   6.624  14.895  0.00  0.00    +0.000 HD
BRANCH  17  28
ATOM     21  C   UNL     1      48.698   8.962  14.027  0.00  0.00    +0.000 A 
ATOM     22  N   UNL     1      48.758  10.202  13.506  0.00  0.00    +0.000 NA
ATOM     23  C   UNL     1      49.109  11.205  14.313  0.00  0.00    +0.000 A 
ATOM     24  N   UNL     1      49.417  11.121  15.604  0.00  0.00    +0.000 NA
ATOM     25  C   UNL     1      49.335   9.866  16.086  0.00  0.00    +0.000 A 
ATOM     26  S   UNL     1      49.693   9.570  17.718  0.00  0.00    +0.000 S 
ATOM     27  C   UNL     1      49.385   7.907  17.538  0.00  0.00    +0.000 A 
ATOM     28  C   UNL     1      48.995   7.539  16.253  0.00  0.00    +0.000 A 
ATOM     29  C   UNL     1      48.978   8.721  15.384  0.00  0.00    +0.000 A 
BRANCH  21  31
ATOM     30  C   UNL     1      49.419   7.352  12.498  0.00  0.00    +0.000 C 
ATOM     31  O   UNL     1      48.318   7.934  13.192  0.00  0.00    +0.000 OA
ENDBRANCH  21  31
ENDBRANCH  17  28
ENDBRANCH   1  19
TORSDOF 8
ENDMDL
MODEL 6
REMARK VINA RESULT:    -5.963      2.398      3.705
REMARK INTER + INTRA:         -10.250
REMARK INTER:                  -9.265
REMARK INTRA:                  -0.985
REMARK UNBOUND:                -1.498
REMARK  Name = 
REMARK  9 active torsions:
REMARK  status: ('A' for Active; 'I' for Inactive)
REMARK    1  A    between atoms: C_1  and  O_2
REMARK    2  A    between atoms: O_2  and  C_3
REMARK    3  A    between atoms: C_10  and  C_11
REMARK    4  A    between atoms: N_13  and  C_14
REMARK    5  A    between atoms: C_14  and  C_15
REMARK    6  A    between atoms: C_18  and  C_19
REMARK    7  A    between atoms: C_19  and  C_20
REMARK    8  A    between atoms: C_20  and  C_21
REMARK    9  A    between atoms: C_21  and  C_22
REMARK                            x       y       z     vdW  Elec       q    Type
REMARK                         _______ _______ _______ _____ _____    ______ ____
ROOT
ATOM      1  C   UNL     1      46.565   4.901  14.954  0.00  0.00    +0.000 C 
ENDROOT
BRANCH   1   2
ATOM      2  C   UNL     1      45.810   4.799  13.647  0.00  0.00    +0.000 A 
ATOM      3  C   UNL     1      45.847   5.850  12.719  0.00  0.00    +0.000 A 
ATOM      4  C   UNL     1      45.240   5.721  11.461  0.00  0.00    +0.000 A 
ATOM      5  C   UNL     1      44.538   4.558  11.112  0.00  0.00    +0.000 A 
ATOM      6  C   UNL     1      44.433   3.543  12.073  0.00  0.00    +0.000 A 
ATOM      7  C   UNL     1      45.061   3.661  13.323  0.00  0.00    +0.000 A 
BRANCH   5   8
ATOM      8  C   UNL     1      43.885   4.407   9.753  0.00  0.00    +0.000 C 
BRANCH   8   9
ATOM      9  C   UNL     1      44.465   3.254   8.919  0.00  0.00    +0.000 C 
BRANCH   9  10
ATOM     10  C   UNL     1      44.857   3.679   7.498  0.00  0.00    +0.000 C 
BRANCH  10  11
ATOM     11  C   UNL     1      46.040   2.877   7.007  0.00  0.00    +0.000 A 
ATOM     12  C   UNL     1      46.610   1.879   7.803  0.00  0.00    +0.000 A 
ATOM     13  C   UNL     1      47.730   1.209   7.331  0.00  0.00    +0.000 A 
ATOM     14  N   UNL     1      48.315   1.464   6.142  0.00  0.00    +0.000 NA
ATOM     15  C   UNL     1      47.753   2.434   5.390  0.00  0.00    +0.000 A 
ATOM     16  C   UNL     1      46.632   3.156   5.771  0.00  0.00    +0.000 A 
ENDBRANCH  10  11
ENDBRANCH   9  10
ENDBRANCH   8   9
ENDBRANCH   5   8
ENDBRANCH   1   2
BRANCH   1  19
ATOM     17  C   UNL     1      48.676   5.998  15.662  0.00  0.00    +0.000 C 
ATOM     18  O   UNL     1      48.997   5.052  16.372  0.00  0.00    +0.000 OA
ATOM     19  N   UNL     1      47.503   5.993  14.947  0.00  0.00    +0.000 N 
ATOM     20  H   UNL     1      47.259   6.797  14.387  0.00  0.00    +0.000 HD
BRANCH  17  28
ATOM     21  C   UNL     1      50.039   8.180  17.959  0.00  0.00    +0.000 A 
ATOM     22  N   UNL     1      50.690   9.149  18.630  0.00  0.00    +0.000 NA
ATOM     23  C   UNL     1      51.374  10.051  17.924  0.00  0.00    +0.000 A 
ATOM     24  N   UNL     1      51.488  10.109  16.600  0.00  0.00    +0.000 NA
ATOM     25  C   UNL     1      50.830   9.118  15.969  0.00  0.00    +0.000 A 
ATOM     26  S   UNL     1      50.866   9.034  14.274  0.00  0.00    +0.000 S 
ATOM     27  C   UNL     1      49.888   7.641  14.271  0.00  0.00    +0.000 A 
ATOM     28  C   UNL     1      49.523   7.203  15.540  0.00  0.00    +0.000 A 
ATOM     29  C   UNL     1      50.084   8.102  16.555  0.00  0.00    +0.000 A 
BRANCH  21  31
ATOM     30  C   UNL     1      47.991   7.609  18.922  0.00  0.00    +0.000 C 
ATOM     31  O   UNL     1      49.350   7.242  18.695  0.00  0.00    +0.000 OA
ENDBRANCH  21  31
ENDBRANCH  17  28
ENDBRANCH   1  19
TORSDOF 8
ENDMDL
MODEL 7
REMARK VINA RESULT:    -5.799      1.676      2.350
REMARK INTER + INTRA:         -10.009
REMARK INTER:                  -8.973
REMARK INTRA:                  -1.036
REMARK UNBOUND:                -1.498
REMARK  Name = 
REMARK  9 active torsions:
REMARK  status: ('A' for Active; 'I' for Inactive)
REMARK    1  A    between atoms: C_1  and  O_2
REMARK    2  A    between atoms: O_2  and  C_3
REMARK    3  A    between atoms: C_10  and  C_11
REMARK    4  A    between atoms: N_13  and  C_14
REMARK    5  A    between atoms: C_14  and  C_15
REMARK    6  A    between atoms: C_18  and  C_19
REMARK    7  A    between atoms: C_19  and  C_20
REMARK    8  A    between atoms: C_20  and  C_21
REMARK    9  A    between atoms: C_21  and  C_22
REMARK                            x       y       z     vdW  Elec       q    Type
REMARK                         _______ _______ _______ _____ _____    ______ ____
ROOT
ATOM      1  C   UNL     1      50.498   7.742  14.076  0.00  0.00    +0.000 C 
ENDROOT
BRANCH   1   2
ATOM      2  C   UNL     1      49.206   7.497  13.327  0.00  0.00    +0.000 A 
ATOM      3  C   UNL     1      49.165   7.593  11.929  0.00  0.00    +0.000 A 
ATOM      4  C   UNL     1      48.000   7.262  11.219  0.00  0.00    +0.000 A 
ATOM      5  C   UNL     1      46.832   6.871  11.889  0.00  0.00    +0.000 A 
ATOM      6  C   UNL     1      46.853   6.856  13.290  0.00  0.00    +0.000 A 
ATOM      7  C   UNL     1      48.024   7.163  14.000  0.00  0.00    +0.000 A 
BRANCH   5   8
ATOM      8  C   UNL     1      45.571   6.505  11.130  0.00  0.00    +0.000 C 
BRANCH   8   9
ATOM      9  C   UNL     1      45.485   5.015  10.769  0.00  0.00    +0.000 C 
BRANCH   9  10
ATOM     10  C   UNL     1      44.842   4.765   9.398  0.00  0.00    +0.000 C 
BRANCH  10  11
ATOM     11  C   UNL     1      45.572   3.670   8.656  0.00  0.00    +0.000 A 
ATOM     12  C   UNL     1      46.398   3.968   7.568  0.00  0.00    +0.000 A 
ATOM     13  C   UNL     1      47.003   2.923   6.884  0.00  0.00    +0.000 A 
ATOM     14  N   UNL     1      46.841   1.621   7.202  0.00  0.00    +0.000 NA
ATOM     15  C   UNL     1      46.037   1.354   8.253  0.00  0.00    +0.000 A 
ATOM     16  C   UNL     1      45.392   2.327   9.001  0.00  0.00    +0.000 A 
ENDBRANCH  10  11
ENDBRANCH   9  10
ENDBRANCH   8   9
ENDBRANCH   5   8
ENDBRANCH   1   2
BRANCH   1  19
ATOM     17  C   UNL     1      49.971   8.196  16.458  0.00  0.00    +0.000 C 
ATOM     18  O   UNL     1      49.650   9.356  16.226  0.00  0.00    +0.000 OA
ATOM     19  N   UNL     1      50.398   7.356  15.459  0.00  0.00    +0.000 N 
ATOM     20  H   UNL     1      50.674   6.412  15.687  0.00  0.00    +0.000 HD
BRANCH  17  28
ATOM     21  C   UNL     1      48.871   5.197  17.757  0.00  0.00    +0.000 A 
ATOM     22  N   UNL     1      48.540   4.128  18.506  0.00  0.00    +0.000 NA
ATOM     23  C   UNL     1      48.765   4.189  19.820  0.00  0.00    +0.000 A 
ATOM     24  N   UNL     1      49.287   5.209  20.495  0.00  0.00    +0.000 NA
ATOM     25  C   UNL     1      49.611   6.252  19.707  0.00  0.00    +0.000 A 
ATOM     26  S   UNL     1      50.292   7.644  20.399  0.00  0.00    +0.000 S 
ATOM     27  C   UNL     1      50.393   8.411  18.883  0.00  0.00    +0.000 A 
ATOM     28  C   UNL     1      49.929   7.636  17.824  0.00  0.00    +0.000 A 
ATOM     29  C   UNL     1      49.451   6.344  18.329  0.00  0.00    +0.000 A 
BRANCH  21  31
ATOM     30  C   UNL     1      47.539   4.294  16.066  0.00  0.00    +0.000 C 
ATOM     31  O   UNL     1      48.653   5.121  16.399  0.00  0.00    +0.000 OA
ENDBRANCH  21  31
ENDBRANCH  17  28
ENDBRANCH   1  19
TORSDOF 8
ENDMDL
MODEL 8
REMARK VINA RESULT:    -5.637      5.421      7.748
REMARK INTER + INTRA:          -9.772
REMARK INTER:                  -8.406
REMARK INTRA:                  -1.365
REMARK UNBOUND:                -1.498
REMARK  Name = 
REMARK  9 active torsions:
REMARK  status: ('A' for Active; 'I' for Inactive)
REMARK    1  A    between atoms: C_1  and  O_2
REMARK    2  A    between atoms: O_2  and  C_3
REMARK    3  A    between atoms: C_10  and  C_11
REMARK    4  A    between atoms: N_13  and  C_14
REMARK    5  A    between atoms: C_14  and  C_15
REMARK    6  A    between atoms: C_18  and  C_19
REMARK    7  A    between atoms: C_19  and  C_20
REMARK    8  A    between atoms: C_20  and  C_21
REMARK    9  A    between atoms: C_21  and  C_22
REMARK                            x       y       z     vdW  Elec       q    Type
REMARK                         _______ _______ _______ _____ _____    ______ ____
ROOT
ATOM      1  C   UNL     1      51.690   8.412  12.112  0.00  0.00    +0.000 C 
ENDROOT
BRANCH   1   2
ATOM      2  C   UNL     1      50.201   8.385  12.379  0.00  0.00    +0.000 A 
ATOM      3  C   UNL     1      49.337   9.242  11.684  0.00  0.00    +0.000 A 
ATOM      4  C   UNL     1      47.947   9.150  11.846  0.00  0.00    +0.000 A 
ATOM      5  C   UNL     1      47.383   8.230  12.743  0.00  0.00    +0.000 A 
ATOM      6  C   UNL     1      48.254   7.432  13.497  0.00  0.00    +0.000 A 
ATOM      7  C   UNL     1      49.644   7.507  13.317  0.00  0.00    +0.000 A 
BRANCH   5   8
ATOM      8  C   UNL     1      45.881   8.119  12.919  0.00  0.00    +0.000 C 
BRANCH   8   9
ATOM      9  C   UNL     1      45.170   7.471  11.721  0.00  0.00    +0.000 C 
BRANCH   9  10
ATOM     10  C   UNL     1      45.912   6.244  11.174  0.00  0.00    +0.000 C 
BRANCH  10  11
ATOM     11  C   UNL     1      45.009   5.033  11.167  0.00  0.00    +0.000 A 
ATOM     12  C   UNL     1      44.312   4.651  12.317  0.00  0.00    +0.000 A 
ATOM     13  C   UNL     1      43.539   3.499  12.277  0.00  0.00    +0.000 A 
ATOM     14  N   UNL     1      43.417   2.711  11.187  0.00  0.00    +0.000 NA
ATOM     15  C   UNL     1      44.100   3.095  10.088  0.00  0.00    +0.000 A 
ATOM     16  C   UNL     1      44.895   4.230  10.028  0.00  0.00    +0.000 A 
ENDBRANCH  10  11
ENDBRANCH   9  10
ENDBRANCH   8   9
ENDBRANCH   5   8
ENDBRANCH   1   2
BRANCH   1  19
ATOM     17  C   UNL     1      52.878   8.828   9.972  0.00  0.00    +0.000 C 
ATOM     18  O   UNL     1      53.470   9.802  10.424  0.00  0.00    +0.000 OA
ATOM     19  N   UNL     1      51.993   8.108  10.738  0.00  0.00    +0.000 N 
ATOM     20  H   UNL     1      51.507   7.323  10.329  0.00  0.00    +0.000 HD
BRANCH  17  28
ATOM     21  C   UNL     1      53.577   5.768   8.547  0.00  0.00    +0.000 A 
ATOM     22  N   UNL     1      53.823   4.712   7.748  0.00  0.00    +0.000 NA
ATOM     23  C   UNL     1      53.876   4.920   6.431  0.00  0.00    +0.000 A 
ATOM     24  N   UNL     1      53.714   6.079   5.798  0.00  0.00    +0.000 NA
ATOM     25  C   UNL     1      53.461   7.105   6.633  0.00  0.00    +0.000 A 
ATOM     26  S   UNL     1      53.227   8.662   5.999  0.00  0.00    +0.000 S 
ATOM     27  C   UNL     1      52.990   9.314   7.553  0.00  0.00    +0.000 A 
ATOM     28  C   UNL     1      53.070   8.378   8.579  0.00  0.00    +0.000 A 
ATOM     29  C   UNL     1      53.365   7.054   8.018  0.00  0.00    +0.000 A 
BRANCH  21  31
ATOM     30  C   UNL     1      54.771   5.215  10.475  0.00  0.00    +0.000 C 
ATOM     31  O   UNL     1      53.506   5.542   9.904  0.00  0.00    +0.000 OA
ENDBRANCH  21  31
ENDBRANCH  17  28
ENDBRANCH   1  19
TORSDOF 8
ENDMDL
MODEL 9
REMARK VINA RESULT:    -5.614      2.122      3.560
REMARK INTER + INTRA:          -9.737
REMARK INTER:                  -8.668
REMARK INTRA:                  -1.070
REMARK UNBOUND:                -1.498
REMARK  Name = 
REMARK  9 active torsions:
REMARK  status: ('A' for Active; 'I' for Inactive)
REMARK    1  A    between atoms: C_1  and  O_2
REMARK    2  A    between atoms: O_2  and  C_3
REMARK    3  A    between atoms: C_10  and  C_11
REMARK    4  A    between atoms: N_13  and  C_14
REMARK    5  A    between atoms: C_14  and  C_15
REMARK    6  A    between atoms: C_18  and  C_19
REMARK    7  A    between atoms: C_19  and  C_20
REMARK    8  A    between atoms: C_20  and  C_21
REMARK    9  A    between atoms: C_21  and  C_22
REMARK                            x       y       z     vdW  Elec       q    Type
REMARK                         _______ _______ _______ _____ _____    ______ ____
ROOT
ATOM      1  C   UNL     1      47.578   3.560  15.055  0.00  0.00    +0.000 C 
ENDROOT
BRANCH   1   2
ATOM      2  C   UNL     1      46.724   4.131  13.944  0.00  0.00    +0.000 A 
ATOM      3  C   UNL     1      45.470   3.576  13.654  0.00  0.00    +0.000 A 
ATOM      4  C   UNL     1      44.626   4.165  12.700  0.00  0.00    +0.000 A 
ATOM      5  C   UNL     1      45.030   5.296  11.977  0.00  0.00    +0.000 A 
ATOM      6  C   UNL     1      46.318   5.798  12.211  0.00  0.00    +0.000 A 
ATOM      7  C   UNL     1      47.153   5.226  13.182  0.00  0.00    +0.000 A 
BRANCH   5   8
ATOM      8  C   UNL     1      44.122   5.943  10.949  0.00  0.00    +0.000 C 
BRANCH   8   9
ATOM      9  C   UNL     1      44.051   5.171   9.623  0.00  0.00    +0.000 C 
BRANCH   9  10
ATOM     10  C   UNL     1      44.211   3.655   9.801  0.00  0.00    +0.000 C 
BRANCH  10  11
ATOM     11  C   UNL     1      45.207   3.102   8.809  0.00  0.00    +0.000 A 
ATOM     12  C   UNL     1      45.517   1.739   8.788  0.00  0.00    +0.000 A 
ATOM     13  C   UNL     1      46.479   1.288   7.895  0.00  0.00    +0.000 A 
ATOM     14  N   UNL     1      47.147   2.090   7.038  0.00  0.00    +0.000 NA
ATOM     15  C   UNL     1      46.835   3.403   7.076  0.00  0.00    +0.000 A 
ATOM     16  C   UNL     1      45.887   3.949   7.928  0.00  0.00    +0.000 A 
ENDBRANCH  10  11
ENDBRANCH   9  10
ENDBRANCH   8   9
ENDBRANCH   5   8
ENDBRANCH   1   2
BRANCH   1  19
ATOM     17  C   UNL     1      47.457   4.457  17.366  0.00  0.00    +0.000 C 
ATOM     18  O   UNL     1      46.779   3.514  17.758  0.00  0.00    +0.000 OA
ATOM     19  N   UNL     1      47.877   4.545  16.062  0.00  0.00    +0.000 N 
ATOM     20  H   UNL     1      48.419   5.345  15.766  0.00  0.00    +0.000 HD
BRANCH  17  28
ATOM     21  C   UNL     1      50.468   5.996  18.044  0.00  0.00    +0.000 A 
ATOM     22  N   UNL     1      51.488   6.764  18.471  0.00  0.00    +0.000 NA
ATOM     23  C   UNL     1      51.226   7.707  19.378  0.00  0.00    +0.000 A 
ATOM     24  N   UNL     1      50.046   7.983  19.926  0.00  0.00    +0.000 NA
ATOM     25  C   UNL     1      49.053   7.198  19.464  0.00  0.00    +0.000 A 
ATOM     26  S   UNL     1      47.476   7.409  20.053  0.00  0.00    +0.000 S 
ATOM     27  C   UNL     1      46.885   6.154  19.068  0.00  0.00    +0.000 A 
ATOM     28  C   UNL     1      47.855   5.558  18.268  0.00  0.00    +0.000 A 
ATOM     29  C   UNL     1      49.157   6.184  18.520  0.00  0.00    +0.000 A 
BRANCH  21  31
ATOM     30  C   UNL     1      51.745   4.114  17.517  0.00  0.00    +0.000 C 
ATOM     31  O   UNL     1      50.742   5.036  17.094  0.00  0.00    +0.000 OA
ENDBRANCH  21  31
ENDBRANCH  17  28
ENDBRANCH   1  19
TORSDOF 8
ENDMDL
