MODEL 1
REMARK VINA RESULT:    -8.800      0.000      0.000
REMARK INTER + INTRA:         -12.201
REMARK INTER:                 -11.373
REMARK INTRA:                  -0.828
REMARK UNBOUND:                -0.828
REMARK  Name = 
REMARK  5 active torsions:
REMARK  status: ('A' for Active; 'I' for Inactive)
REMARK    1  A    between atoms: C_2  and  C_4
REMARK    2  A    between atoms: C_7  and  O_8
REMARK    3  A    between atoms: O_8  and  C_9
REMARK    4  A    between atoms: C_9  and  C_10
REMARK    5  A    between atoms: C_15  and  C_16
REMARK                            x       y       z     vdW  Elec       q    Type
REMARK                         _______ _______ _______ _____ _____    ______ ____
ROOT
ATOM      1  C   UNL     1      44.838   4.835  11.941  0.00  0.00    +0.000 A 
ATOM      2  C   UNL     1      45.421   3.981  12.886  0.00  0.00    +0.000 A 
ATOM      3  C   UNL     1      46.545   4.390  13.596  0.00  0.00    +0.000 A 
ATOM      4  C   UNL     1      47.091   5.652  13.368  0.00  0.00    +0.000 A 
ATOM      5  F   UNL     1      48.157   6.002  14.105  0.00  0.00    +0.000 F 
ATOM      6  C   UNL     1      46.554   6.539  12.420  0.00  0.00    +0.000 A 
ATOM      7  C   UNL     1      45.428   6.090  11.702  0.00  0.00    +0.000 A 
ENDROOT
BRANCH   6   8
ATOM      8  C   UNL     1      47.119   7.887  12.185  0.00  0.00    +0.000 A 
ATOM      9  C   UNL     1      46.377   9.061  12.370  0.00  0.00    +0.000 A 
ATOM     10  N   UNL     1      46.835  10.323  12.156  0.00  0.00    +0.000 NA
ATOM     11  C   UNL     1      48.112  10.435  11.733  0.00  0.00    +0.000 A 
ATOM     12  C   UNL     1      48.939   9.350  11.530  0.00  0.00    +0.000 A 
ATOM     13  F   UNL     1      50.202   9.518  11.119  0.00  0.00    +0.000 F 
ATOM     14  C   UNL     1      48.442   8.071  11.753  0.00  0.00    +0.000 A 
ENDBRANCH   6   8
BRANCH   1  15
ATOM     15  C   UNL     1      43.641   4.361  11.145  0.00  0.00    +0.000 C 
BRANCH  15  16
ATOM     16  O   UNL     1      43.757   4.754   9.772  0.00  0.00    +0.000 OA
BRANCH  16  20
ATOM     17  C   UNL     1      46.393   2.324   7.749  0.00  0.00    +0.000 A 
ATOM     18  C   UNL     1      45.486   1.760   8.649  0.00  0.00    +0.000 A 
ATOM     19  C   UNL     1      44.598   2.594   9.329  0.00  0.00    +0.000 A 
ATOM     20  C   UNL     1      44.649   3.958   9.083  0.00  0.00    +0.000 A 
ATOM     21  N   UNL     1      45.518   4.529   8.222  0.00  0.00    +0.000 NA
ATOM     22  C   UNL     1      46.376   3.702   7.582  0.00  0.00    +0.000 A 
BRANCH  17  24
ATOM     23  N   UNL     1      48.476   2.208   6.503  0.00  0.00    +0.000 N 
ATOM     24  C   UNL     1      47.385   1.542   6.986  0.00  0.00    +0.000 C 
ATOM     25  O   UNL     1      47.256   0.336   6.827  0.00  0.00    +0.000 OA
ATOM     26  H   UNL     1      49.196   1.632   6.084  0.00  0.00    +0.000 HD
ATOM     27  H   UNL     1      48.742   3.127   6.824  0.00  0.00    +0.000 HD
ENDBRANCH  17  24
ENDBRANCH  16  20
ENDBRANCH  15  16
ENDBRANCH   1  15
TORSDOF 5
ENDMDL
MODEL 2
REMARK VINA RESULT:    -8.537      1.910      2.423
REMARK INTER + INTRA:         -11.860
REMARK INTER:                 -11.018
REMARK INTRA:                  -0.842
REMARK UNBOUND:                -0.828
REMARK  Name = 
REMARK  5 active torsions:
REMARK  status: ('A' for Active; 'I' for Inactive)
REMARK    1  A    between atoms: C_2  and  C_4
REMARK    2  A    between atoms: C_7  and  O_8
REMARK    3  A    between atoms: O_8  and  C_9
REMARK    4  A    between atoms: C_9  and  C_10
REMARK    5  A    between atoms: C_15  and  C_16
REMARK                            x       y       z     vdW  Elec       q    Type
REMARK                         _______ _______ _______ _____ _____    ______ ____
ROOT
ATOM      1  C   UNL     1      44.554   4.738  11.587  0.00  0.00    +0.000 A 
ATOM      2  C   UNL     1      43.583   5.716  11.340  0.00  0.00    +0.000 A 
ATOM      3  C   UNL     1      43.896   7.063  11.491  0.00  0.00    +0.000 A 
ATOM      4  C   UNL     1      45.179   7.439  11.887  0.00  0.00    +0.000 A 
ATOM      5  F   UNL     1      45.430   8.754  11.985  0.00  0.00    +0.000 F 
ATOM      6  C   UNL     1      46.183   6.496  12.162  0.00  0.00    +0.000 A 
ATOM      7  C   UNL     1      45.831   5.139  12.020  0.00  0.00    +0.000 A 
ENDROOT
BRANCH   6   8
ATOM      8  C   UNL     1      47.552   6.889  12.567  0.00  0.00    +0.000 A 
ATOM      9  C   UNL     1      48.080   6.597  13.831  0.00  0.00    +0.000 A 
ATOM     10  N   UNL     1      49.321   6.944  14.265  0.00  0.00    +0.000 NA
ATOM     11  C   UNL     1      50.094   7.624  13.392  0.00  0.00    +0.000 A 
ATOM     12  C   UNL     1      49.683   7.954  12.117  0.00  0.00    +0.000 A 
ATOM     13  F   UNL     1      50.494   8.622  11.287  0.00  0.00    +0.000 F 
ATOM     14  C   UNL     1      48.408   7.589  11.702  0.00  0.00    +0.000 A 
ENDBRANCH   6   8
BRANCH   1  15
ATOM     15  C   UNL     1      44.188   3.274  11.460  0.00  0.00    +0.000 C 
BRANCH  15  16
ATOM     16  O   UNL     1      43.644   2.999  10.162  0.00  0.00    +0.000 OA
BRANCH  16  20
ATOM     17  C   UNL     1      46.584   2.565   7.315  0.00  0.00    +0.000 A 
ATOM     18  C   UNL     1      45.919   3.787   7.439  0.00  0.00    +0.000 A 
ATOM     19  C   UNL     1      44.924   3.922   8.408  0.00  0.00    +0.000 A 
ATOM     20  C   UNL     1      44.632   2.832   9.215  0.00  0.00    +0.000 A 
ATOM     21  N   UNL     1      45.257   1.639   9.113  0.00  0.00    +0.000 NA
ATOM     22  C   UNL     1      46.210   1.529   8.160  0.00  0.00    +0.000 A 
BRANCH  17  24
ATOM     23  N   UNL     1      47.684   3.113   5.219  0.00  0.00    +0.000 N 
ATOM     24  C   UNL     1      47.641   2.304   6.319  0.00  0.00    +0.000 C 
ATOM     25  O   UNL     1      48.473   1.424   6.491  0.00  0.00    +0.000 OA
ATOM     26  H   UNL     1      48.483   2.990   4.609  0.00  0.00    +0.000 HD
ATOM     27  H   UNL     1      47.189   3.991   5.166  0.00  0.00    +0.000 HD
ENDBRANCH  17  24
ENDBRANCH  16  20
ENDBRANCH  15  16
ENDBRANCH   1  15
TORSDOF 5
ENDMDL
MODEL 3
REMARK VINA RESULT:    -8.384      2.264      3.929
REMARK INTER + INTRA:         -11.663
REMARK INTER:                 -11.451
REMARK INTRA:                  -0.212
REMARK UNBOUND:                -0.828
REMARK  Name = 
REMARK  5 active torsions:
REMARK  status: ('A' for Active; 'I' for Inactive)
REMARK    1  A    between atoms: C_2  and  C_4
REMARK    2  A    between atoms: C_7  and  O_8
REMARK    3  A    between atoms: O_8  and  C_9
REMARK    4  A    between atoms: C_9  and  C_10
REMARK    5  A    between atoms: C_15  and  C_16
REMARK                            x       y       z     vdW  Elec       q    Type
REMARK                         _______ _______ _______ _____ _____    ______ ____
ROOT
ATOM      1  C   UNL     1      45.256   5.244  11.925  0.00  0.00    +0.000 A 
ATOM      2  C   UNL     1      45.763   6.359  11.245  0.00  0.00    +0.000 A 
ATOM      3  C   UNL     1      46.834   7.072  11.774  0.00  0.00    +0.000 A 
ATOM      4  C   UNL     1      47.404   6.675  12.983  0.00  0.00    +0.000 A 
ATOM      5  F   UNL     1      48.454   7.382  13.428  0.00  0.00    +0.000 F 
ATOM      6  C   UNL     1      46.922   5.574  13.712  0.00  0.00    +0.000 A 
ATOM      7  C   UNL     1      45.824   4.884  13.160  0.00  0.00    +0.000 A 
ENDROOT
BRANCH   6   8
ATOM      8  C   UNL     1      47.533   5.138  14.987  0.00  0.00    +0.000 A 
ATOM      9  C   UNL     1      48.595   5.825  15.591  0.00  0.00    +0.000 A 
ATOM     10  N   UNL     1      49.206   5.466  16.751  0.00  0.00    +0.000 NA
ATOM     11  C   UNL     1      48.739   4.354  17.357  0.00  0.00    +0.000 A 
ATOM     12  C   UNL     1      47.690   3.607  16.860  0.00  0.00    +0.000 A 
ATOM     13  F   UNL     1      47.258   2.517  17.508  0.00  0.00    +0.000 F 
ATOM     14  C   UNL     1      47.086   3.996  15.671  0.00  0.00    +0.000 A 
ENDBRANCH   6   8
BRANCH   1  15
ATOM     15  C   UNL     1      44.064   4.503  11.358  0.00  0.00    +0.000 C 
BRANCH  15  16
ATOM     16  O   UNL     1      43.926   4.761   9.955  0.00  0.00    +0.000 OA
BRANCH  16  20
ATOM     17  C   UNL     1      46.354   2.287   7.736  0.00  0.00    +0.000 A 
ATOM     18  C   UNL     1      45.518   1.739   8.712  0.00  0.00    +0.000 A 
ATOM     19  C   UNL     1      44.700   2.588   9.458  0.00  0.00    +0.000 A 
ATOM     20  C   UNL     1      44.748   3.950   9.200  0.00  0.00    +0.000 A 
ATOM     21  N   UNL     1      45.550   4.505   8.266  0.00  0.00    +0.000 NA
ATOM     22  C   UNL     1      46.341   3.664   7.563  0.00  0.00    +0.000 A 
BRANCH  17  24
ATOM     23  N   UNL     1      48.322   2.138   6.319  0.00  0.00    +0.000 N 
ATOM     24  C   UNL     1      47.270   1.488   6.899  0.00  0.00    +0.000 C 
ATOM     25  O   UNL     1      47.116   0.282   6.762  0.00  0.00    +0.000 OA
ATOM     26  H   UNL     1      48.998   1.551   5.845  0.00  0.00    +0.000 HD
ATOM     27  H   UNL     1      48.625   3.057   6.608  0.00  0.00    +0.000 HD
ENDBRANCH  17  24
ENDBRANCH  16  20
ENDBRANCH  15  16
ENDBRANCH   1  15
TORSDOF 5
ENDMDL
MODEL 4
REMARK VINA RESULT:    -8.095      1.714      2.353
REMARK INTER + INTRA:         -11.290
REMARK INTER:                 -10.417
REMARK INTRA:                  -0.873
REMARK UNBOUND:                -0.828
REMARK  Name = 
REMARK  5 active torsions:
REMARK  status: ('A' for Active; 'I' for Inactive)
REMARK    1  A    between atoms: C_2  and  C_4
REMARK    2  A    between atoms: C_7  and  O_8
REMARK    3  A    between atoms: O_8  and  C_9
REMARK    4  A    between atoms: C_9  and  C_10
REMARK    5  A    between atoms: C_15  and  C_16
REMARK                            x       y       z     vdW  Elec       q    Type
REMARK                         _______ _______ _______ _____ _____    ______ ____
ROOT
ATOM      1  C   UNL     1      45.085   6.242  11.602  0.00  0.00    +0.000 A 
ATOM      2  C   UNL     1      44.243   7.358  11.529  0.00  0.00    +0.000 A 
ATOM      3  C   UNL     1      44.759   8.636  11.721  0.00  0.00    +0.000 A 
ATOM      4  C   UNL     1      46.117   8.805  11.985  0.00  0.00    +0.000 A 
ATOM      5  F   UNL     1      46.562  10.062  12.131  0.00  0.00    +0.000 F 
ATOM      6  C   UNL     1      47.001   7.717  12.085  0.00  0.00    +0.000 A 
ATOM      7  C   UNL     1      46.446   6.434  11.905  0.00  0.00    +0.000 A 
ENDROOT
BRANCH   6   8
ATOM      8  C   UNL     1      48.447   7.891  12.349  0.00  0.00    +0.000 A 
ATOM      9  C   UNL     1      48.958   8.130  13.631  0.00  0.00    +0.000 A 
ATOM     10  N   UNL     1      50.271   8.312  13.934  0.00  0.00    +0.000 NA
ATOM     11  C   UNL     1      51.139   8.253  12.901  0.00  0.00    +0.000 A 
ATOM     12  C   UNL     1      50.750   8.010  11.600  0.00  0.00    +0.000 A 
ATOM     13  F   UNL     1      51.654   7.951  10.614  0.00  0.00    +0.000 F 
ATOM     14  C   UNL     1      49.401   7.831  11.320  0.00  0.00    +0.000 A 
ENDBRANCH   6   8
BRANCH   1  15
ATOM     15  C   UNL     1      44.503   4.855  11.432  0.00  0.00    +0.000 C 
BRANCH  15  16
ATOM     16  O   UNL     1      43.960   4.691  10.116  0.00  0.00    +0.000 OA
BRANCH  16  20
ATOM     17  C   UNL     1      46.469   2.497   7.700  0.00  0.00    +0.000 A 
ATOM     18  C   UNL     1      45.681   1.844   8.650  0.00  0.00    +0.000 A 
ATOM     19  C   UNL     1      44.834   2.598   9.464  0.00  0.00    +0.000 A 
ATOM     20  C   UNL     1      44.807   3.975   9.296  0.00  0.00    +0.000 A 
ATOM     21  N   UNL     1      45.561   4.631   8.388  0.00  0.00    +0.000 NA
ATOM     22  C   UNL     1      46.382   3.880   7.618  0.00  0.00    +0.000 A 
BRANCH  17  24
ATOM     23  N   UNL     1      48.513   2.495   6.386  0.00  0.00    +0.000 N 
ATOM     24  C   UNL     1      47.408   1.804   6.797  0.00  0.00    +0.000 C 
ATOM     25  O   UNL     1      47.225   0.642   6.461  0.00  0.00    +0.000 OA
ATOM     26  H   UNL     1      49.197   1.963   5.862  0.00  0.00    +0.000 HD
ATOM     27  H   UNL     1      48.825   3.344   6.834  0.00  0.00    +0.000 HD
ENDBRANCH  17  24
ENDBRANCH  16  20
ENDBRANCH  15  16
ENDBRANCH   1  15
TORSDOF 5
ENDMDL
MODEL 5
REMARK VINA RESULT:    -7.349      3.581      7.001
REMARK INTER + INTRA:         -10.325
REMARK INTER:                  -9.768
REMARK INTRA:                  -0.557
REMARK UNBOUND:                -0.828
REMARK  Name = 
REMARK  5 active torsions:
REMARK  status: ('A' for Active; 'I' for Inactive)
REMARK    1  A    between atoms: C_2  and  C_4
REMARK    2  A    between atoms: C_7  and  O_8
REMARK    3  A    between atoms: O_8  and  C_9
REMARK    4  A    between atoms: C_9  and  C_10
REMARK    5  A    between atoms: C_15  and  C_16
REMARK                            x       y       z     vdW  Elec       q    Type
REMARK                         _______ _______ _______ _____ _____    ______ ____
ROOT
ATOM      1  C   UNL     1      44.424   5.525  11.192  0.00  0.00    +0.000 A 
ATOM      2  C   UNL     1      43.506   4.739  11.899  0.00  0.00    +0.000 A 
ATOM      3  C   UNL     1      43.290   3.415  11.530  0.00  0.00    +0.000 A 
ATOM      4  C   UNL     1      43.992   2.870  10.456  0.00  0.00    +0.000 A 
ATOM      5  F   UNL     1      43.765   1.579  10.167  0.00  0.00    +0.000 F 
ATOM      6  C   UNL     1      44.911   3.620   9.705  0.00  0.00    +0.000 A 
ATOM      7  C   UNL     1      45.094   4.964  10.089  0.00  0.00    +0.000 A 
ENDROOT
BRANCH   6   8
ATOM      8  C   UNL     1      45.671   3.042   8.574  0.00  0.00    +0.000 A 
ATOM      9  C   UNL     1      46.104   3.808   7.483  0.00  0.00    +0.000 A 
ATOM     10  N   UNL     1      46.790   3.332   6.410  0.00  0.00    +0.000 NA
ATOM     11  C   UNL     1      47.071   2.012   6.414  0.00  0.00    +0.000 A 
ATOM     12  C   UNL     1      46.706   1.165   7.440  0.00  0.00    +0.000 A 
ATOM     13  F   UNL     1      47.019  -0.136   7.399  0.00  0.00    +0.000 F 
ATOM     14  C   UNL     1      46.002   1.679   8.523  0.00  0.00    +0.000 A 
ENDBRANCH   6   8
BRANCH   1  15
ATOM     15  C   UNL     1      44.617   6.976  11.577  0.00  0.00    +0.000 C 
BRANCH  15  16
ATOM     16  O   UNL     1      45.347   7.081  12.806  0.00  0.00    +0.000 OA
BRANCH  16  20
ATOM     17  C   UNL     1      49.308   7.984  12.142  0.00  0.00    +0.000 A 
ATOM     18  C   UNL     1      48.331   8.955  11.913  0.00  0.00    +0.000 A 
ATOM     19  C   UNL     1      46.992   8.637  12.141  0.00  0.00    +0.000 A 
ATOM     20  C   UNL     1      46.680   7.362  12.591  0.00  0.00    +0.000 A 
ATOM     21  N   UNL     1      47.604   6.404  12.816  0.00  0.00    +0.000 NA
ATOM     22  C   UNL     1      48.895   6.732  12.578  0.00  0.00    +0.000 A 
BRANCH  17  24
ATOM     23  N   UNL     1      51.418   7.289  11.158  0.00  0.00    +0.000 N 
ATOM     24  C   UNL     1      50.751   8.203  11.922  0.00  0.00    +0.000 C 
ATOM     25  O   UNL     1      51.319   9.188  12.373  0.00  0.00    +0.000 OA
ATOM     26  H   UNL     1      52.376   7.520  10.926  0.00  0.00    +0.000 HD
ATOM     27  H   UNL     1      50.945   6.619  10.568  0.00  0.00    +0.000 HD
ENDBRANCH  17  24
ENDBRANCH  16  20
ENDBRANCH  15  16
ENDBRANCH   1  15
TORSDOF 5
ENDMDL
MODEL 6
REMARK VINA RESULT:    -7.223      5.594      8.076
REMARK INTER + INTRA:         -10.162
REMARK INTER:                  -9.335
REMARK INTRA:                  -0.827
REMARK UNBOUND:                -0.828
REMARK  Name = 
REMARK  5 active torsions:
REMARK  status: ('A' for Active; 'I' for Inactive)
REMARK    1  A    between atoms: C_2  and  C_4
REMARK    2  A    between atoms: C_7  and  O_8
REMARK    3  A    between atoms: O_8  and  C_9
REMARK    4  A    between atoms: C_9  and  C_10
REMARK    5  A    between atoms: C_15  and  C_16
REMARK                            x       y       z     vdW  Elec       q    Type
REMARK                         _______ _______ _______ _____ _____    ______ ____
ROOT
ATOM      1  C   UNL     1      48.540   6.628  14.627  0.00  0.00    +0.000 A 
ATOM      2  C   UNL     1      49.130   7.379  13.602  0.00  0.00    +0.000 A 
ATOM      3  C   UNL     1      48.568   7.387  12.330  0.00  0.00    +0.000 A 
ATOM      4  C   UNL     1      47.413   6.648  12.075  0.00  0.00    +0.000 A 
ATOM      5  F   UNL     1      46.899   6.720  10.838  0.00  0.00    +0.000 F 
ATOM      6  C   UNL     1      46.792   5.866  13.064  0.00  0.00    +0.000 A 
ATOM      7  C   UNL     1      47.396   5.862  14.337  0.00  0.00    +0.000 A 
ENDROOT
BRANCH   6   8
ATOM      8  C   UNL     1      45.557   5.093  12.804  0.00  0.00    +0.000 A 
ATOM      9  C   UNL     1      45.543   3.694  12.729  0.00  0.00    +0.000 A 
ATOM     10  N   UNL     1      44.446   2.930  12.479  0.00  0.00    +0.000 NA
ATOM     11  C   UNL     1      43.285   3.591  12.292  0.00  0.00    +0.000 A 
ATOM     12  C   UNL     1      43.178   4.965  12.356  0.00  0.00    +0.000 A 
ATOM     13  F   UNL     1      41.998   5.570  12.173  0.00  0.00    +0.000 F 
ATOM     14  C   UNL     1      44.316   5.720  12.611  0.00  0.00    +0.000 A 
ENDBRANCH   6   8
BRANCH   1  15
ATOM     15  C   UNL     1      49.187   6.595  15.995  0.00  0.00    +0.000 C 
BRANCH  15  16
ATOM     16  O   UNL     1      48.610   5.561  16.803  0.00  0.00    +0.000 OA
BRANCH  16  20
ATOM     17  C   UNL     1      51.309   2.533  17.502  0.00  0.00    +0.000 A 
ATOM     18  C   UNL     1      51.694   3.860  17.704  0.00  0.00    +0.000 A 
ATOM     19  C   UNL     1      50.770   4.878  17.463  0.00  0.00    +0.000 A 
ATOM     20  C   UNL     1      49.498   4.531  17.031  0.00  0.00    +0.000 A 
ATOM     21  N   UNL     1      49.102   3.257  16.824  0.00  0.00    +0.000 NA
ATOM     22  C   UNL     1      50.018   2.288  17.054  0.00  0.00    +0.000 A 
BRANCH  17  24
ATOM     23  N   UNL     1      51.638   0.211  18.138  0.00  0.00    +0.000 N 
ATOM     24  C   UNL     1      52.204   1.379  17.711  0.00  0.00    +0.000 C 
ATOM     25  O   UNL     1      53.402   1.453  17.472  0.00  0.00    +0.000 OA
ATOM     26  H   UNL     1      52.251  -0.595  18.165  0.00  0.00    +0.000 HD
ATOM     27  H   UNL     1      50.644   0.039  18.101  0.00  0.00    +0.000 HD
ENDBRANCH  17  24
ENDBRANCH  16  20
ENDBRANCH  15  16
ENDBRANCH   1  15
TORSDOF 5
ENDMDL
MODEL 7
REMARK VINA RESULT:    -7.165      3.745      7.416
REMARK INTER + INTRA:         -10.087
REMARK INTER:                  -9.790
REMARK INTRA:                  -0.297
REMARK UNBOUND:                -0.828
REMARK  Name = 
REMARK  5 active torsions:
REMARK  status: ('A' for Active; 'I' for Inactive)
REMARK    1  A    between atoms: C_2  and  C_4
REMARK    2  A    between atoms: C_7  and  O_8
REMARK    3  A    between atoms: O_8  and  C_9
REMARK    4  A    between atoms: C_9  and  C_10
REMARK    5  A    between atoms: C_15  and  C_16
REMARK                            x       y       z     vdW  Elec       q    Type
REMARK                         _______ _______ _______ _____ _____    ______ ____
ROOT
ATOM      1  C   UNL     1      44.820   5.046  10.883  0.00  0.00    +0.000 A 
ATOM      2  C   UNL     1      43.825   4.282  11.504  0.00  0.00    +0.000 A 
ATOM      3  C   UNL     1      43.516   3.014  11.022  0.00  0.00    +0.000 A 
ATOM      4  C   UNL     1      44.200   2.502   9.921  0.00  0.00    +0.000 A 
ATOM      5  F   UNL     1      43.881   1.262   9.521  0.00  0.00    +0.000 F 
ATOM      6  C   UNL     1      45.196   3.235   9.252  0.00  0.00    +0.000 A 
ATOM      7  C   UNL     1      45.473   4.524   9.751  0.00  0.00    +0.000 A 
ENDROOT
BRANCH   6   8
ATOM      8  C   UNL     1      45.937   2.691   8.093  0.00  0.00    +0.000 A 
ATOM      9  C   UNL     1      46.500   1.408   8.089  0.00  0.00    +0.000 A 
ATOM     10  N   UNL     1      47.203   0.860   7.062  0.00  0.00    +0.000 NA
ATOM     11  C   UNL     1      47.362   1.629   5.965  0.00  0.00    +0.000 A 
ATOM     12  C   UNL     1      46.841   2.902   5.852  0.00  0.00    +0.000 A 
ATOM     13  F   UNL     1      47.018   3.619   4.736  0.00  0.00    +0.000 F 
ATOM     14  C   UNL     1      46.129   3.437   6.919  0.00  0.00    +0.000 A 
ENDBRANCH   6   8
BRANCH   1  15
ATOM     15  C   UNL     1      45.117   6.441  11.391  0.00  0.00    +0.000 C 
BRANCH  15  16
ATOM     16  O   UNL     1      46.529   6.684  11.408  0.00  0.00    +0.000 OA
BRANCH  16  20
ATOM     17  C   UNL     1      48.121   5.942  15.130  0.00  0.00    +0.000 A 
ATOM     18  C   UNL     1      47.161   5.074  14.606  0.00  0.00    +0.000 A 
ATOM     19  C   UNL     1      46.628   5.336  13.343  0.00  0.00    +0.000 A 
ATOM     20  C   UNL     1      47.076   6.454  12.653  0.00  0.00    +0.000 A 
ATOM     21  N   UNL     1      48.000   7.310  13.139  0.00  0.00    +0.000 NA
ATOM     22  C   UNL     1      48.494   7.041  14.370  0.00  0.00    +0.000 A 
BRANCH  17  24
ATOM     23  N   UNL     1      47.908   5.686  17.538  0.00  0.00    +0.000 N 
ATOM     24  C   UNL     1      48.742   5.771  16.458  0.00  0.00    +0.000 C 
ATOM     25  O   UNL     1      49.954   5.669  16.584  0.00  0.00    +0.000 OA
ATOM     26  H   UNL     1      48.348   5.456  18.420  0.00  0.00    +0.000 HD
ATOM     27  H   UNL     1      46.917   5.511  17.451  0.00  0.00    +0.000 HD
ENDBRANCH  17  24
ENDBRANCH  16  20
ENDBRANCH  15  16
ENDBRANCH   1  15
TORSDOF 5
ENDMDL
MODEL 8
REMARK VINA RESULT:    -6.986      4.779      8.114
REMARK INTER + INTRA:          -9.856
REMARK INTER:                  -8.987
REMARK INTRA:                  -0.869
REMARK UNBOUND:                -0.828
REMARK  Name = 
REMARK  5 active torsions:
REMARK  status: ('A' for Active; 'I' for Inactive)
REMARK    1  A    between atoms: C_2  and  C_4
REMARK    2  A    between atoms: C_7  and  O_8
REMARK    3  A    between atoms: O_8  and  C_9
REMARK    4  A    between atoms: C_9  and  C_10
REMARK    5  A    between atoms: C_15  and  C_16
REMARK                            x       y       z     vdW  Elec       q    Type
REMARK                         _______ _______ _______ _____ _____    ______ ____
ROOT
ATOM      1  C   UNL     1      47.229   7.594  13.137  0.00  0.00    +0.000 A 
ATOM      2  C   UNL     1      46.407   8.727  13.184  0.00  0.00    +0.000 A 
ATOM      3  C   UNL     1      45.223   8.760  12.454  0.00  0.00    +0.000 A 
ATOM      4  C   UNL     1      44.853   7.664  11.678  0.00  0.00    +0.000 A 
ATOM      5  F   UNL     1      43.685   7.742  11.022  0.00  0.00    +0.000 F 
ATOM      6  C   UNL     1      45.650   6.510  11.584  0.00  0.00    +0.000 A 
ATOM      7  C   UNL     1      46.854   6.513  12.318  0.00  0.00    +0.000 A 
ENDROOT
BRANCH   6   8
ATOM      8  C   UNL     1      45.255   5.336  10.775  0.00  0.00    +0.000 A 
ATOM      9  C   UNL     1      44.466   4.296  11.285  0.00  0.00    +0.000 A 
ATOM     10  N   UNL     1      44.084   3.188  10.596  0.00  0.00    +0.000 NA
ATOM     11  C   UNL     1      44.508   3.099   9.318  0.00  0.00    +0.000 A 
ATOM     12  C   UNL     1      45.277   4.068   8.708  0.00  0.00    +0.000 A 
ATOM     13  F   UNL     1      45.662   3.936   7.432  0.00  0.00    +0.000 F 
ATOM     14  C   UNL     1      45.655   5.189   9.437  0.00  0.00    +0.000 A 
ENDBRANCH   6   8
BRANCH   1  15
ATOM     15  C   UNL     1      48.536   7.588  13.901  0.00  0.00    +0.000 C 
BRANCH  15  16
ATOM     16  O   UNL     1      48.914   6.249  14.246  0.00  0.00    +0.000 OA
BRANCH  16  20
ATOM     17  C   UNL     1      48.272   5.507  18.244  0.00  0.00    +0.000 A 
ATOM     18  C   UNL     1      48.752   6.755  17.843  0.00  0.00    +0.000 A 
ATOM     19  C   UNL     1      48.966   6.995  16.484  0.00  0.00    +0.000 A 
ATOM     20  C   UNL     1      48.692   5.979  15.580  0.00  0.00    +0.000 A 
ATOM     21  N   UNL     1      48.231   4.763  15.942  0.00  0.00    +0.000 NA
ATOM     22  C   UNL     1      48.041   4.550  17.265  0.00  0.00    +0.000 A 
BRANCH  17  24
ATOM     23  N   UNL     1      48.528   3.948  20.090  0.00  0.00    +0.000 N 
ATOM     24  C   UNL     1      48.022   5.138  19.651  0.00  0.00    +0.000 C 
ATOM     25  O   UNL     1      47.419   5.888  20.406  0.00  0.00    +0.000 OA
ATOM     26  H   UNL     1      48.443   3.770  21.083  0.00  0.00    +0.000 HD
ATOM     27  H   UNL     1      49.234   3.433  19.583  0.00  0.00    +0.000 HD
ENDBRANCH  17  24
ENDBRANCH  16  20
ENDBRANCH  15  16
ENDBRANCH   1  15
TORSDOF 5
ENDMDL
MODEL 9
REMARK VINA RESULT:    -6.750      1.949      2.254
REMARK INTER + INTRA:          -9.551
REMARK INTER:                  -9.616
REMARK INTRA:                   0.065
REMARK UNBOUND:                -0.828
REMARK  Name = 
REMARK  5 active torsions:
REMARK  status: ('A' for Active; 'I' for Inactive)
REMARK    1  A    between atoms: C_2  and  C_4
REMARK    2  A    between atoms: C_7  and  O_8
REMARK    3  A    between atoms: O_8  and  C_9
REMARK    4  A    between atoms: C_9  and  C_10
REMARK    5  A    between atoms: C_15  and  C_16
REMARK                            x       y       z     vdW  Elec       q    Type
REMARK                         _______ _______ _______ _____ _____    ______ ____
ROOT
ATOM      1  C   UNL     1      44.159   5.161  11.670  0.00  0.00    +0.000 A 
ATOM      2  C   UNL     1      45.023   4.520  12.567  0.00  0.00    +0.000 A 
ATOM      3  C   UNL     1      46.009   5.247  13.225  0.00  0.00    +0.000 A 
ATOM      4  C   UNL     1      46.136   6.616  12.994  0.00  0.00    +0.000 A 
ATOM      5  F   UNL     1      47.085   7.270  13.682  0.00  0.00    +0.000 F 
ATOM      6  C   UNL     1      45.304   7.302  12.093  0.00  0.00    +0.000 A 
ATOM      7  C   UNL     1      44.328   6.536  11.426  0.00  0.00    +0.000 A 
ENDROOT
BRANCH   6   8
ATOM      8  C   UNL     1      45.423   8.759  11.856  0.00  0.00    +0.000 A 
ATOM      9  C   UNL     1      46.496   9.519  12.339  0.00  0.00    +0.000 A 
ATOM     10  N   UNL     1      46.652  10.859  12.167  0.00  0.00    +0.000 NA
ATOM     11  C   UNL     1      45.685  11.491  11.469  0.00  0.00    +0.000 A 
ATOM     12  C   UNL     1      44.590  10.842  10.936  0.00  0.00    +0.000 A 
ATOM     13  F   UNL     1      43.664  11.516  10.242  0.00  0.00    +0.000 F 
ATOM     14  C   UNL     1      44.456   9.472  11.130  0.00  0.00    +0.000 A 
ENDBRANCH   6   8
BRANCH   1  15
ATOM     15  C   UNL     1      43.117   4.350  10.929  0.00  0.00    +0.000 C 
BRANCH  15  16
ATOM     16  O   UNL     1      43.557   2.997  10.757  0.00  0.00    +0.000 OA
BRANCH  16  20
ATOM     17  C   UNL     1      46.166   2.553   7.604  0.00  0.00    +0.000 A 
ATOM     18  C   UNL     1      45.857   1.451   8.403  0.00  0.00    +0.000 A 
ATOM     19  C   UNL     1      44.972   1.614   9.470  0.00  0.00    +0.000 A 
ATOM     20  C   UNL     1      44.429   2.870   9.695  0.00  0.00    +0.000 A 
ATOM     21  N   UNL     1      44.714   3.953   8.940  0.00  0.00    +0.000 NA
ATOM     22  C   UNL     1      45.583   3.773   7.919  0.00  0.00    +0.000 A 
BRANCH  17  24
ATOM     23  N   UNL     1      47.200   3.618   5.679  0.00  0.00    +0.000 N 
ATOM     24  C   UNL     1      47.097   2.502   6.460  0.00  0.00    +0.000 C 
ATOM     25  O   UNL     1      47.782   1.511   6.244  0.00  0.00    +0.000 OA
ATOM     26  H   UNL     1      47.925   3.600   4.973  0.00  0.00    +0.000 HD
ATOM     27  H   UNL     1      46.854   4.522   5.968  0.00  0.00    +0.000 HD
ENDBRANCH  17  24
ENDBRANCH  16  20
ENDBRANCH  15  16
ENDBRANCH   1  15
TORSDOF 5
ENDMDL
