MODEL 1
REMARK VINA RESULT:    -7.605      0.000      0.000
REMARK INTER + INTRA:          -9.885
REMARK INTER:                  -9.606
REMARK INTRA:                  -0.279
REMARK UNBOUND:                -0.279
REMARK  Name = 
REMARK  5 active torsions:
REMARK  status: ('A' for Active; 'I' for Inactive)
REMARK    1  A    between atoms: N_1  and  C_2
REMARK    2  A    between atoms: C_2  and  C_3
REMARK    3  A    between atoms: C_6  and  C_7
REMARK    4  A    between atoms: C_7  and  N_8
REMARK    5  A    between atoms: C_13  and  C_14
REMARK                            x       y       z     vdW  Elec       q    Type
REMARK                         _______ _______ _______ _____ _____    ______ ____
ROOT
ATOM      1  N   UNL     1      44.229   4.265  10.264  0.00  0.00    +0.000 N 
ATOM      2  C   UNL     1      43.702   3.121  10.821  0.00  0.00    +0.000 A 
ATOM      3  C   UNL     1      44.216   2.041  10.138  0.00  0.00    +0.000 A 
ATOM      4  C   UNL     1      45.113   2.543   9.162  0.00  0.00    +0.000 A 
ATOM      5  C   UNL     1      45.895   1.964   8.148  0.00  0.00    +0.000 A 
ATOM      6  C   UNL     1      46.660   2.812   7.344  0.00  0.00    +0.000 A 
ATOM      7  C   UNL     1      46.635   4.182   7.616  0.00  0.00    +0.000 A 
ATOM      8  N   UNL     1      45.886   4.794   8.574  0.00  0.00    +0.000 NA
ATOM      9  C   UNL     1      45.145   3.933   9.296  0.00  0.00    +0.000 A 
ENDROOT
BRANCH   6  10
ATOM     10  C   UNL     1      47.472   2.338   6.195  0.00  0.00    +0.000 C 
ATOM     11  N   UNL     1      47.404   3.028   5.015  0.00  0.00    +0.000 N 
ATOM     12  O   UNL     1      48.206   1.363   6.292  0.00  0.00    +0.000 OA
ATOM     13  H   UNL     1      46.831   3.838   4.840  0.00  0.00    +0.000 HD
ATOM     14  H   UNL     1      47.989   2.695   4.257  0.00  0.00    +0.000 HD
ENDBRANCH   6  10
BRANCH   1  15
ATOM     15  C   UNL     1      43.806   5.613  10.605  0.00  0.00    +0.000 C 
BRANCH  15  19
ATOM     16  C   UNL     1      46.998   7.303  13.157  0.00  0.00    +0.000 C 
ATOM     17  C   UNL     1      45.839   8.207  12.696  0.00  0.00    +0.000 C 
ATOM     18  C   UNL     1      45.012   7.610  11.559  0.00  0.00    +0.000 C 
ATOM     19  C   UNL     1      44.520   6.183  11.852  0.00  0.00    +0.000 C 
ATOM     20  C   UNL     1      45.685   5.287  12.311  0.00  0.00    +0.000 C 
ATOM     21  C   UNL     1      46.472   5.898  13.464  0.00  0.00    +0.000 C 
BRANCH  16  22
ATOM     22  C   UNL     1      48.176   7.266  12.165  0.00  0.00    +0.000 C 
BRANCH  22  23
ATOM     23  N   UNL     1      49.357   6.644  12.757  0.00  0.00    +0.000 NA
ATOM     24  H   UNL     1      50.198   7.088  12.391  0.00  0.00    +0.000 HD
ATOM     25  H   UNL     1      49.412   5.664  12.486  0.00  0.00    +0.000 HD
ENDBRANCH  22  23
ENDBRANCH  16  22
ENDBRANCH  15  19
ENDBRANCH   1  15
TORSDOF 5
ENDMDL
MODEL 2
REMARK VINA RESULT:    -6.342      4.182      5.953
REMARK INTER + INTRA:          -8.290
REMARK INTER:                  -7.945
REMARK INTRA:                  -0.345
REMARK UNBOUND:                -0.279
REMARK  Name = 
REMARK  5 active torsions:
REMARK  status: ('A' for Active; 'I' for Inactive)
REMARK    1  A    between atoms: N_1  and  C_2
REMARK    2  A    between atoms: C_2  and  C_3
REMARK    3  A    between atoms: C_6  and  C_7
REMARK    4  A    between atoms: C_7  and  N_8
REMARK    5  A    between atoms: C_13  and  C_14
REMARK                            x       y       z     vdW  Elec       q    Type
REMARK                         _______ _______ _______ _____ _____    ______ ____
ROOT
ATOM      1  N   UNL     1      47.161   5.259  14.281  0.00  0.00    +0.000 N 
ATOM      2  C   UNL     1      47.549   6.537  13.944  0.00  0.00    +0.000 A 
ATOM      3  C   UNL     1      47.045   6.817  12.693  0.00  0.00    +0.000 A 
ATOM      4  C   UNL     1      46.296   5.690  12.274  0.00  0.00    +0.000 A 
ATOM      5  C   UNL     1      45.595   5.348  11.105  0.00  0.00    +0.000 A 
ATOM      6  C   UNL     1      44.978   4.095  11.050  0.00  0.00    +0.000 A 
ATOM      7  C   UNL     1      45.061   3.269  12.174  0.00  0.00    +0.000 A 
ATOM      8  N   UNL     1      45.737   3.545  13.323  0.00  0.00    +0.000 NA
ATOM      9  C   UNL     1      46.338   4.749  13.307  0.00  0.00    +0.000 A 
ENDROOT
BRANCH   6  10
ATOM     10  C   UNL     1      44.270   3.584   9.851  0.00  0.00    +0.000 C 
ATOM     11  N   UNL     1      44.100   4.423   8.783  0.00  0.00    +0.000 N 
ATOM     12  O   UNL     1      43.856   2.433   9.796  0.00  0.00    +0.000 OA
ATOM     13  H   UNL     1      44.404   5.383   8.735  0.00  0.00    +0.000 HD
ATOM     14  H   UNL     1      43.635   4.038   7.969  0.00  0.00    +0.000 HD
ENDBRANCH   6  10
BRANCH   1  15
ATOM     15  C   UNL     1      47.628   4.543  15.456  0.00  0.00    +0.000 C 
BRANCH  15  19
ATOM     16  C   UNL     1      48.974   5.856  19.459  0.00  0.00    +0.000 C 
ATOM     17  C   UNL     1      49.762   6.300  18.212  0.00  0.00    +0.000 C 
ATOM     18  C   UNL     1      49.411   5.510  16.953  0.00  0.00    +0.000 C 
ATOM     19  C   UNL     1      47.900   5.464  16.668  0.00  0.00    +0.000 C 
ATOM     20  C   UNL     1      47.121   5.018  17.919  0.00  0.00    +0.000 C 
ATOM     21  C   UNL     1      47.474   5.844  19.151  0.00  0.00    +0.000 C 
BRANCH  16  22
ATOM     22  C   UNL     1      49.448   4.508  20.034  0.00  0.00    +0.000 C 
BRANCH  22  23
ATOM     23  N   UNL     1      48.411   3.876  20.846  0.00  0.00    +0.000 NA
ATOM     24  H   UNL     1      48.827   3.154  21.431  0.00  0.00    +0.000 HD
ATOM     25  H   UNL     1      47.736   3.403  20.247  0.00  0.00    +0.000 HD
ENDBRANCH  22  23
ENDBRANCH  16  22
ENDBRANCH  15  19
ENDBRANCH   1  15
TORSDOF 5
ENDMDL
MODEL 3
REMARK VINA RESULT:    -5.991      4.609      8.365
REMARK INTER + INTRA:          -7.847
REMARK INTER:                  -7.284
REMARK INTRA:                  -0.563
REMARK UNBOUND:                -0.279
REMARK  Name = 
REMARK  5 active torsions:
REMARK  status: ('A' for Active; 'I' for Inactive)
REMARK    1  A    between atoms: N_1  and  C_2
REMARK    2  A    between atoms: C_2  and  C_3
REMARK    3  A    between atoms: C_6  and  C_7
REMARK    4  A    between atoms: C_7  and  N_8
REMARK    5  A    between atoms: C_13  and  C_14
REMARK                            x       y       z     vdW  Elec       q    Type
REMARK                         _______ _______ _______ _____ _____    ______ ____
ROOT
ATOM      1  N   UNL     1      48.047   6.520  14.204  0.00  0.00    +0.000 N 
ATOM      2  C   UNL     1      48.367   7.853  14.337  0.00  0.00    +0.000 A 
ATOM      3  C   UNL     1      48.734   8.072  15.646  0.00  0.00    +0.000 A 
ATOM      4  C   UNL     1      48.672   6.827  16.320  0.00  0.00    +0.000 A 
ATOM      5  C   UNL     1      48.877   6.410  17.646  0.00  0.00    +0.000 A 
ATOM      6  C   UNL     1      48.695   5.057  17.945  0.00  0.00    +0.000 A 
ATOM      7  C   UNL     1      48.359   4.190  16.903  0.00  0.00    +0.000 A 
ATOM      8  N   UNL     1      48.135   4.543  15.607  0.00  0.00    +0.000 NA
ATOM      9  C   UNL     1      48.292   5.861  15.384  0.00  0.00    +0.000 A 
ENDROOT
BRANCH   6  10
ATOM     10  C   UNL     1      48.810   4.500  19.316  0.00  0.00    +0.000 C 
ATOM     11  N   UNL     1      48.344   3.234  19.549  0.00  0.00    +0.000 N 
ATOM     12  O   UNL     1      49.323   5.139  20.224  0.00  0.00    +0.000 OA
ATOM     13  H   UNL     1      47.908   2.633  18.868  0.00  0.00    +0.000 HD
ATOM     14  H   UNL     1      48.459   2.871  20.488  0.00  0.00    +0.000 HD
ENDBRANCH   6  10
BRANCH   1  15
ATOM     15  C   UNL     1      47.460   5.932  13.011  0.00  0.00    +0.000 C 
BRANCH  15  19
ATOM     16  C   UNL     1      43.253   5.255  11.831  0.00  0.00    +0.000 C 
ATOM     17  C   UNL     1      43.710   4.880  13.253  0.00  0.00    +0.000 C 
ATOM     18  C   UNL     1      45.227   4.835  13.417  0.00  0.00    +0.000 C 
ATOM     19  C   UNL     1      45.927   6.114  12.927  0.00  0.00    +0.000 C 
ATOM     20  C   UNL     1      45.466   6.480  11.505  0.00  0.00    +0.000 C 
ATOM     21  C   UNL     1      43.948   6.543  11.382  0.00  0.00    +0.000 C 
BRANCH  16  22
ATOM     22  C   UNL     1      43.445   4.118  10.808  0.00  0.00    +0.000 C 
BRANCH  22  23
ATOM     23  N   UNL     1      43.051   2.826  11.363  0.00  0.00    +0.000 NA
ATOM     24  H   UNL     1      43.177   2.098  10.660  0.00  0.00    +0.000 HD
ATOM     25  H   UNL     1      42.059   2.830  11.593  0.00  0.00    +0.000 HD
ENDBRANCH  22  23
ENDBRANCH  16  22
ENDBRANCH  15  19
ENDBRANCH   1  15
TORSDOF 5
ENDMDL
MODEL 4
REMARK VINA RESULT:    -5.891      3.721      6.002
REMARK INTER + INTRA:          -7.720
REMARK INTER:                  -7.246
REMARK INTRA:                  -0.474
REMARK UNBOUND:                -0.279
REMARK  Name = 
REMARK  5 active torsions:
REMARK  status: ('A' for Active; 'I' for Inactive)
REMARK    1  A    between atoms: N_1  and  C_2
REMARK    2  A    between atoms: C_2  and  C_3
REMARK    3  A    between atoms: C_6  and  C_7
REMARK    4  A    between atoms: C_7  and  N_8
REMARK    5  A    between atoms: C_13  and  C_14
REMARK                            x       y       z     vdW  Elec       q    Type
REMARK                         _______ _______ _______ _____ _____    ______ ____
ROOT
ATOM      1  N   UNL     1      47.418   7.305  13.644  0.00  0.00    +0.000 N 
ATOM      2  C   UNL     1      46.913   8.586  13.618  0.00  0.00    +0.000 A 
ATOM      3  C   UNL     1      45.740   8.565  12.897  0.00  0.00    +0.000 A 
ATOM      4  C   UNL     1      45.504   7.224  12.506  0.00  0.00    +0.000 A 
ATOM      5  C   UNL     1      44.526   6.577  11.733  0.00  0.00    +0.000 A 
ATOM      6  C   UNL     1      44.643   5.197  11.544  0.00  0.00    +0.000 A 
ATOM      7  C   UNL     1      45.704   4.533  12.165  0.00  0.00    +0.000 A 
ATOM      8  N   UNL     1      46.685   5.113  12.910  0.00  0.00    +0.000 NA
ATOM      9  C   UNL     1      46.539   6.445  13.031  0.00  0.00    +0.000 A 
ENDROOT
BRANCH   6  10
ATOM     10  C   UNL     1      43.719   4.406  10.693  0.00  0.00    +0.000 C 
ATOM     11  N   UNL     1      43.803   4.542   9.333  0.00  0.00    +0.000 N 
ATOM     12  O   UNL     1      42.907   3.632  11.180  0.00  0.00    +0.000 OA
ATOM     13  H   UNL     1      44.437   5.152   8.841  0.00  0.00    +0.000 HD
ATOM     14  H   UNL     1      43.178   3.971   8.778  0.00  0.00    +0.000 HD
ENDBRANCH   6  10
BRANCH   1  15
ATOM     15  C   UNL     1      48.724   6.949  14.173  0.00  0.00    +0.000 C 
BRANCH  15  19
ATOM     16  C   UNL     1      49.726   5.189  18.104  0.00  0.00    +0.000 C 
ATOM     17  C   UNL     1      50.260   6.588  17.743  0.00  0.00    +0.000 C 
ATOM     18  C   UNL     1      50.140   6.923  16.258  0.00  0.00    +0.000 C 
ATOM     19  C   UNL     1      48.723   6.709  15.700  0.00  0.00    +0.000 C 
ATOM     20  C   UNL     1      48.198   5.309  16.065  0.00  0.00    +0.000 C 
ATOM     21  C   UNL     1      48.306   5.015  17.556  0.00  0.00    +0.000 C 
BRANCH  16  22
ATOM     22  C   UNL     1      50.654   4.045  17.652  0.00  0.00    +0.000 C 
BRANCH  22  23
ATOM     23  N   UNL     1      50.097   2.737  17.989  0.00  0.00    +0.000 NA
ATOM     24  H   UNL     1      49.683   2.771  18.920  0.00  0.00    +0.000 HD
ATOM     25  H   UNL     1      50.838   2.040  18.033  0.00  0.00    +0.000 HD
ENDBRANCH  22  23
ENDBRANCH  16  22
ENDBRANCH  15  19
ENDBRANCH   1  15
TORSDOF 5
ENDMDL
MODEL 5
REMARK VINA RESULT:    -5.887      2.952      6.506
REMARK INTER + INTRA:          -7.714
REMARK INTER:                  -7.687
REMARK INTRA:                  -0.028
REMARK UNBOUND:                -0.279
REMARK  Name = 
REMARK  5 active torsions:
REMARK  status: ('A' for Active; 'I' for Inactive)
REMARK    1  A    between atoms: N_1  and  C_2
REMARK    2  A    between atoms: C_2  and  C_3
REMARK    3  A    between atoms: C_6  and  C_7
REMARK    4  A    between atoms: C_7  and  N_8
REMARK    5  A    between atoms: C_13  and  C_14
REMARK                            x       y       z     vdW  Elec       q    Type
REMARK                         _______ _______ _______ _____ _____    ______ ____
ROOT
ATOM      1  N   UNL     1      44.948   4.087  11.719  0.00  0.00    +0.000 N 
ATOM      2  C   UNL     1      45.857   3.541  12.598  0.00  0.00    +0.000 A 
ATOM      3  C   UNL     1      46.478   4.575  13.262  0.00  0.00    +0.000 A 
ATOM      4  C   UNL     1      45.901   5.785  12.801  0.00  0.00    +0.000 A 
ATOM      5  C   UNL     1      46.131   7.148  13.052  0.00  0.00    +0.000 A 
ATOM      6  C   UNL     1      45.349   8.083  12.370  0.00  0.00    +0.000 A 
ATOM      7  C   UNL     1      44.359   7.610  11.505  0.00  0.00    +0.000 A 
ATOM      8  N   UNL     1      44.105   6.305  11.215  0.00  0.00    +0.000 NA
ATOM      9  C   UNL     1      44.909   5.451  11.876  0.00  0.00    +0.000 A 
ENDROOT
BRANCH   6  10
ATOM     10  C   UNL     1      45.537   9.551  12.489  0.00  0.00    +0.000 C 
ATOM     11  N   UNL     1      46.767  10.025  12.857  0.00  0.00    +0.000 N 
ATOM     12  O   UNL     1      44.626  10.333  12.251  0.00  0.00    +0.000 OA
ATOM     13  H   UNL     1      47.575   9.462  13.073  0.00  0.00    +0.000 HD
ATOM     14  H   UNL     1      46.872  11.032  12.905  0.00  0.00    +0.000 HD
ENDBRANCH   6  10
BRANCH   1  15
ATOM     15  C   UNL     1      44.209   3.326  10.725  0.00  0.00    +0.000 C 
BRANCH  15  19
ATOM     16  C   UNL     1      46.409   3.267   6.890  0.00  0.00    +0.000 C 
ATOM     17  C   UNL     1      45.009   2.630   6.969  0.00  0.00    +0.000 C 
ATOM     18  C   UNL     1      44.518   2.408   8.398  0.00  0.00    +0.000 C 
ATOM     19  C   UNL     1      44.603   3.672   9.271  0.00  0.00    +0.000 C 
ATOM     20  C   UNL     1      46.006   4.301   9.187  0.00  0.00    +0.000 C 
ATOM     21  C   UNL     1      46.455   4.534   7.749  0.00  0.00    +0.000 C 
BRANCH  16  22
ATOM     22  C   UNL     1      47.546   2.292   7.252  0.00  0.00    +0.000 C 
BRANCH  22  23
ATOM     23  N   UNL     1      48.357   1.956   6.085  0.00  0.00    +0.000 NA
ATOM     24  H   UNL     1      47.751   1.790   5.283  0.00  0.00    +0.000 HD
ATOM     25  H   UNL     1      48.860   1.086   6.246  0.00  0.00    +0.000 HD
ENDBRANCH  22  23
ENDBRANCH  16  22
ENDBRANCH  15  19
ENDBRANCH   1  15
TORSDOF 5
ENDMDL
MODEL 6
REMARK VINA RESULT:    -5.831      3.176      5.143
REMARK INTER + INTRA:          -7.643
REMARK INTER:                  -7.413
REMARK INTRA:                  -0.230
REMARK UNBOUND:                -0.279
REMARK  Name = 
REMARK  5 active torsions:
REMARK  status: ('A' for Active; 'I' for Inactive)
REMARK    1  A    between atoms: N_1  and  C_2
REMARK    2  A    between atoms: C_2  and  C_3
REMARK    3  A    between atoms: C_6  and  C_7
REMARK    4  A    between atoms: C_7  and  N_8
REMARK    5  A    between atoms: C_13  and  C_14
REMARK                            x       y       z     vdW  Elec       q    Type
REMARK                         _______ _______ _______ _____ _____    ______ ____
ROOT
ATOM      1  N   UNL     1      47.239   6.824  13.247  0.00  0.00    +0.000 N 
ATOM      2  C   UNL     1      47.719   6.206  14.380  0.00  0.00    +0.000 A 
ATOM      3  C   UNL     1      47.218   4.924  14.408  0.00  0.00    +0.000 A 
ATOM      4  C   UNL     1      46.441   4.744  13.237  0.00  0.00    +0.000 A 
ATOM      5  C   UNL     1      45.653   3.701  12.724  0.00  0.00    +0.000 A 
ATOM      6  C   UNL     1      44.998   3.908  11.507  0.00  0.00    +0.000 A 
ATOM      7  C   UNL     1      45.194   5.126  10.851  0.00  0.00    +0.000 A 
ATOM      8  N   UNL     1      45.933   6.173  11.310  0.00  0.00    +0.000 NA
ATOM      9  C   UNL     1      46.513   5.929  12.500  0.00  0.00    +0.000 A 
ENDROOT
BRANCH   6  10
ATOM     10  C   UNL     1      44.080   2.916  10.892  0.00  0.00    +0.000 C 
ATOM     11  N   UNL     1      44.523   2.191   9.819  0.00  0.00    +0.000 N 
ATOM     12  O   UNL     1      42.955   2.727  11.335  0.00  0.00    +0.000 OA
ATOM     13  H   UNL     1      45.429   2.276   9.385  0.00  0.00    +0.000 HD
ATOM     14  H   UNL     1      43.884   1.504   9.437  0.00  0.00    +0.000 HD
ENDBRANCH   6  10
BRANCH   1  15
ATOM     15  C   UNL     1      47.415   8.235  12.945  0.00  0.00    +0.000 C 
BRANCH  15  19
ATOM     16  C   UNL     1      51.411   9.043  11.231  0.00  0.00    +0.000 C 
ATOM     17  C   UNL     1      50.778   7.650  11.053  0.00  0.00    +0.000 C 
ATOM     18  C   UNL     1      49.584   7.398  11.971  0.00  0.00    +0.000 C 
ATOM     19  C   UNL     1      48.519   8.505  11.897  0.00  0.00    +0.000 C 
ATOM     20  C   UNL     1      49.159   9.893  12.077  0.00  0.00    +0.000 C 
ATOM     21  C   UNL     1      50.330  10.123  11.128  0.00  0.00    +0.000 C 
BRANCH  16  22
ATOM     22  C   UNL     1      52.231   9.180  12.528  0.00  0.00    +0.000 C 
BRANCH  22  23
ATOM     23  N   UNL     1      53.049   7.995  12.773  0.00  0.00    +0.000 NA
ATOM     24  H   UNL     1      53.713   7.873  12.010  0.00  0.00    +0.000 HD
ATOM     25  H   UNL     1      52.465   7.160  12.777  0.00  0.00    +0.000 HD
ENDBRANCH  22  23
ENDBRANCH  16  22
ENDBRANCH  15  19
ENDBRANCH   1  15
TORSDOF 5
ENDMDL
MODEL 7
REMARK VINA RESULT:    -5.782      3.658      5.568
REMARK INTER + INTRA:          -7.581
REMARK INTER:                  -7.040
REMARK INTRA:                  -0.542
REMARK UNBOUND:                -0.279
REMARK  Name = 
REMARK  5 active torsions:
REMARK  status: ('A' for Active; 'I' for Inactive)
REMARK    1  A    between atoms: N_1  and  C_2
REMARK    2  A    between atoms: C_2  and  C_3
REMARK    3  A    between atoms: C_6  and  C_7
REMARK    4  A    between atoms: C_7  and  N_8
REMARK    5  A    between atoms: C_13  and  C_14
REMARK                            x       y       z     vdW  Elec       q    Type
REMARK                         _______ _______ _______ _____ _____    ______ ____
ROOT
ATOM      1  N   UNL     1      46.252   8.261  12.508  0.00  0.00    +0.000 N 
ATOM      2  C   UNL     1      45.378   9.143  11.914  0.00  0.00    +0.000 A 
ATOM      3  C   UNL     1      44.351   8.413  11.358  0.00  0.00    +0.000 A 
ATOM      4  C   UNL     1      44.589   7.048  11.656  0.00  0.00    +0.000 A 
ATOM      5  C   UNL     1      43.947   5.840  11.336  0.00  0.00    +0.000 A 
ATOM      6  C   UNL     1      44.509   4.651  11.809  0.00  0.00    +0.000 A 
ATOM      7  C   UNL     1      45.655   4.733  12.605  0.00  0.00    +0.000 A 
ATOM      8  N   UNL     1      46.323   5.873  12.932  0.00  0.00    +0.000 NA
ATOM      9  C   UNL     1      45.756   6.983  12.423  0.00  0.00    +0.000 A 
ENDROOT
BRANCH   6  10
ATOM     10  C   UNL     1      43.973   3.306  11.484  0.00  0.00    +0.000 C 
ATOM     11  N   UNL     1      43.771   2.417  12.505  0.00  0.00    +0.000 N 
ATOM     12  O   UNL     1      43.694   2.991  10.335  0.00  0.00    +0.000 OA
ATOM     13  H   UNL     1      43.970   2.584  13.479  0.00  0.00    +0.000 HD
ATOM     14  H   UNL     1      43.380   1.516  12.255  0.00  0.00    +0.000 HD
ENDBRANCH   6  10
BRANCH   1  15
ATOM     15  C   UNL     1      47.543   8.633  13.063  0.00  0.00    +0.000 C 
BRANCH  15  19
ATOM     16  C   UNL     1      51.581   8.886  11.280  0.00  0.00    +0.000 C 
ATOM     17  C   UNL     1      50.745   7.608  11.082  0.00  0.00    +0.000 C 
ATOM     18  C   UNL     1      49.544   7.511  12.020  0.00  0.00    +0.000 C 
ATOM     19  C   UNL     1      48.654   8.766  11.997  0.00  0.00    +0.000 C 
ATOM     20  C   UNL     1      49.498  10.038  12.198  0.00  0.00    +0.000 C 
ATOM     21  C   UNL     1      50.672  10.118  11.228  0.00  0.00    +0.000 C 
BRANCH  16  22
ATOM     22  C   UNL     1      52.437   8.864  12.561  0.00  0.00    +0.000 C 
BRANCH  22  23
ATOM     23  N   UNL     1      53.383   7.751  12.554  0.00  0.00    +0.000 NA
ATOM     24  H   UNL     1      54.089   7.897  13.274  0.00  0.00    +0.000 HD
ATOM     25  H   UNL     1      53.884   7.721  11.667  0.00  0.00    +0.000 HD
ENDBRANCH  22  23
ENDBRANCH  16  22
ENDBRANCH  15  19
ENDBRANCH   1  15
TORSDOF 5
ENDMDL
MODEL 8
REMARK VINA RESULT:    -5.539      3.704      6.755
REMARK INTER + INTRA:          -7.275
REMARK INTER:                  -7.236
REMARK INTRA:                  -0.039
REMARK UNBOUND:                -0.279
REMARK  Name = 
REMARK  5 active torsions:
REMARK  status: ('A' for Active; 'I' for Inactive)
REMARK    1  A    between atoms: N_1  and  C_2
REMARK    2  A    between atoms: C_2  and  C_3
REMARK    3  A    between atoms: C_6  and  C_7
REMARK    4  A    between atoms: C_7  and  N_8
REMARK    5  A    between atoms: C_13  and  C_14
REMARK                            x       y       z     vdW  Elec       q    Type
REMARK                         _______ _______ _______ _____ _____    ______ ____
ROOT
ATOM      1  N   UNL     1      46.487   8.550  12.336  0.00  0.00    +0.000 N 
ATOM      2  C   UNL     1      46.066   9.844  12.120  0.00  0.00    +0.000 A 
ATOM      3  C   UNL     1      47.166  10.595  11.771  0.00  0.00    +0.000 A 
ATOM      4  C   UNL     1      48.283   9.724  11.737  0.00  0.00    +0.000 A 
ATOM      5  C   UNL     1      49.659   9.889  11.502  0.00  0.00    +0.000 A 
ATOM      6  C   UNL     1      50.479   8.761  11.577  0.00  0.00    +0.000 A 
ATOM      7  C   UNL     1      49.881   7.527  11.846  0.00  0.00    +0.000 A 
ATOM      8  N   UNL     1      48.560   7.314  12.095  0.00  0.00    +0.000 NA
ATOM      9  C   UNL     1      47.824   8.440  12.041  0.00  0.00    +0.000 A 
ENDROOT
BRANCH   6  10
ATOM     10  C   UNL     1      51.954   8.809  11.421  0.00  0.00    +0.000 C 
ATOM     11  N   UNL     1      52.732   8.157  12.339  0.00  0.00    +0.000 N 
ATOM     12  O   UNL     1      52.478   9.401  10.486  0.00  0.00    +0.000 OA
ATOM     13  H   UNL     1      52.394   7.645  13.139  0.00  0.00    +0.000 HD
ATOM     14  H   UNL     1      53.734   8.187  12.192  0.00  0.00    +0.000 HD
ENDBRANCH   6  10
BRANCH   1  15
ATOM     15  C   UNL     1      45.647   7.493  12.874  0.00  0.00    +0.000 C 
BRANCH  15  19
ATOM     16  C   UNL     1      44.818   3.494  11.179  0.00  0.00    +0.000 C 
ATOM     17  C   UNL     1      45.167   4.659  10.234  0.00  0.00    +0.000 C 
ATOM     18  C   UNL     1      45.086   6.031  10.899  0.00  0.00    +0.000 C 
ATOM     19  C   UNL     1      45.888   6.119  12.208  0.00  0.00    +0.000 C 
ATOM     20  C   UNL     1      45.532   4.952  13.147  0.00  0.00    +0.000 C 
ATOM     21  C   UNL     1      45.649   3.596  12.461  0.00  0.00    +0.000 C 
BRANCH  16  22
ATOM     22  C   UNL     1      43.312   3.385  11.484  0.00  0.00    +0.000 C 
BRANCH  22  23
ATOM     23  N   UNL     1      42.913   2.001  11.728  0.00  0.00    +0.000 NA
ATOM     24  H   UNL     1      43.104   1.439  10.900  0.00  0.00    +0.000 HD
ATOM     25  H   UNL     1      41.907   1.948  11.882  0.00  0.00    +0.000 HD
ENDBRANCH  22  23
ENDBRANCH  16  22
ENDBRANCH  15  19
ENDBRANCH   1  15
TORSDOF 5
ENDMDL
MODEL 9
REMARK VINA RESULT:    -5.490      4.638      7.175
REMARK INTER + INTRA:          -7.213
REMARK INTER:                  -6.851
REMARK INTRA:                  -0.362
REMARK UNBOUND:                -0.279
REMARK  Name = 
REMARK  5 active torsions:
REMARK  status: ('A' for Active; 'I' for Inactive)
REMARK    1  A    between atoms: N_1  and  C_2
REMARK    2  A    between atoms: C_2  and  C_3
REMARK    3  A    between atoms: C_6  and  C_7
REMARK    4  A    between atoms: C_7  and  N_8
REMARK    5  A    between atoms: C_13  and  C_14
REMARK                            x       y       z     vdW  Elec       q    Type
REMARK                         _______ _______ _______ _____ _____    ______ ____
ROOT
ATOM      1  N   UNL     1      48.802   6.991  14.883  0.00  0.00    +0.000 N 
ATOM      2  C   UNL     1      48.854   8.189  14.207  0.00  0.00    +0.000 A 
ATOM      3  C   UNL     1      47.995   8.108  13.134  0.00  0.00    +0.000 A 
ATOM      4  C   UNL     1      47.374   6.835  13.181  0.00  0.00    +0.000 A 
ATOM      5  C   UNL     1      46.461   6.150  12.362  0.00  0.00    +0.000 A 
ATOM      6  C   UNL     1      46.085   4.857  12.735  0.00  0.00    +0.000 A 
ATOM      7  C   UNL     1      46.608   4.333  13.919  0.00  0.00    +0.000 A 
ATOM      8  N   UNL     1      47.504   4.947  14.740  0.00  0.00    +0.000 NA
ATOM      9  C   UNL     1      47.855   6.175  14.315  0.00  0.00    +0.000 A 
ENDROOT
BRANCH   6  10
ATOM     10  C   UNL     1      45.186   4.000  11.922  0.00  0.00    +0.000 C 
ATOM     11  N   UNL     1      44.775   2.803  12.443  0.00  0.00    +0.000 N 
ATOM     12  O   UNL     1      44.799   4.350  10.815  0.00  0.00    +0.000 OA
ATOM     13  H   UNL     1      45.040   2.430  13.341  0.00  0.00    +0.000 HD
ATOM     14  H   UNL     1      44.141   2.251  11.876  0.00  0.00    +0.000 HD
ENDBRANCH   6  10
BRANCH   1  15
ATOM     15  C   UNL     1      49.685   6.629  15.981  0.00  0.00    +0.000 C 
BRANCH  15  19
ATOM     16  C   UNL     1      48.788   6.334  20.301  0.00  0.00    +0.000 C 
ATOM     17  C   UNL     1      49.776   7.406  19.804  0.00  0.00    +0.000 C 
ATOM     18  C   UNL     1      50.257   7.179  18.373  0.00  0.00    +0.000 C 
ATOM     19  C   UNL     1      49.107   6.978  17.372  0.00  0.00    +0.000 C 
ATOM     20  C   UNL     1      48.126   5.903  17.875  0.00  0.00    +0.000 C 
ATOM     21  C   UNL     1      47.644   6.174  19.296  0.00  0.00    +0.000 C 
BRANCH  16  22
ATOM     22  C   UNL     1      49.460   4.984  20.618  0.00  0.00    +0.000 C 
BRANCH  22  23
ATOM     23  N   UNL     1      48.472   3.928  20.823  0.00  0.00    +0.000 NA
ATOM     24  H   UNL     1      48.757   3.339  21.605  0.00  0.00    +0.000 HD
ATOM     25  H   UNL     1      48.435   3.319  20.008  0.00  0.00    +0.000 HD
ENDBRANCH  22  23
ENDBRANCH  16  22
ENDBRANCH  15  19
ENDBRANCH   1  15
TORSDOF 5
ENDMDL
