MODEL 1
REMARK VINA RESULT:    -7.259      0.000      0.000
REMARK INTER + INTRA:         -10.228
REMARK INTER:                  -9.381
REMARK INTRA:                  -0.847
REMARK UNBOUND:                -0.847
REMARK  Name = 
REMARK  5 active torsions:
REMARK  status: ('A' for Active; 'I' for Inactive)
REMARK    1  A    between atoms: C_2  and  C_3
REMARK    2  A    between atoms: C_6  and  C_7
REMARK    3  A    between atoms: C_7  and  N_8
REMARK    4  A    between atoms: N_8  and  C_9
REMARK    5  A    between atoms: C_12  and  C_13
REMARK                            x       y       z     vdW  Elec       q    Type
REMARK                         _______ _______ _______ _____ _____    ______ ____
ROOT
ATOM      1  N   UNL     1      44.234   5.257  10.196  0.00  0.00    +0.000 N 
ATOM      2  H   UNL     1      43.323   4.865  10.417  0.00  0.00    +0.000 HD
ENDROOT
BRANCH   1   3
ATOM      3  C   UNL     1      45.013   4.401   9.392  0.00  0.00    +0.000 A 
ATOM      4  N   UNL     1      45.810   4.918   8.428  0.00  0.00    +0.000 NA
ATOM      5  C   UNL     1      46.526   4.051   7.661  0.00  0.00    +0.000 A 
ATOM      6  C   UNL     1      46.494   2.669   7.804  0.00  0.00    +0.000 A 
ATOM      7  C   UNL     1      45.657   2.136   8.778  0.00  0.00    +0.000 A 
ATOM      8  C   UNL     1      44.894   3.005   9.557  0.00  0.00    +0.000 A 
ATOM      9 CL   UNL     1      43.821   2.319  10.727  0.00  0.00    +0.000 Cl
BRANCH   6  10
ATOM     10  C   UNL     1      47.374   1.838   6.955  0.00  0.00    +0.000 C 
ATOM     11  N   UNL     1      48.403   2.457   6.300  0.00  0.00    +0.000 N 
ATOM     12  O   UNL     1      47.194   0.632   6.847  0.00  0.00    +0.000 OA
ATOM     13  H   UNL     1      48.710   3.401   6.488  0.00  0.00    +0.000 HD
ATOM     14  H   UNL     1      49.028   1.862   5.768  0.00  0.00    +0.000 HD
ENDBRANCH   6  10
ENDBRANCH   1   3
BRANCH   1  15
ATOM     15  C   UNL     1      44.799   6.220  11.164  0.00  0.00    +0.000 C 
ATOM     16  C   UNL     1      45.077   7.655  10.742  0.00  0.00    +0.000 C 
ATOM     17  C   UNL     1      43.877   7.372  11.570  0.00  0.00    +0.000 C 
ATOM     18  F   UNL     1      42.638   7.449  10.954  0.00  0.00    +0.000 F 
BRANCH  15  22
ATOM     19  C   UNL     1      47.126   4.685  14.553  0.00  0.00    +0.000 A 
ATOM     20  C   UNL     1      47.721   5.535  13.614  0.00  0.00    +0.000 A 
ATOM     21  C   UNL     1      46.994   5.992  12.500  0.00  0.00    +0.000 A 
ATOM     22  C   UNL     1      45.652   5.618  12.289  0.00  0.00    +0.000 A 
ATOM     23  C   UNL     1      45.110   4.717  13.220  0.00  0.00    +0.000 A 
ATOM     24  F   UNL     1      43.843   4.298  13.067  0.00  0.00    +0.000 F 
ATOM     25  C   UNL     1      45.815   4.264  14.339  0.00  0.00    +0.000 A 
BRANCH  19  27
ATOM     26  N   UNL     1      48.422   3.950  16.676  0.00  0.00    +0.000 NA
ATOM     27  C   UNL     1      47.837   4.272  15.731  0.00  0.00    +0.000 C 
ENDBRANCH  19  27
ENDBRANCH  15  22
ENDBRANCH   1  15
TORSDOF 5
ENDMDL
MODEL 2
REMARK VINA RESULT:    -7.132      1.805      2.247
REMARK INTER + INTRA:         -10.065
REMARK INTER:                 -10.386
REMARK INTRA:                   0.321
REMARK UNBOUND:                -0.847
REMARK  Name = 
REMARK  5 active torsions:
REMARK  status: ('A' for Active; 'I' for Inactive)
REMARK    1  A    between atoms: C_2  and  C_3
REMARK    2  A    between atoms: C_6  and  C_7
REMARK    3  A    between atoms: C_7  and  N_8
REMARK    4  A    between atoms: N_8  and  C_9
REMARK    5  A    between atoms: C_12  and  C_13
REMARK                            x       y       z     vdW  Elec       q    Type
REMARK                         _______ _______ _______ _____ _____    ______ ____
ROOT
ATOM      1  N   UNL     1      43.822   4.715   9.935  0.00  0.00    +0.000 N 
ATOM      2  H   UNL     1      42.878   4.494   9.631  0.00  0.00    +0.000 HD
ENDROOT
BRANCH   1   3
ATOM      3  C   UNL     1      44.807   4.055   9.175  0.00  0.00    +0.000 A 
ATOM      4  N   UNL     1      45.624   4.767   8.363  0.00  0.00    +0.000 NA
ATOM      5  C   UNL     1      46.546   4.083   7.630  0.00  0.00    +0.000 A 
ATOM      6  C   UNL     1      46.704   2.703   7.661  0.00  0.00    +0.000 A 
ATOM      7  C   UNL     1      45.848   1.969   8.475  0.00  0.00    +0.000 A 
ATOM      8  C   UNL     1      44.879   2.647   9.215  0.00  0.00    +0.000 A 
ATOM      9 CL   UNL     1      43.792   1.711  10.181  0.00  0.00    +0.000 Cl
BRANCH   6  10
ATOM     10  C   UNL     1      47.790   2.086   6.871  0.00  0.00    +0.000 C 
ATOM     11  N   UNL     1      48.753   2.909   6.352  0.00  0.00    +0.000 N 
ATOM     12  O   UNL     1      47.834   0.876   6.692  0.00  0.00    +0.000 OA
ATOM     13  H   UNL     1      48.872   3.878   6.613  0.00  0.00    +0.000 HD
ATOM     14  H   UNL     1      49.518   2.462   5.862  0.00  0.00    +0.000 HD
ENDBRANCH   6  10
ENDBRANCH   1   3
BRANCH   1  15
ATOM     15  C   UNL     1      43.993   5.099  11.352  0.00  0.00    +0.000 C 
ATOM     16  C   UNL     1      42.793   5.547  12.174  0.00  0.00    +0.000 C 
ATOM     17  C   UNL     1      43.329   4.176  12.376  0.00  0.00    +0.000 C 
ATOM     18  F   UNL     1      42.578   3.116  11.891  0.00  0.00    +0.000 F 
BRANCH  15  22
ATOM     19  C   UNL     1      47.847   6.700  12.707  0.00  0.00    +0.000 A 
ATOM     20  C   UNL     1      47.008   7.471  11.895  0.00  0.00    +0.000 A 
ATOM     21  C   UNL     1      45.793   6.946  11.418  0.00  0.00    +0.000 A 
ATOM     22  C   UNL     1      45.378   5.638  11.738  0.00  0.00    +0.000 A 
ATOM     23  C   UNL     1      46.275   4.876  12.504  0.00  0.00    +0.000 A 
ATOM     24  F   UNL     1      45.954   3.612  12.826  0.00  0.00    +0.000 F 
ATOM     25  C   UNL     1      47.479   5.388  12.996  0.00  0.00    +0.000 A 
BRANCH  19  27
ATOM     26  N   UNL     1      50.020   7.696  13.716  0.00  0.00    +0.000 NA
ATOM     27  C   UNL     1      49.054   7.252  13.257  0.00  0.00    +0.000 C 
ENDBRANCH  19  27
ENDBRANCH  15  22
ENDBRANCH   1  15
TORSDOF 5
ENDMDL
MODEL 3
REMARK VINA RESULT:    -6.986      2.235      3.080
REMARK INTER + INTRA:          -9.875
REMARK INTER:                  -9.661
REMARK INTRA:                  -0.215
REMARK UNBOUND:                -0.847
REMARK  Name = 
REMARK  5 active torsions:
REMARK  status: ('A' for Active; 'I' for Inactive)
REMARK    1  A    between atoms: C_2  and  C_3
REMARK    2  A    between atoms: C_6  and  C_7
REMARK    3  A    between atoms: C_7  and  N_8
REMARK    4  A    between atoms: N_8  and  C_9
REMARK    5  A    between atoms: C_12  and  C_13
REMARK                            x       y       z     vdW  Elec       q    Type
REMARK                         _______ _______ _______ _____ _____    ______ ____
ROOT
ATOM      1  N   UNL     1      43.767   4.642  10.082  0.00  0.00    +0.000 N 
ATOM      2  H   UNL     1      42.855   4.761   9.651  0.00  0.00    +0.000 HD
ENDROOT
BRANCH   1   3
ATOM      3  C   UNL     1      44.573   3.711   9.398  0.00  0.00    +0.000 A 
ATOM      4  N   UNL     1      44.248   2.398   9.409  0.00  0.00    +0.000 NA
ATOM      5  C   UNL     1      45.070   1.532   8.753  0.00  0.00    +0.000 A 
ATOM      6  C   UNL     1      46.222   1.910   8.074  0.00  0.00    +0.000 A 
ATOM      7  C   UNL     1      46.571   3.256   8.083  0.00  0.00    +0.000 A 
ATOM      8  C   UNL     1      45.756   4.155   8.771  0.00  0.00    +0.000 A 
ATOM      9 CL   UNL     1      46.237   5.816   8.815  0.00  0.00    +0.000 Cl
BRANCH   6  10
ATOM     10  C   UNL     1      46.992   0.883   7.341  0.00  0.00    +0.000 C 
ATOM     11  N   UNL     1      46.706  -0.432   7.589  0.00  0.00    +0.000 N 
ATOM     12  O   UNL     1      47.853   1.198   6.529  0.00  0.00    +0.000 OA
ATOM     13  H   UNL     1      45.897  -0.750   8.102  0.00  0.00    +0.000 HD
ATOM     14  H   UNL     1      47.206  -1.119   7.036  0.00  0.00    +0.000 HD
ENDBRANCH   6  10
ENDBRANCH   1   3
BRANCH   1  15
ATOM     15  C   UNL     1      43.859   4.905  11.533  0.00  0.00    +0.000 C 
ATOM     16  C   UNL     1      42.595   5.022  12.371  0.00  0.00    +0.000 C 
ATOM     17  C   UNL     1      43.389   3.770  12.445  0.00  0.00    +0.000 C 
ATOM     18  F   UNL     1      42.862   2.639  11.841  0.00  0.00    +0.000 F 
BRANCH  15  22
ATOM     19  C   UNL     1      47.529   7.057  12.608  0.00  0.00    +0.000 A 
ATOM     20  C   UNL     1      47.399   5.694  12.896  0.00  0.00    +0.000 A 
ATOM     21  C   UNL     1      46.207   5.010  12.597  0.00  0.00    +0.000 A 
ATOM     22  C   UNL     1      45.111   5.662  12.000  0.00  0.00    +0.000 A 
ATOM     23  C   UNL     1      45.257   7.042  11.783  0.00  0.00    +0.000 A 
ATOM     24  F   UNL     1      44.242   7.733  11.239  0.00  0.00    +0.000 F 
ATOM     25  C   UNL     1      46.440   7.733  12.062  0.00  0.00    +0.000 A 
BRANCH  19  27
ATOM     26  N   UNL     1      49.759   8.307  13.048  0.00  0.00    +0.000 NA
ATOM     27  C   UNL     1      48.767   7.748  12.843  0.00  0.00    +0.000 C 
ENDBRANCH  19  27
ENDBRANCH  15  22
ENDBRANCH   1  15
TORSDOF 5
ENDMDL
MODEL 4
REMARK VINA RESULT:    -6.839      3.433      6.437
REMARK INTER + INTRA:          -9.686
REMARK INTER:                  -9.925
REMARK INTRA:                   0.240
REMARK UNBOUND:                -0.847
REMARK  Name = 
REMARK  5 active torsions:
REMARK  status: ('A' for Active; 'I' for Inactive)
REMARK    1  A    between atoms: C_2  and  C_3
REMARK    2  A    between atoms: C_6  and  C_7
REMARK    3  A    between atoms: C_7  and  N_8
REMARK    4  A    between atoms: N_8  and  C_9
REMARK    5  A    between atoms: C_12  and  C_13
REMARK                            x       y       z     vdW  Elec       q    Type
REMARK                         _______ _______ _______ _____ _____    ______ ____
ROOT
ATOM      1  N   UNL     1      44.752   6.528  11.243  0.00  0.00    +0.000 N 
ATOM      2  H   UNL     1      44.718   7.132  10.427  0.00  0.00    +0.000 HD
ENDROOT
BRANCH   1   3
ATOM      3  C   UNL     1      45.838   6.822  12.092  0.00  0.00    +0.000 A 
ATOM      4  N   UNL     1      46.700   5.842  12.450  0.00  0.00    +0.000 NA
ATOM      5  C   UNL     1      47.721   6.168  13.291  0.00  0.00    +0.000 A 
ATOM      6  C   UNL     1      47.936   7.441  13.803  0.00  0.00    +0.000 A 
ATOM      7  C   UNL     1      47.037   8.443  13.456  0.00  0.00    +0.000 A 
ATOM      8  C   UNL     1      45.968   8.124  12.617  0.00  0.00    +0.000 A 
ATOM      9 CL   UNL     1      44.832   9.372  12.239  0.00  0.00    +0.000 Cl
BRANCH   6  10
ATOM     10  C   UNL     1      49.123   7.683  14.650  0.00  0.00    +0.000 C 
ATOM     11  N   UNL     1      50.351   7.359  14.140  0.00  0.00    +0.000 N 
ATOM     12  O   UNL     1      49.014   8.166  15.770  0.00  0.00    +0.000 OA
ATOM     13  H   UNL     1      50.521   7.131  13.171  0.00  0.00    +0.000 HD
ATOM     14  H   UNL     1      51.156   7.584  14.713  0.00  0.00    +0.000 HD
ENDBRANCH   6  10
ENDBRANCH   1   3
BRANCH   1  15
ATOM     15  C   UNL     1      44.153   5.185  11.104  0.00  0.00    +0.000 C 
ATOM     16  C   UNL     1      43.525   4.498  12.308  0.00  0.00    +0.000 C 
ATOM     17  C   UNL     1      42.636   5.111  11.289  0.00  0.00    +0.000 C 
ATOM     18  F   UNL     1      41.974   6.279  11.633  0.00  0.00    +0.000 F 
BRANCH  15  22
ATOM     19  C   UNL     1      46.021   2.599   8.091  0.00  0.00    +0.000 A 
ATOM     20  C   UNL     1      46.172   3.989   8.021  0.00  0.00    +0.000 A 
ATOM     21  C   UNL     1      45.537   4.826   8.956  0.00  0.00    +0.000 A 
ATOM     22  C   UNL     1      44.734   4.303   9.990  0.00  0.00    +0.000 A 
ATOM     23  C   UNL     1      44.559   2.909   9.989  0.00  0.00    +0.000 A 
ATOM     24  F   UNL     1      43.786   2.345  10.932  0.00  0.00    +0.000 F 
ATOM     25  C   UNL     1      45.194   2.064   9.075  0.00  0.00    +0.000 A 
BRANCH  19  27
ATOM     26  N   UNL     1      47.296   1.028   6.467  0.00  0.00    +0.000 NA
ATOM     27  C   UNL     1      46.724   1.734   7.184  0.00  0.00    +0.000 C 
ENDBRANCH  19  27
ENDBRANCH  15  22
ENDBRANCH   1  15
TORSDOF 5
ENDMDL
MODEL 5
REMARK VINA RESULT:    -6.606      3.009      6.426
REMARK INTER + INTRA:          -9.384
REMARK INTER:                  -9.279
REMARK INTRA:                  -0.105
REMARK UNBOUND:                -0.847
REMARK  Name = 
REMARK  5 active torsions:
REMARK  status: ('A' for Active; 'I' for Inactive)
REMARK    1  A    between atoms: C_2  and  C_3
REMARK    2  A    between atoms: C_6  and  C_7
REMARK    3  A    between atoms: C_7  and  N_8
REMARK    4  A    between atoms: N_8  and  C_9
REMARK    5  A    between atoms: C_12  and  C_13
REMARK                            x       y       z     vdW  Elec       q    Type
REMARK                         _______ _______ _______ _____ _____    ______ ____
ROOT
ATOM      1  N   UNL     1      45.334   6.046  11.844  0.00  0.00    +0.000 N 
ATOM      2  H   UNL     1      45.853   6.721  11.291  0.00  0.00    +0.000 HD
ENDROOT
BRANCH   1   3
ATOM      3  C   UNL     1      46.057   5.591  12.964  0.00  0.00    +0.000 A 
ATOM      4  N   UNL     1      45.687   4.449  13.591  0.00  0.00    +0.000 NA
ATOM      5  C   UNL     1      46.402   4.062  14.683  0.00  0.00    +0.000 A 
ATOM      6  C   UNL     1      47.487   4.761  15.197  0.00  0.00    +0.000 A 
ATOM      7  C   UNL     1      47.853   5.946  14.569  0.00  0.00    +0.000 A 
ATOM      8  C   UNL     1      47.117   6.375  13.464  0.00  0.00    +0.000 A 
ATOM      9 CL   UNL     1      47.557   7.879  12.730  0.00  0.00    +0.000 Cl
BRANCH   6  10
ATOM     10  C   UNL     1      48.225   4.197  16.347  0.00  0.00    +0.000 C 
ATOM     11  N   UNL     1      47.703   3.094  16.966  0.00  0.00    +0.000 N 
ATOM     12  O   UNL     1      49.276   4.695  16.730  0.00  0.00    +0.000 OA
ATOM     13  H   UNL     1      46.949   2.537  16.591  0.00  0.00    +0.000 HD
ATOM     14  H   UNL     1      48.252   2.690  17.716  0.00  0.00    +0.000 HD
ENDBRANCH   6  10
ENDBRANCH   1   3
BRANCH   1  15
ATOM     15  C   UNL     1      44.321   5.239  11.133  0.00  0.00    +0.000 C 
ATOM     16  C   UNL     1      43.033   4.837  11.835  0.00  0.00    +0.000 C 
ATOM     17  C   UNL     1      42.994   5.943  10.844  0.00  0.00    +0.000 C 
ATOM     18  F   UNL     1      42.833   7.232  11.327  0.00  0.00    +0.000 F 
BRANCH  15  22
ATOM     19  C   UNL     1      46.050   2.574   8.105  0.00  0.00    +0.000 A 
ATOM     20  C   UNL     1      46.207   3.961   7.998  0.00  0.00    +0.000 A 
ATOM     21  C   UNL     1      45.614   4.823   8.940  0.00  0.00    +0.000 A 
ATOM     22  C   UNL     1      44.851   4.329  10.016  0.00  0.00    +0.000 A 
ATOM     23  C   UNL     1      44.667   2.937  10.053  0.00  0.00    +0.000 A 
ATOM     24  F   UNL     1      43.929   2.398  11.039  0.00  0.00    +0.000 F 
ATOM     25  C   UNL     1      45.259   2.067   9.133  0.00  0.00    +0.000 A 
BRANCH  19  27
ATOM     26  N   UNL     1      47.254   0.965   6.465  0.00  0.00    +0.000 NA
ATOM     27  C   UNL     1      46.709   1.684   7.190  0.00  0.00    +0.000 C 
ENDBRANCH  19  27
ENDBRANCH  15  22
ENDBRANCH   1  15
TORSDOF 5
ENDMDL
MODEL 6
REMARK VINA RESULT:    -6.366      3.049      5.998
REMARK INTER + INTRA:          -9.074
REMARK INTER:                  -9.278
REMARK INTRA:                   0.204
REMARK UNBOUND:                -0.847
REMARK  Name = 
REMARK  5 active torsions:
REMARK  status: ('A' for Active; 'I' for Inactive)
REMARK    1  A    between atoms: C_2  and  C_3
REMARK    2  A    between atoms: C_6  and  C_7
REMARK    3  A    between atoms: C_7  and  N_8
REMARK    4  A    between atoms: N_8  and  C_9
REMARK    5  A    between atoms: C_12  and  C_13
REMARK                            x       y       z     vdW  Elec       q    Type
REMARK                         _______ _______ _______ _____ _____    ______ ____
ROOT
ATOM      1  N   UNL     1      45.049   5.016  12.440  0.00  0.00    +0.000 N 
ATOM      2  H   UNL     1      44.581   4.949  13.339  0.00  0.00    +0.000 HD
ENDROOT
BRANCH   1   3
ATOM      3  C   UNL     1      46.244   5.758  12.503  0.00  0.00    +0.000 A 
ATOM      4  N   UNL     1      46.580   6.589  11.488  0.00  0.00    +0.000 NA
ATOM      5  C   UNL     1      47.757   7.268  11.584  0.00  0.00    +0.000 A 
ATOM      6  C   UNL     1      48.635   7.165  12.656  0.00  0.00    +0.000 A 
ATOM      7  C   UNL     1      48.303   6.294  13.687  0.00  0.00    +0.000 A 
ATOM      8  C   UNL     1      47.115   5.568  13.596  0.00  0.00    +0.000 A 
ATOM      9 CL   UNL     1      46.747   4.451  14.865  0.00  0.00    +0.000 Cl
BRANCH   6  10
ATOM     10  C   UNL     1      49.847   8.011  12.674  0.00  0.00    +0.000 C 
ATOM     11  N   UNL     1      50.818   7.719  13.593  0.00  0.00    +0.000 N 
ATOM     12  O   UNL     1      49.984   8.938  11.886  0.00  0.00    +0.000 OA
ATOM     13  H   UNL     1      50.846   6.870  14.139  0.00  0.00    +0.000 HD
ATOM     14  H   UNL     1      51.665   8.275  13.553  0.00  0.00    +0.000 HD
ENDBRANCH   6  10
ENDBRANCH   1   3
BRANCH   1  15
ATOM     15  C   UNL     1      44.197   4.926  11.236  0.00  0.00    +0.000 C 
ATOM     16  C   UNL     1      42.683   5.002  11.362  0.00  0.00    +0.000 C 
ATOM     17  C   UNL     1      43.421   6.194  10.874  0.00  0.00    +0.000 C 
ATOM     18  F   UNL     1      43.529   7.278  11.731  0.00  0.00    +0.000 F 
BRANCH  15  22
ATOM     19  C   UNL     1      46.093   2.620   8.020  0.00  0.00    +0.000 A 
ATOM     20  C   UNL     1      46.200   4.015   8.046  0.00  0.00    +0.000 A 
ATOM     21  C   UNL     1      45.554   4.763   9.048  0.00  0.00    +0.000 A 
ATOM     22  C   UNL     1      44.786   4.144  10.053  0.00  0.00    +0.000 A 
ATOM     23  C   UNL     1      44.654   2.749   9.957  0.00  0.00    +0.000 A 
ATOM     24  F   UNL     1      43.915   2.095  10.869  0.00  0.00    +0.000 F 
ATOM     25  C   UNL     1      45.299   1.991   8.975  0.00  0.00    +0.000 A 
BRANCH  19  27
ATOM     26  N   UNL     1      47.370   1.205   6.260  0.00  0.00    +0.000 NA
ATOM     27  C   UNL     1      46.807   1.843   7.044  0.00  0.00    +0.000 C 
ENDBRANCH  19  27
ENDBRANCH  15  22
ENDBRANCH   1  15
TORSDOF 5
ENDMDL
MODEL 7
REMARK VINA RESULT:    -6.241      2.182      3.526
REMARK INTER + INTRA:          -8.913
REMARK INTER:                  -9.421
REMARK INTRA:                   0.508
REMARK UNBOUND:                -0.847
REMARK  Name = 
REMARK  5 active torsions:
REMARK  status: ('A' for Active; 'I' for Inactive)
REMARK    1  A    between atoms: C_2  and  C_3
REMARK    2  A    between atoms: C_6  and  C_7
REMARK    3  A    between atoms: C_7  and  N_8
REMARK    4  A    between atoms: N_8  and  C_9
REMARK    5  A    between atoms: C_12  and  C_13
REMARK                            x       y       z     vdW  Elec       q    Type
REMARK                         _______ _______ _______ _____ _____    ______ ____
ROOT
ATOM      1  N   UNL     1      44.493   5.104  10.468  0.00  0.00    +0.000 N 
ATOM      2  H   UNL     1      43.496   4.916  10.414  0.00  0.00    +0.000 HD
ENDROOT
BRANCH   1   3
ATOM      3  C   UNL     1      45.226   4.448   9.460  0.00  0.00    +0.000 A 
ATOM      4  N   UNL     1      46.077   5.150   8.676  0.00  0.00    +0.000 NA
ATOM      5  C   UNL     1      46.746   4.476   7.700  0.00  0.00    +0.000 A 
ATOM      6  C   UNL     1      46.613   3.115   7.456  0.00  0.00    +0.000 A 
ATOM      7  C   UNL     1      45.720   2.397   8.245  0.00  0.00    +0.000 A 
ATOM      8  C   UNL     1      45.005   3.073   9.234  0.00  0.00    +0.000 A 
ATOM      9 CL   UNL     1      43.862   2.172  10.168  0.00  0.00    +0.000 Cl
BRANCH   6  10
ATOM     10  C   UNL     1      47.450   2.487   6.412  0.00  0.00    +0.000 C 
ATOM     11  N   UNL     1      47.430   3.036   5.159  0.00  0.00    +0.000 N 
ATOM     12  O   UNL     1      48.146   1.511   6.661  0.00  0.00    +0.000 OA
ATOM     13  H   UNL     1      47.025   3.935   4.939  0.00  0.00    +0.000 HD
ATOM     14  H   UNL     1      48.052   2.626   4.472  0.00  0.00    +0.000 HD
ENDBRANCH   6  10
ENDBRANCH   1   3
BRANCH   1  15
ATOM     15  C   UNL     1      45.037   5.435  11.802  0.00  0.00    +0.000 C 
ATOM     16  C   UNL     1      44.343   4.933  13.059  0.00  0.00    +0.000 C 
ATOM     17  C   UNL     1      45.585   4.255  12.608  0.00  0.00    +0.000 C 
ATOM     18  F   UNL     1      45.462   2.990  12.056  0.00  0.00    +0.000 F 
BRANCH  15  22
ATOM     19  C   UNL     1      47.341   9.170  11.784  0.00  0.00    +0.000 A 
ATOM     20  C   UNL     1      47.984   7.944  11.985  0.00  0.00    +0.000 A 
ATOM     21  C   UNL     1      47.245   6.748  12.040  0.00  0.00    +0.000 A 
ATOM     22  C   UNL     1      45.844   6.738  11.892  0.00  0.00    +0.000 A 
ATOM     23  C   UNL     1      45.230   7.993  11.753  0.00  0.00    +0.000 A 
ATOM     24  F   UNL     1      43.894   8.061  11.632  0.00  0.00    +0.000 F 
ATOM     25  C   UNL     1      45.952   9.189  11.685  0.00  0.00    +0.000 A 
BRANCH  19  27
ATOM     26  N   UNL     1      48.695  11.372  11.568  0.00  0.00    +0.000 NA
ATOM     27  C   UNL     1      48.093  10.387  11.656  0.00  0.00    +0.000 C 
ENDBRANCH  19  27
ENDBRANCH  15  22
ENDBRANCH   1  15
TORSDOF 5
ENDMDL
MODEL 8
REMARK VINA RESULT:    -5.612      5.390      7.133
REMARK INTER + INTRA:          -8.100
REMARK INTER:                  -7.503
REMARK INTRA:                  -0.596
REMARK UNBOUND:                -0.847
REMARK  Name = 
REMARK  5 active torsions:
REMARK  status: ('A' for Active; 'I' for Inactive)
REMARK    1  A    between atoms: C_2  and  C_3
REMARK    2  A    between atoms: C_6  and  C_7
REMARK    3  A    between atoms: C_7  and  N_8
REMARK    4  A    between atoms: N_8  and  C_9
REMARK    5  A    between atoms: C_12  and  C_13
REMARK                            x       y       z     vdW  Elec       q    Type
REMARK                         _______ _______ _______ _____ _____    ______ ____
ROOT
ATOM      1  N   UNL     1      47.702   5.571  16.306  0.00  0.00    +0.000 N 
ATOM      2  H   UNL     1      46.942   4.939  16.072  0.00  0.00    +0.000 HD
ENDROOT
BRANCH   1   3
ATOM      3  C   UNL     1      48.282   6.167  15.170  0.00  0.00    +0.000 A 
ATOM      4  N   UNL     1      49.349   6.988  15.307  0.00  0.00    +0.000 NA
ATOM      5  C   UNL     1      49.862   7.560  14.182  0.00  0.00    +0.000 A 
ATOM      6  C   UNL     1      49.362   7.354  12.902  0.00  0.00    +0.000 A 
ATOM      7  C   UNL     1      48.250   6.531  12.763  0.00  0.00    +0.000 A 
ATOM      8  C   UNL     1      47.693   5.956  13.906  0.00  0.00    +0.000 A 
ATOM      9 CL   UNL     1      46.280   4.977  13.716  0.00  0.00    +0.000 Cl
BRANCH   6  10
ATOM     10  C   UNL     1      50.052   7.977  11.753  0.00  0.00    +0.000 C 
ATOM     11  N   UNL     1      51.073   7.281  11.164  0.00  0.00    +0.000 N 
ATOM     12  O   UNL     1      49.716   9.077  11.333  0.00  0.00    +0.000 OA
ATOM     13  H   UNL     1      51.274   6.308  11.344  0.00  0.00    +0.000 HD
ATOM     14  H   UNL     1      51.496   7.699  10.344  0.00  0.00    +0.000 HD
ENDBRANCH   6  10
ENDBRANCH   1   3
BRANCH   1  15
ATOM     15  C   UNL     1      48.435   5.298  17.560  0.00  0.00    +0.000 C 
ATOM     16  C   UNL     1      48.550   6.374  18.629  0.00  0.00    +0.000 C 
ATOM     17  C   UNL     1      47.586   5.262  18.832  0.00  0.00    +0.000 C 
ATOM     18  F   UNL     1      46.237   5.553  18.711  0.00  0.00    +0.000 F 
BRANCH  15  22
ATOM     19  C   UNL     1      51.544   2.201  17.556  0.00  0.00    +0.000 A 
ATOM     20  C   UNL     1      51.875   3.534  17.822  0.00  0.00    +0.000 A 
ATOM     21  C   UNL     1      50.891   4.538  17.777  0.00  0.00    +0.000 A 
ATOM     22  C   UNL     1      49.548   4.244  17.470  0.00  0.00    +0.000 A 
ATOM     23  C   UNL     1      49.268   2.905  17.151  0.00  0.00    +0.000 A 
ATOM     24  F   UNL     1      48.012   2.557  16.824  0.00  0.00    +0.000 F 
ATOM     25  C   UNL     1      50.232   1.894  17.203  0.00  0.00    +0.000 A 
BRANCH  19  27
ATOM     26  N   UNL     1      53.316   0.316  17.744  0.00  0.00    +0.000 NA
ATOM     27  C   UNL     1      52.526   1.159  17.669  0.00  0.00    +0.000 C 
ENDBRANCH  19  27
ENDBRANCH  15  22
ENDBRANCH   1  15
TORSDOF 5
ENDMDL
MODEL 9
REMARK VINA RESULT:    -5.552      3.776      5.004
REMARK INTER + INTRA:          -8.023
REMARK INTER:                  -7.572
REMARK INTRA:                  -0.451
REMARK UNBOUND:                -0.847
REMARK  Name = 
REMARK  5 active torsions:
REMARK  status: ('A' for Active; 'I' for Inactive)
REMARK    1  A    between atoms: C_2  and  C_3
REMARK    2  A    between atoms: C_6  and  C_7
REMARK    3  A    between atoms: C_7  and  N_8
REMARK    4  A    between atoms: N_8  and  C_9
REMARK    5  A    between atoms: C_12  and  C_13
REMARK                            x       y       z     vdW  Elec       q    Type
REMARK                         _______ _______ _______ _____ _____    ______ ____
ROOT
ATOM      1  N   UNL     1      46.612   7.182  13.649  0.00  0.00    +0.000 N 
ATOM      2  H   UNL     1      46.065   7.582  14.406  0.00  0.00    +0.000 HD
ENDROOT
BRANCH   1   3
ATOM      3  C   UNL     1      45.951   6.121  13.001  0.00  0.00    +0.000 A 
ATOM      4  N   UNL     1      46.194   4.843  13.375  0.00  0.00    +0.000 NA
ATOM      5  C   UNL     1      45.549   3.849  12.704  0.00  0.00    +0.000 A 
ATOM      6  C   UNL     1      44.655   4.061  11.661  0.00  0.00    +0.000 A 
ATOM      7  C   UNL     1      44.423   5.372  11.260  0.00  0.00    +0.000 A 
ATOM      8  C   UNL     1      45.095   6.404  11.916  0.00  0.00    +0.000 A 
ATOM      9 CL   UNL     1      44.832   8.023  11.367  0.00  0.00    +0.000 Cl
BRANCH   6  10
ATOM     10  C   UNL     1      43.964   2.901  11.060  0.00  0.00    +0.000 C 
ATOM     11  N   UNL     1      44.545   2.298   9.978  0.00  0.00    +0.000 N 
ATOM     12  O   UNL     1      42.908   2.485  11.521  0.00  0.00    +0.000 OA
ATOM     13  H   UNL     1      45.490   2.476   9.669  0.00  0.00    +0.000 HD
ATOM     14  H   UNL     1      44.085   1.471   9.616  0.00  0.00    +0.000 HD
ENDBRANCH   6  10
ENDBRANCH   1   3
BRANCH   1  15
ATOM     15  C   UNL     1      48.081   7.295  13.757  0.00  0.00    +0.000 C 
ATOM     16  C   UNL     1      48.976   6.715  12.671  0.00  0.00    +0.000 C 
ATOM     17  C   UNL     1      48.758   8.184  12.711  0.00  0.00    +0.000 C 
ATOM     18  F   UNL     1      47.956   8.741  11.728  0.00  0.00    +0.000 F 
BRANCH  15  22
ATOM     19  C   UNL     1      49.430   7.599  17.922  0.00  0.00    +0.000 A 
ATOM     20  C   UNL     1      49.497   8.710  17.075  0.00  0.00    +0.000 A 
ATOM     21  C   UNL     1      49.111   8.607  15.726  0.00  0.00    +0.000 A 
ATOM     22  C   UNL     1      48.644   7.394  15.182  0.00  0.00    +0.000 A 
ATOM     23  C   UNL     1      48.649   6.288  16.048  0.00  0.00    +0.000 A 
ATOM     24  F   UNL     1      48.239   5.094  15.589  0.00  0.00    +0.000 F 
ATOM     25  C   UNL     1      49.017   6.378  17.393  0.00  0.00    +0.000 A 
BRANCH  19  27
ATOM     26  N   UNL     1      50.006   7.789  20.444  0.00  0.00    +0.000 NA
ATOM     27  C   UNL     1      49.753   7.712  19.317  0.00  0.00    +0.000 C 
ENDBRANCH  19  27
ENDBRANCH  15  22
ENDBRANCH   1  15
TORSDOF 5
ENDMDL
