MODEL 1
REMARK VINA RESULT:    -6.974      0.000      0.000
REMARK INTER + INTRA:         -10.467
REMARK INTER:                  -9.828
REMARK INTRA:                  -0.639
REMARK UNBOUND:                -0.639
REMARK  Name = 
REMARK  11 active torsions:
REMARK  status: ('A' for Active; 'I' for Inactive)
REMARK    1  A    between atoms: C_1  and  N_2
REMARK    2  A    between atoms: N_2  and  C_3
REMARK    3  A    between atoms: N_2  and  C_4
REMARK    4  A    between atoms: C_4  and  C_5
REMARK    5  A    between atoms: C_5  and  N_6
REMARK    6  A    between atoms: C_7  and  C_9
REMARK    7  A    between atoms: C_12  and  C_13
REMARK    8  A    between atoms: C_14  and  C_15
REMARK    9  A    between atoms: C_15  and  C_16
REMARK   10  A    between atoms: C_15  and  C_17
REMARK   11  A    between atoms: C_15  and  C_18
REMARK                            x       y       z     vdW  Elec       q    Type
REMARK                         _______ _______ _______ _____ _____    ______ ____
ROOT
ATOM      1  C   UNL     1      45.341   4.646  11.542  0.00  0.00    +0.000 A 
ATOM      2  C   UNL     1      45.827   5.883  11.976  0.00  0.00    +0.000 A 
ATOM      3  C   UNL     1      46.452   5.978  13.226  0.00  0.00    +0.000 A 
ATOM      4  C   UNL     1      46.593   4.831  14.004  0.00  0.00    +0.000 A 
ATOM      5  N   UNL     1      46.089   3.633  13.633  0.00  0.00    +0.000 NA
ATOM      6  C   UNL     1      45.465   3.570  12.425  0.00  0.00    +0.000 A 
ENDROOT
BRANCH   1   8
ATOM      7  N   UNL     1      45.453   3.873   9.212  0.00  0.00    +0.000 N 
ATOM      8  C   UNL     1      44.686   4.428  10.225  0.00  0.00    +0.000 C 
ATOM      9  O   UNL     1      43.501   4.733  10.075  0.00  0.00    +0.000 OA
ATOM     10  H   UNL     1      46.333   3.406   9.431  0.00  0.00    +0.000 HD
BRANCH   7  11
ATOM     11  C   UNL     1      44.849   3.550   7.921  0.00  0.00    +0.000 C 
BRANCH  11  12
ATOM     12  C   UNL     1      45.824   2.985   6.856  0.00  0.00    +0.000 C 
BRANCH  12  14
ATOM     13  C   UNL     1      46.693   0.856   7.636  0.00  0.00    +0.000 C 
ATOM     14  N   UNL     1      46.998   2.276   7.418  0.00  0.00    +0.000 NA
ATOM     15  C   UNL     1      48.158   2.374   6.522  0.00  0.00    +0.000 C 
ENDBRANCH  12  14
ENDBRANCH  11  12
ENDBRANCH   7  11
ENDBRANCH   1   8
BRANCH   4  16
ATOM     16  C   UNL     1      47.319   4.846  15.252  0.00  0.00    +0.000 C 
ATOM     17  C   UNL     1      48.035   4.864  16.342  0.00  0.00    +0.000 C 
BRANCH  17  18
ATOM     18  C   UNL     1      48.870   4.883  17.612  0.00  0.00    +0.000 C 
ATOM     19  C   UNL     1      49.528   6.278  17.686  0.00  0.00    +0.000 C 
ATOM     20  C   UNL     1      47.942   4.701  18.824  0.00  0.00    +0.000 C 
BRANCH  18  21
ATOM     21  C   UNL     1      49.901   3.749  17.582  0.00  0.00    +0.000 A 
ATOM     22  C   UNL     1      51.228   3.912  18.006  0.00  0.00    +0.000 A 
ATOM     23  C   UNL     1      52.138   2.860  17.905  0.00  0.00    +0.000 A 
ATOM     24  C   UNL     1      51.697   1.655  17.393  0.00  0.00    +0.000 A 
ATOM     25  N   UNL     1      50.424   1.428  17.018  0.00  0.00    +0.000 NA
ATOM     26  C   UNL     1      49.562   2.467  17.135  0.00  0.00    +0.000 A 
ENDBRANCH  18  21
ENDBRANCH  17  18
ENDBRANCH   4  16
TORSDOF 7
ENDMDL
MODEL 2
REMARK VINA RESULT:    -6.629      2.664      9.257
REMARK INTER + INTRA:          -9.980
REMARK INTER:                  -9.253
REMARK INTRA:                  -0.727
REMARK UNBOUND:                -0.639
REMARK  Name = 
REMARK  11 active torsions:
REMARK  status: ('A' for Active; 'I' for Inactive)
REMARK    1  A    between atoms: C_1  and  N_2
REMARK    2  A    between atoms: N_2  and  C_3
REMARK    3  A    between atoms: N_2  and  C_4
REMARK    4  A    between atoms: C_4  and  C_5
REMARK    5  A    between atoms: C_5  and  N_6
REMARK    6  A    between atoms: C_7  and  C_9
REMARK    7  A    between atoms: C_12  and  C_13
REMARK    8  A    between atoms: C_14  and  C_15
REMARK    9  A    between atoms: C_15  and  C_16
REMARK   10  A    between atoms: C_15  and  C_17
REMARK   11  A    between atoms: C_15  and  C_18
REMARK                            x       y       z     vdW  Elec       q    Type
REMARK                         _______ _______ _______ _____ _____    ______ ____
ROOT
ATOM      1  C   UNL     1      48.432   5.443  16.554  0.00  0.00    +0.000 A 
ATOM      2  C   UNL     1      48.506   6.233  15.403  0.00  0.00    +0.000 A 
ATOM      3  C   UNL     1      47.743   5.888  14.280  0.00  0.00    +0.000 A 
ATOM      4  C   UNL     1      46.909   4.774  14.342  0.00  0.00    +0.000 A 
ATOM      5  N   UNL     1      46.854   3.965  15.423  0.00  0.00    +0.000 NA
ATOM      6  C   UNL     1      47.623   4.306  16.493  0.00  0.00    +0.000 A 
ENDROOT
BRANCH   1   8
ATOM      7  N   UNL     1      49.711   4.654  18.499  0.00  0.00    +0.000 N 
ATOM      8  C   UNL     1      49.179   5.732  17.808  0.00  0.00    +0.000 C 
ATOM      9  O   UNL     1      49.310   6.899  18.185  0.00  0.00    +0.000 OA
ATOM     10  H   UNL     1      49.806   3.748  18.043  0.00  0.00    +0.000 HD
BRANCH   7  11
ATOM     11  C   UNL     1      50.531   4.873  19.689  0.00  0.00    +0.000 C 
BRANCH  11  12
ATOM     12  C   UNL     1      52.014   4.438  19.560  0.00  0.00    +0.000 C 
BRANCH  12  14
ATOM     13  C   UNL     1      53.403   4.837  17.610  0.00  0.00    +0.000 C 
ATOM     14  N   UNL     1      52.394   3.957  18.211  0.00  0.00    +0.000 NA
ATOM     15  C   UNL     1      52.935   2.592  18.266  0.00  0.00    +0.000 C 
ENDBRANCH  12  14
ENDBRANCH  11  12
ENDBRANCH   7  11
ENDBRANCH   1   8
BRANCH   4  16
ATOM     16  C   UNL     1      46.021   4.432  13.257  0.00  0.00    +0.000 C 
ATOM     17  C   UNL     1      45.166   4.146  12.314  0.00  0.00    +0.000 C 
BRANCH  17  18
ATOM     18  C   UNL     1      44.168   3.811  11.217  0.00  0.00    +0.000 C 
ATOM     19  C   UNL     1      43.421   2.539  11.675  0.00  0.00    +0.000 C 
ATOM     20  C   UNL     1      43.161   4.964  11.086  0.00  0.00    +0.000 C 
BRANCH  18  21
ATOM     21  C   UNL     1      44.898   3.614   9.882  0.00  0.00    +0.000 A 
ATOM     22  C   UNL     1      45.100   2.354   9.302  0.00  0.00    +0.000 A 
ATOM     23  C   UNL     1      45.819   2.230   8.113  0.00  0.00    +0.000 A 
ATOM     24  C   UNL     1      46.312   3.376   7.518  0.00  0.00    +0.000 A 
ATOM     25  N   UNL     1      46.104   4.613   8.006  0.00  0.00    +0.000 NA
ATOM     26  C   UNL     1      45.396   4.703   9.158  0.00  0.00    +0.000 A 
ENDBRANCH  18  21
ENDBRANCH  17  18
ENDBRANCH   4  16
TORSDOF 7
ENDMDL
MODEL 3
REMARK VINA RESULT:    -6.234      3.230      9.685
REMARK INTER + INTRA:          -9.425
REMARK INTER:                  -8.751
REMARK INTRA:                  -0.674
REMARK UNBOUND:                -0.639
REMARK  Name = 
REMARK  11 active torsions:
REMARK  status: ('A' for Active; 'I' for Inactive)
REMARK    1  A    between atoms: C_1  and  N_2
REMARK    2  A    between atoms: N_2  and  C_3
REMARK    3  A    between atoms: N_2  and  C_4
REMARK    4  A    between atoms: C_4  and  C_5
REMARK    5  A    between atoms: C_5  and  N_6
REMARK    6  A    between atoms: C_7  and  C_9
REMARK    7  A    between atoms: C_12  and  C_13
REMARK    8  A    between atoms: C_14  and  C_15
REMARK    9  A    between atoms: C_15  and  C_16
REMARK   10  A    between atoms: C_15  and  C_17
REMARK   11  A    between atoms: C_15  and  C_18
REMARK                            x       y       z     vdW  Elec       q    Type
REMARK                         _______ _______ _______ _____ _____    ______ ____
ROOT
ATOM      1  C   UNL     1      48.487   4.880  16.432  0.00  0.00    +0.000 A 
ATOM      2  C   UNL     1      48.308   5.954  15.555  0.00  0.00    +0.000 A 
ATOM      3  C   UNL     1      47.534   5.780  14.401  0.00  0.00    +0.000 A 
ATOM      4  C   UNL     1      46.941   4.542  14.161  0.00  0.00    +0.000 A 
ATOM      5  N   UNL     1      47.137   3.473  14.964  0.00  0.00    +0.000 NA
ATOM      6  C   UNL     1      47.912   3.660  16.067  0.00  0.00    +0.000 A 
ENDROOT
BRANCH   1   8
ATOM      7  N   UNL     1      49.867   6.174  18.000  0.00  0.00    +0.000 N 
ATOM      8  C   UNL     1      49.267   4.962  17.696  0.00  0.00    +0.000 C 
ATOM      9  O   UNL     1      49.348   3.974  18.429  0.00  0.00    +0.000 OA
ATOM     10  H   UNL     1      49.579   7.026  17.519  0.00  0.00    +0.000 HD
BRANCH   7  11
ATOM     11  C   UNL     1      50.573   6.351  19.267  0.00  0.00    +0.000 C 
BRANCH  11  12
ATOM     12  C   UNL     1      50.346   7.716  19.967  0.00  0.00    +0.000 C 
BRANCH  12  14
ATOM     13  C   UNL     1      48.317   8.352  21.139  0.00  0.00    +0.000 C 
ATOM     14  N   UNL     1      48.972   8.252  19.828  0.00  0.00    +0.000 NA
ATOM     15  C   UNL     1      48.980   9.583  19.205  0.00  0.00    +0.000 C 
ENDBRANCH  12  14
ENDBRANCH  11  12
ENDBRANCH   7  11
ENDBRANCH   1   8
BRANCH   4  16
ATOM     16  C   UNL     1      46.048   4.333  13.046  0.00  0.00    +0.000 C 
ATOM     17  C   UNL     1      45.211   4.095  12.074  0.00  0.00    +0.000 C 
BRANCH  17  18
ATOM     18  C   UNL     1      44.236   3.814  10.942  0.00  0.00    +0.000 C 
ATOM     19  C   UNL     1      43.373   2.614  11.391  0.00  0.00    +0.000 C 
ATOM     20  C   UNL     1      43.329   5.039  10.748  0.00  0.00    +0.000 C 
BRANCH  18  21
ATOM     21  C   UNL     1      45.002   3.533   9.644  0.00  0.00    +0.000 A 
ATOM     22  C   UNL     1      45.255   2.236   9.173  0.00  0.00    +0.000 A 
ATOM     23  C   UNL     1      46.005   2.039   8.014  0.00  0.00    +0.000 A 
ATOM     24  C   UNL     1      46.477   3.147   7.337  0.00  0.00    +0.000 A 
ATOM     25  N   UNL     1      46.221   4.413   7.717  0.00  0.00    +0.000 NA
ATOM     26  C   UNL     1      45.485   4.574   8.843  0.00  0.00    +0.000 A 
ENDBRANCH  18  21
ENDBRANCH  17  18
ENDBRANCH   4  16
TORSDOF 7
ENDMDL
MODEL 4
REMARK VINA RESULT:    -5.990      3.383      9.180
REMARK INTER + INTRA:          -9.080
REMARK INTER:                  -8.417
REMARK INTRA:                  -0.664
REMARK UNBOUND:                -0.639
REMARK  Name = 
REMARK  11 active torsions:
REMARK  status: ('A' for Active; 'I' for Inactive)
REMARK    1  A    between atoms: C_1  and  N_2
REMARK    2  A    between atoms: N_2  and  C_3
REMARK    3  A    between atoms: N_2  and  C_4
REMARK    4  A    between atoms: C_4  and  C_5
REMARK    5  A    between atoms: C_5  and  N_6
REMARK    6  A    between atoms: C_7  and  C_9
REMARK    7  A    between atoms: C_12  and  C_13
REMARK    8  A    between atoms: C_14  and  C_15
REMARK    9  A    between atoms: C_15  and  C_16
REMARK   10  A    between atoms: C_15  and  C_17
REMARK   11  A    between atoms: C_15  and  C_18
REMARK                            x       y       z     vdW  Elec       q    Type
REMARK                         _______ _______ _______ _____ _____    ______ ____
ROOT
ATOM      1  C   UNL     1      48.837   5.977  16.035  0.00  0.00    +0.000 A 
ATOM      2  C   UNL     1      48.061   4.846  16.302  0.00  0.00    +0.000 A 
ATOM      3  C   UNL     1      47.099   4.434  15.371  0.00  0.00    +0.000 A 
ATOM      4  C   UNL     1      46.949   5.153  14.187  0.00  0.00    +0.000 A 
ATOM      5  N   UNL     1      47.649   6.279  13.924  0.00  0.00    +0.000 NA
ATOM      6  C   UNL     1      48.562   6.672  14.854  0.00  0.00    +0.000 A 
ENDROOT
BRANCH   1   8
ATOM      7  N   UNL     1      51.213   6.146  16.642  0.00  0.00    +0.000 N 
ATOM      8  C   UNL     1      49.902   6.486  16.941  0.00  0.00    +0.000 C 
ATOM      9  O   UNL     1      49.598   7.189  17.907  0.00  0.00    +0.000 OA
ATOM     10  H   UNL     1      51.453   5.787  15.718  0.00  0.00    +0.000 HD
BRANCH   7  11
ATOM     11  C   UNL     1      52.314   6.684  17.438  0.00  0.00    +0.000 C 
BRANCH  11  12
ATOM     12  C   UNL     1      53.319   7.573  16.661  0.00  0.00    +0.000 C 
BRANCH  12  14
ATOM     13  C   UNL     1      54.840   5.786  17.286  0.00  0.00    +0.000 C 
ATOM     14  N   UNL     1      54.620   6.921  16.380  0.00  0.00    +0.000 NA
ATOM     15  C   UNL     1      54.684   6.435  14.995  0.00  0.00    +0.000 C 
ENDBRANCH  12  14
ENDBRANCH  11  12
ENDBRANCH   7  11
ENDBRANCH   1   8
BRANCH   4  16
ATOM     16  C   UNL     1      46.049   4.717  13.145  0.00  0.00    +0.000 C 
ATOM     17  C   UNL     1      45.196   4.377  12.219  0.00  0.00    +0.000 C 
BRANCH  17  18
ATOM     18  C   UNL     1      44.201   3.981  11.140  0.00  0.00    +0.000 C 
ATOM     19  C   UNL     1      43.419   2.766  11.688  0.00  0.00    +0.000 C 
ATOM     20  C   UNL     1      43.223   5.143  10.910  0.00  0.00    +0.000 C 
BRANCH  18  21
ATOM     21  C   UNL     1      44.937   3.664   9.833  0.00  0.00    +0.000 A 
ATOM     22  C   UNL     1      45.138   2.356   9.369  0.00  0.00    +0.000 A 
ATOM     23  C   UNL     1      45.864   2.124   8.200  0.00  0.00    +0.000 A 
ATOM     24  C   UNL     1      46.363   3.211   7.508  0.00  0.00    +0.000 A 
ATOM     25  N   UNL     1      46.157   4.488   7.882  0.00  0.00    +0.000 NA
ATOM     26  C   UNL     1      45.443   4.682   9.017  0.00  0.00    +0.000 A 
ENDBRANCH  18  21
ENDBRANCH  17  18
ENDBRANCH   4  16
TORSDOF 7
ENDMDL
MODEL 5
REMARK VINA RESULT:    -5.783      1.944      3.165
REMARK INTER + INTRA:          -8.788
REMARK INTER:                  -8.140
REMARK INTRA:                  -0.648
REMARK UNBOUND:                -0.639
REMARK  Name = 
REMARK  11 active torsions:
REMARK  status: ('A' for Active; 'I' for Inactive)
REMARK    1  A    between atoms: C_1  and  N_2
REMARK    2  A    between atoms: N_2  and  C_3
REMARK    3  A    between atoms: N_2  and  C_4
REMARK    4  A    between atoms: C_4  and  C_5
REMARK    5  A    between atoms: C_5  and  N_6
REMARK    6  A    between atoms: C_7  and  C_9
REMARK    7  A    between atoms: C_12  and  C_13
REMARK    8  A    between atoms: C_14  and  C_15
REMARK    9  A    between atoms: C_15  and  C_16
REMARK   10  A    between atoms: C_15  and  C_17
REMARK   11  A    between atoms: C_15  and  C_18
REMARK                            x       y       z     vdW  Elec       q    Type
REMARK                         _______ _______ _______ _____ _____    ______ ____
ROOT
ATOM      1  C   UNL     1      45.492   4.846  11.857  0.00  0.00    +0.000 A 
ATOM      2  C   UNL     1      46.288   5.959  12.143  0.00  0.00    +0.000 A 
ATOM      3  C   UNL     1      46.976   6.019  13.361  0.00  0.00    +0.000 A 
ATOM      4  C   UNL     1      46.867   4.957  14.257  0.00  0.00    +0.000 A 
ATOM      5  N   UNL     1      46.066   3.893  14.029  0.00  0.00    +0.000 NA
ATOM      6  C   UNL     1      45.389   3.867  12.848  0.00  0.00    +0.000 A 
ENDROOT
BRANCH   1   8
ATOM      7  N   UNL     1      45.468   4.334   9.453  0.00  0.00    +0.000 N 
ATOM      8  C   UNL     1      44.741   4.668  10.585  0.00  0.00    +0.000 C 
ATOM      9  O   UNL     1      43.516   4.810  10.575  0.00  0.00    +0.000 OA
ATOM     10  H   UNL     1      46.421   3.981   9.540  0.00  0.00    +0.000 HD
BRANCH   7  11
ATOM     11  C   UNL     1      44.784   4.058   8.192  0.00  0.00    +0.000 C 
BRANCH  11  12
ATOM     12  C   UNL     1      45.153   2.710   7.519  0.00  0.00    +0.000 C 
BRANCH  12  14
ATOM     13  C   UNL     1      46.935   1.061   7.541  0.00  0.00    +0.000 C 
ATOM     14  N   UNL     1      46.610   2.483   7.367  0.00  0.00    +0.000 NA
ATOM     15  C   UNL     1      47.081   2.912   6.043  0.00  0.00    +0.000 C 
ENDBRANCH  12  14
ENDBRANCH  11  12
ENDBRANCH   7  11
ENDBRANCH   1   8
BRANCH   4  16
ATOM     16  C   UNL     1      47.634   4.915  15.479  0.00  0.00    +0.000 C 
ATOM     17  C   UNL     1      48.305   4.941  16.597  0.00  0.00    +0.000 C 
BRANCH  17  18
ATOM     18  C   UNL     1      49.088   4.974  17.900  0.00  0.00    +0.000 C 
ATOM     19  C   UNL     1      48.589   3.779  18.743  0.00  0.00    +0.000 C 
ATOM     20  C   UNL     1      50.581   4.781  17.591  0.00  0.00    +0.000 C 
BRANCH  18  21
ATOM     21  C   UNL     1      48.880   6.319  18.607  0.00  0.00    +0.000 A 
ATOM     22  C   UNL     1      47.774   6.587  19.426  0.00  0.00    +0.000 A 
ATOM     23  C   UNL     1      47.608   7.847  20.000  0.00  0.00    +0.000 A 
ATOM     24  C   UNL     1      48.564   8.814  19.754  0.00  0.00    +0.000 A 
ATOM     25  N   UNL     1      49.668   8.595  19.018  0.00  0.00    +0.000 NA
ATOM     26  C   UNL     1      49.806   7.360  18.479  0.00  0.00    +0.000 A 
ENDBRANCH  18  21
ENDBRANCH  17  18
ENDBRANCH   4  16
TORSDOF 7
ENDMDL
MODEL 6
REMARK VINA RESULT:    -5.631      1.895      2.854
REMARK INTER + INTRA:          -8.575
REMARK INTER:                  -7.917
REMARK INTRA:                  -0.658
REMARK UNBOUND:                -0.639
REMARK  Name = 
REMARK  11 active torsions:
REMARK  status: ('A' for Active; 'I' for Inactive)
REMARK    1  A    between atoms: C_1  and  N_2
REMARK    2  A    between atoms: N_2  and  C_3
REMARK    3  A    between atoms: N_2  and  C_4
REMARK    4  A    between atoms: C_4  and  C_5
REMARK    5  A    between atoms: C_5  and  N_6
REMARK    6  A    between atoms: C_7  and  C_9
REMARK    7  A    between atoms: C_12  and  C_13
REMARK    8  A    between atoms: C_14  and  C_15
REMARK    9  A    between atoms: C_15  and  C_16
REMARK   10  A    between atoms: C_15  and  C_17
REMARK   11  A    between atoms: C_15  and  C_18
REMARK                            x       y       z     vdW  Elec       q    Type
REMARK                         _______ _______ _______ _____ _____    ______ ____
ROOT
ATOM      1  C   UNL     1      46.806   5.661  13.330  0.00  0.00    +0.000 A 
ATOM      2  C   UNL     1      47.674   6.725  13.591  0.00  0.00    +0.000 A 
ATOM      3  C   UNL     1      48.461   6.704  14.750  0.00  0.00    +0.000 A 
ATOM      4  C   UNL     1      48.375   5.611  15.610  0.00  0.00    +0.000 A 
ATOM      5  N   UNL     1      47.510   4.593  15.409  0.00  0.00    +0.000 NA
ATOM      6  C   UNL     1      46.739   4.646  14.289  0.00  0.00    +0.000 A 
ENDROOT
BRANCH   1   8
ATOM      7  N   UNL     1      45.196   4.415  11.953  0.00  0.00    +0.000 N 
ATOM      8  C   UNL     1      45.946   5.569  12.120  0.00  0.00    +0.000 C 
ATOM      9  O   UNL     1      45.917   6.506  11.320  0.00  0.00    +0.000 OA
ATOM     10  H   UNL     1      45.046   3.782  12.739  0.00  0.00    +0.000 HD
BRANCH   7  11
ATOM     11  C   UNL     1      44.263   4.296  10.835  0.00  0.00    +0.000 C 
BRANCH  11  12
ATOM     12  C   UNL     1      44.131   2.874  10.230  0.00  0.00    +0.000 C 
BRANCH  12  14
ATOM     13  C   UNL     1      45.091   4.054   8.338  0.00  0.00    +0.000 C 
ATOM     14  N   UNL     1      44.568   2.768   8.818  0.00  0.00    +0.000 NA
ATOM     15  C   UNL     1      45.615   1.749   8.660  0.00  0.00    +0.000 C 
ENDBRANCH  12  14
ENDBRANCH  11  12
ENDBRANCH   7  11
ENDBRANCH   1   8
BRANCH   4  16
ATOM     16  C   UNL     1      49.237   5.485  16.761  0.00  0.00    +0.000 C 
ATOM     17  C   UNL     1      50.067   5.356  17.759  0.00  0.00    +0.000 C 
BRANCH  17  18
ATOM     18  C   UNL     1      51.036   5.204  18.921  0.00  0.00    +0.000 C 
ATOM     19  C   UNL     1      51.886   6.493  18.957  0.00  0.00    +0.000 C 
ATOM     20  C   UNL     1      50.236   5.094  20.228  0.00  0.00    +0.000 C 
BRANCH  18  21
ATOM     21  C   UNL     1      51.889   3.943  18.734  0.00  0.00    +0.000 A 
ATOM     22  C   UNL     1      51.619   2.978  17.753  0.00  0.00    +0.000 A 
ATOM     23  C   UNL     1      52.396   1.823  17.665  0.00  0.00    +0.000 A 
ATOM     24  C   UNL     1      53.441   1.662  18.554  0.00  0.00    +0.000 A 
ATOM     25  N   UNL     1      53.775   2.579  19.481  0.00  0.00    +0.000 NA
ATOM     26  C   UNL     1      53.006   3.694  19.539  0.00  0.00    +0.000 A 
ENDBRANCH  18  21
ENDBRANCH  17  18
ENDBRANCH   4  16
TORSDOF 7
ENDMDL
MODEL 7
REMARK VINA RESULT:    -5.406      3.582      9.570
REMARK INTER + INTRA:          -8.258
REMARK INTER:                  -7.538
REMARK INTRA:                  -0.720
REMARK UNBOUND:                -0.639
REMARK  Name = 
REMARK  11 active torsions:
REMARK  status: ('A' for Active; 'I' for Inactive)
REMARK    1  A    between atoms: C_1  and  N_2
REMARK    2  A    between atoms: N_2  and  C_3
REMARK    3  A    between atoms: N_2  and  C_4
REMARK    4  A    between atoms: C_4  and  C_5
REMARK    5  A    between atoms: C_5  and  N_6
REMARK    6  A    between atoms: C_7  and  C_9
REMARK    7  A    between atoms: C_12  and  C_13
REMARK    8  A    between atoms: C_14  and  C_15
REMARK    9  A    between atoms: C_15  and  C_16
REMARK   10  A    between atoms: C_15  and  C_17
REMARK   11  A    between atoms: C_15  and  C_18
REMARK                            x       y       z     vdW  Elec       q    Type
REMARK                         _______ _______ _______ _____ _____    ______ ____
ROOT
ATOM      1  C   UNL     1      49.452   7.510  14.982  0.00  0.00    +0.000 A 
ATOM      2  C   UNL     1      49.184   7.970  13.690  0.00  0.00    +0.000 A 
ATOM      3  C   UNL     1      48.219   7.316  12.912  0.00  0.00    +0.000 A 
ATOM      4  C   UNL     1      47.533   6.231  13.452  0.00  0.00    +0.000 A 
ATOM      5  N   UNL     1      47.806   5.734  14.679  0.00  0.00    +0.000 NA
ATOM      6  C   UNL     1      48.764   6.371  15.407  0.00  0.00    +0.000 A 
ENDROOT
BRANCH   1   8
ATOM      7  N   UNL     1      50.182   8.069  17.262  0.00  0.00    +0.000 N 
ATOM      8  C   UNL     1      50.436   8.144  15.900  0.00  0.00    +0.000 C 
ATOM      9  O   UNL     1      51.434   8.700  15.437  0.00  0.00    +0.000 OA
ATOM     10  H   UNL     1      49.502   7.400  17.621  0.00  0.00    +0.000 HD
BRANCH   7  11
ATOM     11  C   UNL     1      51.151   8.592  18.223  0.00  0.00    +0.000 C 
BRANCH  11  12
ATOM     12  C   UNL     1      51.899   7.522  19.058  0.00  0.00    +0.000 C 
BRANCH  12  14
ATOM     13  C   UNL     1      54.037   6.861  20.000  0.00  0.00    +0.000 C 
ATOM     14  N   UNL     1      53.369   7.518  18.870  0.00  0.00    +0.000 NA
ATOM     15  C   UNL     1      53.746   6.820  17.632  0.00  0.00    +0.000 C 
ENDBRANCH  12  14
ENDBRANCH  11  12
ENDBRANCH   7  11
ENDBRANCH   1   8
BRANCH   4  16
ATOM     16  C   UNL     1      46.457   5.585  12.739  0.00  0.00    +0.000 C 
ATOM     17  C   UNL     1      45.530   4.955  12.072  0.00  0.00    +0.000 C 
BRANCH  17  18
ATOM     18  C   UNL     1      44.451   4.221  11.292  0.00  0.00    +0.000 C 
ATOM     19  C   UNL     1      43.983   3.049  12.183  0.00  0.00    +0.000 C 
ATOM     20  C   UNL     1      43.269   5.174  11.055  0.00  0.00    +0.000 C 
BRANCH  18  21
ATOM     21  C   UNL     1      45.005   3.748   9.943  0.00  0.00    +0.000 A 
ATOM     22  C   UNL     1      45.096   2.394   9.588  0.00  0.00    +0.000 A 
ATOM     23  C   UNL     1      45.660   2.019   8.368  0.00  0.00    +0.000 A 
ATOM     24  C   UNL     1      46.110   3.011   7.518  0.00  0.00    +0.000 A 
ATOM     25  N   UNL     1      46.002   4.325   7.787  0.00  0.00    +0.000 NA
ATOM     26  C   UNL     1      45.444   4.659   8.975  0.00  0.00    +0.000 A 
ENDBRANCH  18  21
ENDBRANCH  17  18
ENDBRANCH   4  16
TORSDOF 7
ENDMDL
MODEL 8
REMARK VINA RESULT:    -4.802      3.872      9.502
REMARK INTER + INTRA:          -7.406
REMARK INTER:                  -6.701
REMARK INTRA:                  -0.705
REMARK UNBOUND:                -0.639
REMARK  Name = 
REMARK  11 active torsions:
REMARK  status: ('A' for Active; 'I' for Inactive)
REMARK    1  A    between atoms: C_1  and  N_2
REMARK    2  A    between atoms: N_2  and  C_3
REMARK    3  A    between atoms: N_2  and  C_4
REMARK    4  A    between atoms: C_4  and  C_5
REMARK    5  A    between atoms: C_5  and  N_6
REMARK    6  A    between atoms: C_7  and  C_9
REMARK    7  A    between atoms: C_12  and  C_13
REMARK    8  A    between atoms: C_14  and  C_15
REMARK    9  A    between atoms: C_15  and  C_16
REMARK   10  A    between atoms: C_15  and  C_17
REMARK   11  A    between atoms: C_15  and  C_18
REMARK                            x       y       z     vdW  Elec       q    Type
REMARK                         _______ _______ _______ _____ _____    ______ ____
ROOT
ATOM      1  C   UNL     1      48.151   7.990  13.952  0.00  0.00    +0.000 A 
ATOM      2  C   UNL     1      47.545   8.543  12.820  0.00  0.00    +0.000 A 
ATOM      3  C   UNL     1      46.882   7.705  11.914  0.00  0.00    +0.000 A 
ATOM      4  C   UNL     1      46.825   6.337  12.171  0.00  0.00    +0.000 A 
ATOM      5  N   UNL     1      47.444   5.769  13.230  0.00  0.00    +0.000 NA
ATOM      6  C   UNL     1      48.101   6.600  14.084  0.00  0.00    +0.000 A 
ENDROOT
BRANCH   1   8
ATOM      7  N   UNL     1      49.106   8.179  16.208  0.00  0.00    +0.000 N 
ATOM      8  C   UNL     1      48.856   8.790  14.989  0.00  0.00    +0.000 C 
ATOM      9  O   UNL     1      49.202   9.946  14.737  0.00  0.00    +0.000 OA
ATOM     10  H   UNL     1      49.041   7.166  16.298  0.00  0.00    +0.000 HD
BRANCH   7  11
ATOM     11  C   UNL     1      49.873   8.876  17.239  0.00  0.00    +0.000 C 
BRANCH  11  12
ATOM     12  C   UNL     1      49.027   9.612  18.310  0.00  0.00    +0.000 C 
BRANCH  12  14
ATOM     13  C   UNL     1      48.524   7.770  19.809  0.00  0.00    +0.000 C 
ATOM     14  N   UNL     1      47.955   8.787  18.915  0.00  0.00    +0.000 NA
ATOM     15  C   UNL     1      47.016   9.614  19.684  0.00  0.00    +0.000 C 
ENDBRANCH  12  14
ENDBRANCH  11  12
ENDBRANCH   7  11
ENDBRANCH   1   8
BRANCH   4  16
ATOM     16  C   UNL     1      46.068   5.439  11.331  0.00  0.00    +0.000 C 
ATOM     17  C   UNL     1      45.439   4.624  10.530  0.00  0.00    +0.000 C 
BRANCH  17  18
ATOM     18  C   UNL     1      44.707   3.675   9.596  0.00  0.00    +0.000 C 
ATOM     19  C   UNL     1      43.939   2.678  10.492  0.00  0.00    +0.000 C 
ATOM     20  C   UNL     1      43.697   4.476   8.759  0.00  0.00    +0.000 C 
BRANCH  18  21
ATOM     21  C   UNL     1      45.705   2.977   8.664  0.00  0.00    +0.000 A 
ATOM     22  C   UNL     1      46.519   3.674   7.759  0.00  0.00    +0.000 A 
ATOM     23  C   UNL     1      47.370   2.983   6.896  0.00  0.00    +0.000 A 
ATOM     24  C   UNL     1      47.401   1.603   6.967  0.00  0.00    +0.000 A 
ATOM     25  N   UNL     1      46.679   0.889   7.850  0.00  0.00    +0.000 NA
ATOM     26  C   UNL     1      45.867   1.587   8.679  0.00  0.00    +0.000 A 
ENDBRANCH  18  21
ENDBRANCH  17  18
ENDBRANCH   4  16
TORSDOF 7
ENDMDL
MODEL 9
REMARK VINA RESULT:    -4.450      4.761      5.516
REMARK INTER + INTRA:          -6.910
REMARK INTER:                  -6.323
REMARK INTRA:                  -0.587
REMARK UNBOUND:                -0.639
REMARK  Name = 
REMARK  11 active torsions:
REMARK  status: ('A' for Active; 'I' for Inactive)
REMARK    1  A    between atoms: C_1  and  N_2
REMARK    2  A    between atoms: N_2  and  C_3
REMARK    3  A    between atoms: N_2  and  C_4
REMARK    4  A    between atoms: C_4  and  C_5
REMARK    5  A    between atoms: C_5  and  N_6
REMARK    6  A    between atoms: C_7  and  C_9
REMARK    7  A    between atoms: C_12  and  C_13
REMARK    8  A    between atoms: C_14  and  C_15
REMARK    9  A    between atoms: C_15  and  C_16
REMARK   10  A    between atoms: C_15  and  C_17
REMARK   11  A    between atoms: C_15  and  C_18
REMARK                            x       y       z     vdW  Elec       q    Type
REMARK                         _______ _______ _______ _____ _____    ______ ____
ROOT
ATOM      1  C   UNL     1      47.779   8.887  13.146  0.00  0.00    +0.000 A 
ATOM      2  C   UNL     1      47.583   7.508  13.025  0.00  0.00    +0.000 A 
ATOM      3  C   UNL     1      48.044   6.654  14.035  0.00  0.00    +0.000 A 
ATOM      4  C   UNL     1      48.673   7.202  15.152  0.00  0.00    +0.000 A 
ATOM      5  N   UNL     1      48.920   8.524  15.273  0.00  0.00    +0.000 NA
ATOM      6  C   UNL     1      48.484   9.332  14.267  0.00  0.00    +0.000 A 
ENDROOT
BRANCH   1   8
ATOM      7  N   UNL     1      45.969  10.239  12.180  0.00  0.00    +0.000 N 
ATOM      8  C   UNL     1      47.309   9.883  12.147  0.00  0.00    +0.000 C 
ATOM      9  O   UNL     1      48.108  10.362  11.339  0.00  0.00    +0.000 OA
ATOM     10  H   UNL     1      45.401  10.027  13.000  0.00  0.00    +0.000 HD
BRANCH   7  11
ATOM     11  C   UNL     1      45.459  11.277  11.286  0.00  0.00    +0.000 C 
BRANCH  11  12
ATOM     12  C   UNL     1      43.914  11.357  11.177  0.00  0.00    +0.000 C 
BRANCH  12  14
ATOM     13  C   UNL     1      41.945  10.019  10.702  0.00  0.00    +0.000 C 
ATOM     14  N   UNL     1      43.313  10.344  10.277  0.00  0.00    +0.000 NA
ATOM     15  C   UNL     1      43.271  10.824   8.889  0.00  0.00    +0.000 C 
ENDBRANCH  12  14
ENDBRANCH  11  12
ENDBRANCH   7  11
ENDBRANCH   1   8
BRANCH   4  16
ATOM     16  C   UNL     1      49.074   6.383  16.272  0.00  0.00    +0.000 C 
ATOM     17  C   UNL     1      49.449   5.701  17.318  0.00  0.00    +0.000 C 
BRANCH  17  18
ATOM     18  C   UNL     1      49.888   4.908  18.539  0.00  0.00    +0.000 C 
ATOM     19  C   UNL     1      50.768   5.854  19.385  0.00  0.00    +0.000 C 
ATOM     20  C   UNL     1      48.646   4.515  19.354  0.00  0.00    +0.000 C 
BRANCH  18  21
ATOM     21  C   UNL     1      50.637   3.642  18.103  0.00  0.00    +0.000 A 
ATOM     22  C   UNL     1      52.000   3.437  18.359  0.00  0.00    +0.000 A 
ATOM     23  C   UNL     1      52.642   2.290  17.892  0.00  0.00    +0.000 A 
ATOM     24  C   UNL     1      51.901   1.361  17.187  0.00  0.00    +0.000 A 
ATOM     25  N   UNL     1      50.581   1.484  16.957  0.00  0.00    +0.000 NA
ATOM     26  C   UNL     1      49.983   2.605  17.429  0.00  0.00    +0.000 A 
ENDBRANCH  18  21
ENDBRANCH  17  18
ENDBRANCH   4  16
TORSDOF 7
ENDMDL
