MODEL 1
REMARK VINA RESULT:    -6.859      0.000      0.000
REMARK INTER + INTRA:          -9.136
REMARK INTER:                  -8.664
REMARK INTRA:                  -0.473
REMARK UNBOUND:                -0.473
REMARK  Name = 
REMARK  5 active torsions:
REMARK  status: ('A' for Active; 'I' for Inactive)
REMARK    1  A    between atoms: N_1  and  C_2
REMARK    2  A    between atoms: C_2  and  C_3
REMARK    3  A    between atoms: C_3  and  C_4
REMARK    4  A    between atoms: N_6  and  C_7
REMARK    5  A    between atoms: C_7  and  C_8
REMARK                            x       y       z     vdW  Elec       q    Type
REMARK                         _______ _______ _______ _____ _____    ______ ____
ROOT
ATOM      1  C   UNL     1      45.198   6.999  12.040  0.00  0.00    +0.000 A 
ATOM      2  C   UNL     1      44.374   6.462  11.071  0.00  0.00    +0.000 A 
ATOM      3  N   UNL     1      44.488   5.094  11.110  0.00  0.00    +0.000 N 
ATOM      4  C   UNL     1      45.353   4.723  12.118  0.00  0.00    +0.000 A 
ATOM      5  C   UNL     1      45.772   3.452  12.551  0.00  0.00    +0.000 A 
ATOM      6  C   UNL     1      46.687   3.385  13.607  0.00  0.00    +0.000 A 
ATOM      7  C   UNL     1      47.165   4.542  14.214  0.00  0.00    +0.000 A 
ATOM      8  C   UNL     1      46.738   5.801  13.779  0.00  0.00    +0.000 A 
ATOM      9  C   UNL     1      45.814   5.899  12.715  0.00  0.00    +0.000 A 
ENDROOT
BRANCH   1  10
ATOM     10  C   UNL     1      45.419   8.457  12.297  0.00  0.00    +0.000 C 
BRANCH  10  11
ATOM     11  C   UNL     1      44.535   9.327  11.394  0.00  0.00    +0.000 C 
BRANCH  11  12
ATOM     12  N   UNL     1      43.795  10.332  12.159  0.00  0.00    +0.000 NA
ATOM     13  H   UNL     1      43.282  10.928  11.510  0.00  0.00    +0.000 HD
ATOM     14  H   UNL     1      44.454  10.943  12.642  0.00  0.00    +0.000 HD
ENDBRANCH  11  12
ENDBRANCH  10  11
ENDBRANCH   1  10
BRANCH   3  15
ATOM     15  C   UNL     1      43.857   4.193  10.150  0.00  0.00    +0.000 C 
BRANCH  15  16
ATOM     16  C   UNL     1      44.851   3.608   9.181  0.00  0.00    +0.000 A 
ATOM     17  C   UNL     1      45.083   2.232   9.136  0.00  0.00    +0.000 A 
ATOM     18  C   UNL     1      46.027   1.734   8.243  0.00  0.00    +0.000 A 
ATOM     19  C   UNL     1      46.703   2.613   7.407  0.00  0.00    +0.000 A 
ATOM     20  C   UNL     1      46.394   3.960   7.489  0.00  0.00    +0.000 A 
ATOM     21  N   UNL     1      45.486   4.473   8.349  0.00  0.00    +0.000 NA
ENDBRANCH  15  16
ENDBRANCH   3  15
TORSDOF 5
ENDMDL
MODEL 2
REMARK VINA RESULT:    -6.787      1.387      3.662
REMARK INTER + INTRA:          -9.045
REMARK INTER:                  -8.593
REMARK INTRA:                  -0.451
REMARK UNBOUND:                -0.473
REMARK  Name = 
REMARK  5 active torsions:
REMARK  status: ('A' for Active; 'I' for Inactive)
REMARK    1  A    between atoms: N_1  and  C_2
REMARK    2  A    between atoms: C_2  and  C_3
REMARK    3  A    between atoms: C_3  and  C_4
REMARK    4  A    between atoms: N_6  and  C_7
REMARK    5  A    between atoms: C_7  and  C_8
REMARK                            x       y       z     vdW  Elec       q    Type
REMARK                         _______ _______ _______ _____ _____    ______ ____
ROOT
ATOM      1  C   UNL     1      46.420   5.840  12.927  0.00  0.00    +0.000 A 
ATOM      2  C   UNL     1      45.862   4.894  12.090  0.00  0.00    +0.000 A 
ATOM      3  N   UNL     1      44.960   5.519  11.264  0.00  0.00    +0.000 N 
ATOM      4  C   UNL     1      44.943   6.873  11.526  0.00  0.00    +0.000 A 
ATOM      5  C   UNL     1      44.204   7.916  10.937  0.00  0.00    +0.000 A 
ATOM      6  C   UNL     1      44.387   9.211  11.431  0.00  0.00    +0.000 A 
ATOM      7  C   UNL     1      45.278   9.462  12.470  0.00  0.00    +0.000 A 
ATOM      8  C   UNL     1      46.012   8.420  13.044  0.00  0.00    +0.000 A 
ATOM      9  C   UNL     1      45.848   7.100  12.566  0.00  0.00    +0.000 A 
ENDROOT
BRANCH   1  10
ATOM     10  C   UNL     1      47.406   5.574  14.021  0.00  0.00    +0.000 C 
BRANCH  10  11
ATOM     11  C   UNL     1      46.917   4.465  14.961  0.00  0.00    +0.000 C 
BRANCH  11  12
ATOM     12  N   UNL     1      47.605   3.197  14.715  0.00  0.00    +0.000 NA
ATOM     13  H   UNL     1      47.109   2.453  15.205  0.00  0.00    +0.000 HD
ATOM     14  H   UNL     1      48.538   3.232  15.127  0.00  0.00    +0.000 HD
ENDBRANCH  11  12
ENDBRANCH  10  11
ENDBRANCH   1  10
BRANCH   3  15
ATOM     15  C   UNL     1      44.086   4.817  10.329  0.00  0.00    +0.000 C 
BRANCH  15  16
ATOM     16  C   UNL     1      44.859   3.942   9.376  0.00  0.00    +0.000 A 
ATOM     17  C   UNL     1      44.833   2.552   9.500  0.00  0.00    +0.000 A 
ATOM     18  C   UNL     1      45.580   1.780   8.615  0.00  0.00    +0.000 A 
ATOM     19  C   UNL     1      46.318   2.407   7.621  0.00  0.00    +0.000 A 
ATOM     20  C   UNL     1      46.268   3.788   7.544  0.00  0.00    +0.000 A 
ATOM     21  N   UNL     1      45.556   4.565   8.391  0.00  0.00    +0.000 NA
ENDBRANCH  15  16
ENDBRANCH   3  15
TORSDOF 5
ENDMDL
MODEL 3
REMARK VINA RESULT:    -6.568      2.178      4.034
REMARK INTER + INTRA:          -8.768
REMARK INTER:                  -8.236
REMARK INTRA:                  -0.532
REMARK UNBOUND:                -0.473
REMARK  Name = 
REMARK  5 active torsions:
REMARK  status: ('A' for Active; 'I' for Inactive)
REMARK    1  A    between atoms: N_1  and  C_2
REMARK    2  A    between atoms: C_2  and  C_3
REMARK    3  A    between atoms: C_3  and  C_4
REMARK    4  A    between atoms: N_6  and  C_7
REMARK    5  A    between atoms: C_7  and  C_8
REMARK                            x       y       z     vdW  Elec       q    Type
REMARK                         _______ _______ _______ _____ _____    ______ ____
ROOT
ATOM      1  C   UNL     1      46.940   4.346  14.079  0.00  0.00    +0.000 A 
ATOM      2  C   UNL     1      45.930   3.897  13.253  0.00  0.00    +0.000 A 
ATOM      3  N   UNL     1      45.629   4.888  12.352  0.00  0.00    +0.000 N 
ATOM      4  C   UNL     1      46.454   5.974  12.555  0.00  0.00    +0.000 A 
ATOM      5  C   UNL     1      46.536   7.207  11.883  0.00  0.00    +0.000 A 
ATOM      6  C   UNL     1      47.478   8.139  12.331  0.00  0.00    +0.000 A 
ATOM      7  C   UNL     1      48.312   7.853  13.407  0.00  0.00    +0.000 A 
ATOM      8  C   UNL     1      48.226   6.622  14.065  0.00  0.00    +0.000 A 
ATOM      9  C   UNL     1      47.284   5.661  13.634  0.00  0.00    +0.000 A 
ENDROOT
BRANCH   1  10
ATOM     10  C   UNL     1      47.526   3.601  15.237  0.00  0.00    +0.000 C 
BRANCH  10  11
ATOM     11  C   UNL     1      47.058   4.185  16.576  0.00  0.00    +0.000 C 
BRANCH  11  12
ATOM     12  N   UNL     1      46.641   3.140  17.513  0.00  0.00    +0.000 NA
ATOM     13  H   UNL     1      47.333   3.071  18.259  0.00  0.00    +0.000 HD
ATOM     14  H   UNL     1      46.648   2.237  17.038  0.00  0.00    +0.000 HD
ENDBRANCH  11  12
ENDBRANCH  10  11
ENDBRANCH   1  10
BRANCH   3  15
ATOM     15  C   UNL     1      44.525   4.819  11.399  0.00  0.00    +0.000 C 
BRANCH  15  16
ATOM     16  C   UNL     1      44.902   4.071  10.146  0.00  0.00    +0.000 A 
ATOM     17  C   UNL     1      45.560   4.715   9.097  0.00  0.00    +0.000 A 
ATOM     18  C   UNL     1      45.868   3.994   7.948  0.00  0.00    +0.000 A 
ATOM     19  C   UNL     1      45.530   2.650   7.876  0.00  0.00    +0.000 A 
ATOM     20  C   UNL     1      44.906   2.075   8.970  0.00  0.00    +0.000 A 
ATOM     21  N   UNL     1      44.590   2.750  10.098  0.00  0.00    +0.000 NA
ENDBRANCH  15  16
ENDBRANCH   3  15
TORSDOF 5
ENDMDL
MODEL 4
REMARK VINA RESULT:    -6.508      1.598      2.166
REMARK INTER + INTRA:          -8.693
REMARK INTER:                  -8.190
REMARK INTRA:                  -0.503
REMARK UNBOUND:                -0.473
REMARK  Name = 
REMARK  5 active torsions:
REMARK  status: ('A' for Active; 'I' for Inactive)
REMARK    1  A    between atoms: N_1  and  C_2
REMARK    2  A    between atoms: C_2  and  C_3
REMARK    3  A    between atoms: C_3  and  C_4
REMARK    4  A    between atoms: N_6  and  C_7
REMARK    5  A    between atoms: C_7  and  C_8
REMARK                            x       y       z     vdW  Elec       q    Type
REMARK                         _______ _______ _______ _____ _____    ______ ____
ROOT
ATOM      1  C   UNL     1      45.858   5.931  11.082  0.00  0.00    +0.000 A 
ATOM      2  C   UNL     1      45.740   5.746   9.720  0.00  0.00    +0.000 A 
ATOM      3  N   UNL     1      44.942   4.652   9.495  0.00  0.00    +0.000 N 
ATOM      4  C   UNL     1      44.505   4.134  10.696  0.00  0.00    +0.000 A 
ATOM      5  C   UNL     1      43.665   3.041  10.977  0.00  0.00    +0.000 A 
ATOM      6  C   UNL     1      43.407   2.738  12.317  0.00  0.00    +0.000 A 
ATOM      7  C   UNL     1      43.960   3.498  13.343  0.00  0.00    +0.000 A 
ATOM      8  C   UNL     1      44.788   4.587  13.053  0.00  0.00    +0.000 A 
ATOM      9  C   UNL     1      45.067   4.917  11.707  0.00  0.00    +0.000 A 
ENDROOT
BRANCH   1  10
ATOM     10  C   UNL     1      46.688   6.977  11.760  0.00  0.00    +0.000 C 
BRANCH  10  11
ATOM     11  C   UNL     1      45.850   7.817  12.732  0.00  0.00    +0.000 C 
BRANCH  11  12
ATOM     12  N   UNL     1      44.831   8.605  12.036  0.00  0.00    +0.000 NA
ATOM     13  H   UNL     1      44.820   9.547  12.426  0.00  0.00    +0.000 HD
ATOM     14  H   UNL     1      43.910   8.210  12.226  0.00  0.00    +0.000 HD
ENDBRANCH  11  12
ENDBRANCH  10  11
ENDBRANCH   1  10
BRANCH   3  15
ATOM     15  C   UNL     1      44.692   4.080   8.175  0.00  0.00    +0.000 C 
BRANCH  15  16
ATOM     16  C   UNL     1      45.793   3.147   7.742  0.00  0.00    +0.000 A 
ATOM     17  C   UNL     1      45.804   1.812   8.152  0.00  0.00    +0.000 A 
ATOM     18  C   UNL     1      46.851   0.990   7.750  0.00  0.00    +0.000 A 
ATOM     19  C   UNL     1      47.851   1.508   6.938  0.00  0.00    +0.000 A 
ATOM     20  C   UNL     1      47.753   2.833   6.548  0.00  0.00    +0.000 A 
ATOM     21  N   UNL     1      46.750   3.657   6.926  0.00  0.00    +0.000 NA
ENDBRANCH  15  16
ENDBRANCH   3  15
TORSDOF 5
ENDMDL
MODEL 5
REMARK VINA RESULT:    -6.157      1.284      1.677
REMARK INTER + INTRA:          -8.249
REMARK INTER:                  -8.350
REMARK INTRA:                   0.102
REMARK UNBOUND:                -0.473
REMARK  Name = 
REMARK  5 active torsions:
REMARK  status: ('A' for Active; 'I' for Inactive)
REMARK    1  A    between atoms: N_1  and  C_2
REMARK    2  A    between atoms: C_2  and  C_3
REMARK    3  A    between atoms: C_3  and  C_4
REMARK    4  A    between atoms: N_6  and  C_7
REMARK    5  A    between atoms: C_7  and  C_8
REMARK                            x       y       z     vdW  Elec       q    Type
REMARK                         _______ _______ _______ _____ _____    ______ ____
ROOT
ATOM      1  C   UNL     1      45.504   7.040  12.208  0.00  0.00    +0.000 A 
ATOM      2  C   UNL     1      44.615   6.603  11.247  0.00  0.00    +0.000 A 
ATOM      3  N   UNL     1      44.622   5.230  11.237  0.00  0.00    +0.000 N 
ATOM      4  C   UNL     1      45.482   4.757  12.206  0.00  0.00    +0.000 A 
ATOM      5  C   UNL     1      45.811   3.443  12.584  0.00  0.00    +0.000 A 
ATOM      6  C   UNL     1      46.746   3.268  13.609  0.00  0.00    +0.000 A 
ATOM      7  C   UNL     1      47.330   4.362  14.240  0.00  0.00    +0.000 A 
ATOM      8  C   UNL     1      46.992   5.665  13.860  0.00  0.00    +0.000 A 
ATOM      9  C   UNL     1      46.050   5.872  12.828  0.00  0.00    +0.000 A 
ENDROOT
BRANCH   1  10
ATOM     10  C   UNL     1      45.846   8.466  12.506  0.00  0.00    +0.000 C 
BRANCH  10  11
ATOM     11  C   UNL     1      47.216   8.585  13.186  0.00  0.00    +0.000 C 
BRANCH  11  12
ATOM     12  N   UNL     1      47.098   8.991  14.587  0.00  0.00    +0.000 NA
ATOM     13  H   UNL     1      46.117   8.951  14.861  0.00  0.00    +0.000 HD
ATOM     14  H   UNL     1      47.377   9.967  14.682  0.00  0.00    +0.000 HD
ENDBRANCH  11  12
ENDBRANCH  10  11
ENDBRANCH   1  10
BRANCH   3  15
ATOM     15  C   UNL     1      43.896   4.415  10.267  0.00  0.00    +0.000 C 
BRANCH  15  16
ATOM     16  C   UNL     1      44.821   3.731   9.294  0.00  0.00    +0.000 A 
ATOM     17  C   UNL     1      45.604   4.471   8.407  0.00  0.00    +0.000 A 
ATOM     18  C   UNL     1      46.427   3.799   7.508  0.00  0.00    +0.000 A 
ATOM     19  C   UNL     1      46.462   2.412   7.524  0.00  0.00    +0.000 A 
ATOM     20  C   UNL     1      45.680   1.750   8.454  0.00  0.00    +0.000 A 
ATOM     21  N   UNL     1      44.869   2.374   9.337  0.00  0.00    +0.000 NA
ENDBRANCH  15  16
ENDBRANCH   3  15
TORSDOF 5
ENDMDL
MODEL 6
REMARK VINA RESULT:    -6.024      2.161      5.564
REMARK INTER + INTRA:          -8.082
REMARK INTER:                  -7.574
REMARK INTRA:                  -0.507
REMARK UNBOUND:                -0.473
REMARK  Name = 
REMARK  5 active torsions:
REMARK  status: ('A' for Active; 'I' for Inactive)
REMARK    1  A    between atoms: N_1  and  C_2
REMARK    2  A    between atoms: C_2  and  C_3
REMARK    3  A    between atoms: C_3  and  C_4
REMARK    4  A    between atoms: N_6  and  C_7
REMARK    5  A    between atoms: C_7  and  C_8
REMARK                            x       y       z     vdW  Elec       q    Type
REMARK                         _______ _______ _______ _____ _____    ______ ____
ROOT
ATOM      1  C   UNL     1      45.298   4.313   9.178  0.00  0.00    +0.000 A 
ATOM      2  C   UNL     1      45.827   5.558   9.458  0.00  0.00    +0.000 A 
ATOM      3  N   UNL     1      45.484   5.899  10.743  0.00  0.00    +0.000 N 
ATOM      4  C   UNL     1      44.763   4.877  11.324  0.00  0.00    +0.000 A 
ATOM      5  C   UNL     1      44.214   4.755  12.613  0.00  0.00    +0.000 A 
ATOM      6  C   UNL     1      43.507   3.588  12.919  0.00  0.00    +0.000 A 
ATOM      7  C   UNL     1      43.355   2.575  11.977  0.00  0.00    +0.000 A 
ATOM      8  C   UNL     1      43.911   2.704  10.700  0.00  0.00    +0.000 A 
ATOM      9  C   UNL     1      44.630   3.872  10.363  0.00  0.00    +0.000 A 
ENDROOT
BRANCH   1  10
ATOM     10  C   UNL     1      45.385   3.595   7.868  0.00  0.00    +0.000 C 
BRANCH  10  11
ATOM     11  C   UNL     1      46.817   3.601   7.318  0.00  0.00    +0.000 C 
BRANCH  11  12
ATOM     12  N   UNL     1      46.852   3.889   5.883  0.00  0.00    +0.000 NA
ATOM     13  H   UNL     1      47.789   3.697   5.531  0.00  0.00    +0.000 HD
ATOM     14  H   UNL     1      46.693   4.885   5.734  0.00  0.00    +0.000 HD
ENDBRANCH  11  12
ENDBRANCH  10  11
ENDBRANCH   1  10
BRANCH   3  15
ATOM     15  C   UNL     1      45.764   7.199  11.346  0.00  0.00    +0.000 C 
BRANCH  15  16
ATOM     16  C   UNL     1      47.062   7.203  12.110  0.00  0.00    +0.000 A 
ATOM     17  C   UNL     1      48.269   7.492  11.471  0.00  0.00    +0.000 A 
ATOM     18  C   UNL     1      49.449   7.462  12.208  0.00  0.00    +0.000 A 
ATOM     19  C   UNL     1      49.398   7.163  13.563  0.00  0.00    +0.000 A 
ATOM     20  C   UNL     1      48.159   6.918  14.131  0.00  0.00    +0.000 A 
ATOM     21  N   UNL     1      46.997   6.936  13.440  0.00  0.00    +0.000 NA
ENDBRANCH  15  16
ENDBRANCH   3  15
TORSDOF 5
ENDMDL
MODEL 7
REMARK VINA RESULT:    -5.447      3.295      5.987
REMARK INTER + INTRA:          -7.352
REMARK INTER:                  -6.844
REMARK INTRA:                  -0.508
REMARK UNBOUND:                -0.473
REMARK  Name = 
REMARK  5 active torsions:
REMARK  status: ('A' for Active; 'I' for Inactive)
REMARK    1  A    between atoms: N_1  and  C_2
REMARK    2  A    between atoms: C_2  and  C_3
REMARK    3  A    between atoms: C_3  and  C_4
REMARK    4  A    between atoms: N_6  and  C_7
REMARK    5  A    between atoms: C_7  and  C_8
REMARK                            x       y       z     vdW  Elec       q    Type
REMARK                         _______ _______ _______ _____ _____    ______ ____
ROOT
ATOM      1  C   UNL     1      46.809   4.633  13.967  0.00  0.00    +0.000 A 
ATOM      2  C   UNL     1      47.182   5.962  13.962  0.00  0.00    +0.000 A 
ATOM      3  N   UNL     1      46.660   6.558  12.840  0.00  0.00    +0.000 N 
ATOM      4  C   UNL     1      45.918   5.643  12.124  0.00  0.00    +0.000 A 
ATOM      5  C   UNL     1      45.187   5.781  10.930  0.00  0.00    +0.000 A 
ATOM      6  C   UNL     1      44.536   4.652  10.423  0.00  0.00    +0.000 A 
ATOM      7  C   UNL     1      44.605   3.429  11.082  0.00  0.00    +0.000 A 
ATOM      8  C   UNL     1      45.329   3.303  12.272  0.00  0.00    +0.000 A 
ATOM      9  C   UNL     1      45.997   4.427  12.808  0.00  0.00    +0.000 A 
ENDROOT
BRANCH   1  10
ATOM     10  C   UNL     1      47.215   3.610  14.981  0.00  0.00    +0.000 C 
BRANCH  10  11
ATOM     11  C   UNL     1      47.227   4.197  16.399  0.00  0.00    +0.000 C 
BRANCH  11  12
ATOM     12  N   UNL     1      46.682   3.260  17.383  0.00  0.00    +0.000 NA
ATOM     13  H   UNL     1      46.701   3.701  18.302  0.00  0.00    +0.000 HD
ATOM     14  H   UNL     1      47.293   2.445  17.448  0.00  0.00    +0.000 HD
ENDBRANCH  11  12
ENDBRANCH  10  11
ENDBRANCH   1  10
BRANCH   3  15
ATOM     15  C   UNL     1      46.947   7.931  12.434  0.00  0.00    +0.000 C 
BRANCH  15  16
ATOM     16  C   UNL     1      48.427   8.207  12.370  0.00  0.00    +0.000 A 
ATOM     17  C   UNL     1      49.218   7.647  11.366  0.00  0.00    +0.000 A 
ATOM     18  C   UNL     1      50.585   7.908  11.357  0.00  0.00    +0.000 A 
ATOM     19  C   UNL     1      51.127   8.731  12.335  0.00  0.00    +0.000 A 
ATOM     20  C   UNL     1      50.272   9.273  13.279  0.00  0.00    +0.000 A 
ATOM     21  N   UNL     1      48.942   9.035  13.316  0.00  0.00    +0.000 NA
ENDBRANCH  15  16
ENDBRANCH   3  15
TORSDOF 5
ENDMDL
MODEL 8
REMARK VINA RESULT:    -5.302      3.087      6.211
REMARK INTER + INTRA:          -7.169
REMARK INTER:                  -6.598
REMARK INTRA:                  -0.571
REMARK UNBOUND:                -0.473
REMARK  Name = 
REMARK  5 active torsions:
REMARK  status: ('A' for Active; 'I' for Inactive)
REMARK    1  A    between atoms: N_1  and  C_2
REMARK    2  A    between atoms: C_2  and  C_3
REMARK    3  A    between atoms: C_3  and  C_4
REMARK    4  A    between atoms: N_6  and  C_7
REMARK    5  A    between atoms: C_7  and  C_8
REMARK                            x       y       z     vdW  Elec       q    Type
REMARK                         _______ _______ _______ _____ _____    ______ ____
ROOT
ATOM      1  C   UNL     1      44.406   5.785  12.882  0.00  0.00    +0.000 A 
ATOM      2  C   UNL     1      45.090   4.749  13.487  0.00  0.00    +0.000 A 
ATOM      3  N   UNL     1      46.401   5.125  13.645  0.00  0.00    +0.000 N 
ATOM      4  C   UNL     1      46.581   6.411  13.181  0.00  0.00    +0.000 A 
ATOM      5  C   UNL     1      47.727   7.226  13.144  0.00  0.00    +0.000 A 
ATOM      6  C   UNL     1      47.608   8.504  12.589  0.00  0.00    +0.000 A 
ATOM      7  C   UNL     1      46.390   8.958  12.092  0.00  0.00    +0.000 A 
ATOM      8  C   UNL     1      45.254   8.143  12.140  0.00  0.00    +0.000 A 
ATOM      9  C   UNL     1      45.345   6.847  12.695  0.00  0.00    +0.000 A 
ENDROOT
BRANCH   1  10
ATOM     10  C   UNL     1      42.966   5.768  12.475  0.00  0.00    +0.000 C 
BRANCH  10  11
ATOM     11  C   UNL     1      42.721   4.789  11.319  0.00  0.00    +0.000 C 
BRANCH  11  12
ATOM     12  N   UNL     1      43.416   5.199  10.098  0.00  0.00    +0.000 NA
ATOM     13  H   UNL     1      42.756   5.683   9.490  0.00  0.00    +0.000 HD
ATOM     14  H   UNL     1      43.716   4.370   9.585  0.00  0.00    +0.000 HD
ENDBRANCH  11  12
ENDBRANCH  10  11
ENDBRANCH   1  10
BRANCH   3  15
ATOM     15  C   UNL     1      47.452   4.240  14.139  0.00  0.00    +0.000 C 
BRANCH  15  16
ATOM     16  C   UNL     1      47.609   4.322  15.635  0.00  0.00    +0.000 A 
ATOM     17  C   UNL     1      48.205   5.433  16.233  0.00  0.00    +0.000 A 
ATOM     18  C   UNL     1      48.353   5.458  17.617  0.00  0.00    +0.000 A 
ATOM     19  C   UNL     1      47.890   4.388  18.370  0.00  0.00    +0.000 A 
ATOM     20  C   UNL     1      47.283   3.337  17.706  0.00  0.00    +0.000 A 
ATOM     21  N   UNL     1      47.128   3.282  16.364  0.00  0.00    +0.000 NA
ENDBRANCH  15  16
ENDBRANCH   3  15
TORSDOF 5
ENDMDL
MODEL 9
REMARK VINA RESULT:    -5.266      3.193      4.650
REMARK INTER + INTRA:          -7.123
REMARK INTER:                  -6.586
REMARK INTRA:                  -0.538
REMARK UNBOUND:                -0.473
REMARK  Name = 
REMARK  5 active torsions:
REMARK  status: ('A' for Active; 'I' for Inactive)
REMARK    1  A    between atoms: N_1  and  C_2
REMARK    2  A    between atoms: C_2  and  C_3
REMARK    3  A    between atoms: C_3  and  C_4
REMARK    4  A    between atoms: N_6  and  C_7
REMARK    5  A    between atoms: C_7  and  C_8
REMARK                            x       y       z     vdW  Elec       q    Type
REMARK                         _______ _______ _______ _____ _____    ______ ____
ROOT
ATOM      1  C   UNL     1      48.370   6.597  14.801  0.00  0.00    +0.000 A 
ATOM      2  C   UNL     1      47.702   6.010  13.746  0.00  0.00    +0.000 A 
ATOM      3  N   UNL     1      47.198   4.803  14.165  0.00  0.00    +0.000 N 
ATOM      4  C   UNL     1      47.499   4.605  15.497  0.00  0.00    +0.000 A 
ATOM      5  C   UNL     1      47.189   3.541  16.363  0.00  0.00    +0.000 A 
ATOM      6  C   UNL     1      47.651   3.610  17.681  0.00  0.00    +0.000 A 
ATOM      7  C   UNL     1      48.392   4.702  18.124  0.00  0.00    +0.000 A 
ATOM      8  C   UNL     1      48.690   5.758  17.256  0.00  0.00    +0.000 A 
ATOM      9  C   UNL     1      48.236   5.715  15.919  0.00  0.00    +0.000 A 
ENDROOT
BRANCH   1  10
ATOM     10  C   UNL     1      49.117   7.894  14.757  0.00  0.00    +0.000 C 
BRANCH  10  11
ATOM     11  C   UNL     1      48.162   9.094  14.786  0.00  0.00    +0.000 C 
BRANCH  11  12
ATOM     12  N   UNL     1      47.597   9.311  16.119  0.00  0.00    +0.000 NA
ATOM     13  H   UNL     1      46.611   9.553  16.023  0.00  0.00    +0.000 HD
ATOM     14  H   UNL     1      48.045  10.120  16.549  0.00  0.00    +0.000 HD
ENDBRANCH  11  12
ENDBRANCH  10  11
ENDBRANCH   1  10
BRANCH   3  15
ATOM     15  C   UNL     1      46.536   3.844  13.286  0.00  0.00    +0.000 C 
BRANCH  15  16
ATOM     16  C   UNL     1      45.234   4.373  12.744  0.00  0.00    +0.000 A 
ATOM     17  C   UNL     1      45.146   4.856  11.437  0.00  0.00    +0.000 A 
ATOM     18  C   UNL     1      43.930   5.359  10.983  0.00  0.00    +0.000 A 
ATOM     19  C   UNL     1      42.832   5.354  11.831  0.00  0.00    +0.000 A 
ATOM     20  C   UNL     1      42.992   4.831  13.103  0.00  0.00    +0.000 A 
ATOM     21  N   UNL     1      44.159   4.339  13.574  0.00  0.00    +0.000 NA
ENDBRANCH  15  16
ENDBRANCH   3  15
TORSDOF 5
ENDMDL
