MODEL 1
REMARK VINA RESULT:    -8.916      0.000      0.000
REMARK INTER + INTRA:         -11.542
REMARK INTER:                 -11.001
REMARK INTRA:                  -0.541
REMARK UNBOUND:                -0.541
REMARK  Name = 
REMARK  4 active torsions:
REMARK  status: ('A' for Active; 'I' for Inactive)
REMARK    1  A    between atoms: C_2  and  C_4
REMARK    2  A    between atoms: N_8  and  C_9
REMARK    3  A    between atoms: C_9  and  C_10
REMARK    4  A    between atoms: C_14  and  C_15
REMARK                            x       y       z     vdW  Elec       q    Type
REMARK                         _______ _______ _______ _____ _____    ______ ____
ROOT
ATOM      1  C   UNL     1      43.700   3.724  11.171  0.00  0.00    +0.000 C 
ENDROOT
BRANCH   1   6
ATOM      2  C   UNL     1      46.640   2.515   7.179  0.00  0.00    +0.000 A 
ATOM      3  C   UNL     1      45.975   3.700   7.469  0.00  0.00    +0.000 A 
ATOM      4  C   UNL     1      45.107   3.741   8.557  0.00  0.00    +0.000 A 
ATOM      5  C   UNL     1      44.914   2.606   9.339  0.00  0.00    +0.000 A 
ATOM      6  N   UNL     1      43.996   2.546  10.369  0.00  0.00    +0.000 N 
ATOM      7  N   UNL     1      45.567   1.456   9.077  0.00  0.00    +0.000 NA
ATOM      8  C   UNL     1      46.404   1.427   8.004  0.00  0.00    +0.000 A 
ATOM      9  H   UNL     1      44.088   1.663  10.858  0.00  0.00    +0.000 HD
BRANCH   2  11
ATOM     10  N   UNL     1      47.407   3.331   5.026  0.00  0.00    +0.000 N 
ATOM     11  C   UNL     1      47.519   2.377   6.001  0.00  0.00    +0.000 C 
ATOM     12  O   UNL     1      48.319   1.458   5.902  0.00  0.00    +0.000 OA
ATOM     13  H   UNL     1      48.036   3.262   4.239  0.00  0.00    +0.000 HD
ATOM     14  H   UNL     1      46.914   4.204   5.161  0.00  0.00    +0.000 HD
ENDBRANCH   2  11
ENDBRANCH   1   6
BRANCH   1  15
ATOM     15  C   UNL     1      44.914   4.165  11.956  0.00  0.00    +0.000 A 
ATOM     16  C   UNL     1      45.518   3.303  12.865  0.00  0.00    +0.000 A 
ATOM     17  N   UNL     1      46.576   3.663  13.623  0.00  0.00    +0.000 NA
ATOM     18  C   UNL     1      47.000   4.937  13.450  0.00  0.00    +0.000 A 
ATOM     19  C   UNL     1      46.416   5.828  12.550  0.00  0.00    +0.000 A 
ATOM     20  N   UNL     1      45.366   5.437  11.781  0.00  0.00    +0.000 NA
BRANCH  19  21
ATOM     21  C   UNL     1      46.881   7.213  12.361  0.00  0.00    +0.000 A 
ATOM     22  C   UNL     1      48.239   7.522  12.150  0.00  0.00    +0.000 A 
ATOM     23  C   UNL     1      48.670   8.837  11.947  0.00  0.00    +0.000 A 
ATOM     24  C   UNL     1      47.749   9.874  11.960  0.00  0.00    +0.000 A 
ATOM     25  C   UNL     1      46.404   9.593  12.187  0.00  0.00    +0.000 A 
ATOM     26  F   UNL     1      45.518  10.592  12.208  0.00  0.00    +0.000 F 
ATOM     27  C   UNL     1      45.973   8.285  12.386  0.00  0.00    +0.000 A 
ENDBRANCH  19  21
ENDBRANCH   1  15
TORSDOF 4
ENDMDL
MODEL 2
REMARK VINA RESULT:    -8.755      1.546      1.878
REMARK INTER + INTRA:         -11.343
REMARK INTER:                 -10.783
REMARK INTRA:                  -0.559
REMARK UNBOUND:                -0.541
REMARK  Name = 
REMARK  4 active torsions:
REMARK  status: ('A' for Active; 'I' for Inactive)
REMARK    1  A    between atoms: C_2  and  C_4
REMARK    2  A    between atoms: N_8  and  C_9
REMARK    3  A    between atoms: C_9  and  C_10
REMARK    4  A    between atoms: C_14  and  C_15
REMARK                            x       y       z     vdW  Elec       q    Type
REMARK                         _______ _______ _______ _____ _____    ______ ____
ROOT
ATOM      1  C   UNL     1      43.679   4.925  11.088  0.00  0.00    +0.000 C 
ENDROOT
BRANCH   1   6
ATOM      2  C   UNL     1      46.561   2.723   7.499  0.00  0.00    +0.000 A 
ATOM      3  C   UNL     1      46.179   4.051   7.644  0.00  0.00    +0.000 A 
ATOM      4  C   UNL     1      45.261   4.388   8.634  0.00  0.00    +0.000 A 
ATOM      5  C   UNL     1      44.736   3.401   9.463  0.00  0.00    +0.000 A 
ATOM      6  N   UNL     1      43.748   3.647  10.397  0.00  0.00    +0.000 N 
ATOM      7  N   UNL     1      45.111   2.112   9.343  0.00  0.00    +0.000 NA
ATOM      8  C   UNL     1      46.003   1.796   8.364  0.00  0.00    +0.000 A 
ATOM      9  H   UNL     1      43.583   2.812  10.948  0.00  0.00    +0.000 HD
BRANCH   2  11
ATOM     10  N   UNL     1      47.418   2.961   5.241  0.00  0.00    +0.000 N 
ATOM     11  C   UNL     1      47.476   2.283   6.428  0.00  0.00    +0.000 C 
ATOM     12  O   UNL     1      48.258   1.358   6.592  0.00  0.00    +0.000 OA
ATOM     13  H   UNL     1      48.071   2.689   4.521  0.00  0.00    +0.000 HD
ATOM     14  H   UNL     1      46.940   3.847   5.134  0.00  0.00    +0.000 HD
ENDBRANCH   2  11
ENDBRANCH   1   6
BRANCH   1  15
ATOM     15  C   UNL     1      44.875   5.120  11.991  0.00  0.00    +0.000 A 
ATOM     16  C   UNL     1      45.045   4.323  13.118  0.00  0.00    +0.000 A 
ATOM     17  N   UNL     1      46.071   4.485  13.982  0.00  0.00    +0.000 NA
ATOM     18  C   UNL     1      46.920   5.496  13.682  0.00  0.00    +0.000 A 
ATOM     19  C   UNL     1      46.777   6.315  12.563  0.00  0.00    +0.000 A 
ATOM     20  N   UNL     1      45.750   6.120  11.695  0.00  0.00    +0.000 NA
BRANCH  19  21
ATOM     21  C   UNL     1      47.704   7.413  12.237  0.00  0.00    +0.000 A 
ATOM     22  C   UNL     1      47.278   8.753  12.164  0.00  0.00    +0.000 A 
ATOM     23  C   UNL     1      48.170   9.793  11.878  0.00  0.00    +0.000 A 
ATOM     24  C   UNL     1      49.508   9.510  11.650  0.00  0.00    +0.000 A 
ATOM     25  C   UNL     1      49.946   8.189  11.698  0.00  0.00    +0.000 A 
ATOM     26  F   UNL     1      51.234   7.915  11.469  0.00  0.00    +0.000 F 
ATOM     27  C   UNL     1      49.062   7.154  11.985  0.00  0.00    +0.000 A 
ENDBRANCH  19  21
ENDBRANCH   1  15
TORSDOF 4
ENDMDL
MODEL 3
REMARK VINA RESULT:    -8.426      3.930      7.123
REMARK INTER + INTRA:         -10.937
REMARK INTER:                 -10.582
REMARK INTRA:                  -0.355
REMARK UNBOUND:                -0.541
REMARK  Name = 
REMARK  4 active torsions:
REMARK  status: ('A' for Active; 'I' for Inactive)
REMARK    1  A    between atoms: C_2  and  C_4
REMARK    2  A    between atoms: N_8  and  C_9
REMARK    3  A    between atoms: C_9  and  C_10
REMARK    4  A    between atoms: C_14  and  C_15
REMARK                            x       y       z     vdW  Elec       q    Type
REMARK                         _______ _______ _______ _____ _____    ______ ____
ROOT
ATOM      1  C   UNL     1      43.542   6.600  11.020  0.00  0.00    +0.000 C 
ENDROOT
BRANCH   1   6
ATOM      2  C   UNL     1      48.182   7.911  12.691  0.00  0.00    +0.000 A 
ATOM      3  C   UNL     1      47.813   6.994  11.715  0.00  0.00    +0.000 A 
ATOM      4  C   UNL     1      46.463   6.701  11.535  0.00  0.00    +0.000 A 
ATOM      5  C   UNL     1      45.503   7.324  12.327  0.00  0.00    +0.000 A 
ATOM      6  N   UNL     1      44.160   7.008  12.273  0.00  0.00    +0.000 N 
ATOM      7  N   UNL     1      45.848   8.228  13.266  0.00  0.00    +0.000 NA
ATOM      8  C   UNL     1      47.172   8.497  13.437  0.00  0.00    +0.000 A 
ATOM      9  H   UNL     1      43.635   7.643  12.864  0.00  0.00    +0.000 HD
BRANCH   2  11
ATOM     10  N   UNL     1      50.537   7.662  12.162  0.00  0.00    +0.000 N 
ATOM     11  C   UNL     1      49.595   8.218  12.984  0.00  0.00    +0.000 C 
ATOM     12  O   UNL     1      49.914   8.943  13.916  0.00  0.00    +0.000 OA
ATOM     13  H   UNL     1      51.502   7.903  12.335  0.00  0.00    +0.000 HD
ATOM     14  H   UNL     1      50.310   7.232  11.274  0.00  0.00    +0.000 HD
ENDBRANCH   2  11
ENDBRANCH   1   6
BRANCH   1  15
ATOM     15  C   UNL     1      43.662   5.107  10.816  0.00  0.00    +0.000 A 
ATOM     16  C   UNL     1      43.024   4.223  11.679  0.00  0.00    +0.000 A 
ATOM     17  N   UNL     1      43.136   2.882  11.568  0.00  0.00    +0.000 NA
ATOM     18  C   UNL     1      43.933   2.453  10.560  0.00  0.00    +0.000 A 
ATOM     19  C   UNL     1      44.590   3.312   9.680  0.00  0.00    +0.000 A 
ATOM     20  N   UNL     1      44.445   4.658   9.797  0.00  0.00    +0.000 NA
BRANCH  19  21
ATOM     21  C   UNL     1      45.455   2.843   8.582  0.00  0.00    +0.000 A 
ATOM     22  C   UNL     1      45.887   3.702   7.554  0.00  0.00    +0.000 A 
ATOM     23  C   UNL     1      46.727   3.255   6.529  0.00  0.00    +0.000 A 
ATOM     24  C   UNL     1      47.146   1.933   6.508  0.00  0.00    +0.000 A 
ATOM     25  C   UNL     1      46.714   1.062   7.505  0.00  0.00    +0.000 A 
ATOM     26  F   UNL     1      47.111  -0.213   7.480  0.00  0.00    +0.000 F 
ATOM     27  C   UNL     1      45.881   1.506   8.526  0.00  0.00    +0.000 A 
ENDBRANCH  19  21
ENDBRANCH   1  15
TORSDOF 4
ENDMDL
MODEL 4
REMARK VINA RESULT:    -8.311      4.612      8.337
REMARK INTER + INTRA:         -10.795
REMARK INTER:                 -10.400
REMARK INTRA:                  -0.395
REMARK UNBOUND:                -0.541
REMARK  Name = 
REMARK  4 active torsions:
REMARK  status: ('A' for Active; 'I' for Inactive)
REMARK    1  A    between atoms: C_2  and  C_4
REMARK    2  A    between atoms: N_8  and  C_9
REMARK    3  A    between atoms: C_9  and  C_10
REMARK    4  A    between atoms: C_14  and  C_15
REMARK                            x       y       z     vdW  Elec       q    Type
REMARK                         _______ _______ _______ _____ _____    ______ ____
ROOT
ATOM      1  C   UNL     1      46.061   5.504  13.619  0.00  0.00    +0.000 C 
ENDROOT
BRANCH   1   6
ATOM      2  C   UNL     1      48.446   4.415  17.997  0.00  0.00    +0.000 A 
ATOM      3  C   UNL     1      48.727   5.391  17.049  0.00  0.00    +0.000 A 
ATOM      4  C   UNL     1      48.014   5.399  15.853  0.00  0.00    +0.000 A 
ATOM      5  C   UNL     1      47.034   4.439  15.619  0.00  0.00    +0.000 A 
ATOM      6  N   UNL     1      46.359   4.326  14.419  0.00  0.00    +0.000 N 
ATOM      7  N   UNL     1      46.741   3.498  16.539  0.00  0.00    +0.000 NA
ATOM      8  C   UNL     1      47.453   3.496  17.699  0.00  0.00    +0.000 A 
ATOM      9  H   UNL     1      45.632   3.624  14.500  0.00  0.00    +0.000 HD
BRANCH   2  11
ATOM     10  N   UNL     1      48.618   3.617  20.283  0.00  0.00    +0.000 N 
ATOM     11  C   UNL     1      49.209   4.303  19.256  0.00  0.00    +0.000 C 
ATOM     12  O   UNL     1      50.322   4.793  19.377  0.00  0.00    +0.000 OA
ATOM     13  H   UNL     1      49.155   3.504  21.130  0.00  0.00    +0.000 HD
ATOM     14  H   UNL     1      47.802   3.032  20.159  0.00  0.00    +0.000 HD
ENDBRANCH   2  11
ENDBRANCH   1   6
BRANCH   1  15
ATOM     15  C   UNL     1      45.140   5.162  12.471  0.00  0.00    +0.000 A 
ATOM     16  C   UNL     1      43.776   5.415  12.561  0.00  0.00    +0.000 A 
ATOM     17  N   UNL     1      42.904   5.088  11.583  0.00  0.00    +0.000 NA
ATOM     18  C   UNL     1      43.452   4.476  10.506  0.00  0.00    +0.000 A 
ATOM     19  C   UNL     1      44.814   4.205  10.384  0.00  0.00    +0.000 A 
ATOM     20  N   UNL     1      45.676   4.564  11.372  0.00  0.00    +0.000 NA
BRANCH  19  21
ATOM     21  C   UNL     1      45.408   3.542   9.210  0.00  0.00    +0.000 A 
ATOM     22  C   UNL     1      45.892   4.272   8.107  0.00  0.00    +0.000 A 
ATOM     23  C   UNL     1      46.477   3.636   7.006  0.00  0.00    +0.000 A 
ATOM     24  C   UNL     1      46.581   2.253   6.984  0.00  0.00    +0.000 A 
ATOM     25  C   UNL     1      46.091   1.512   8.056  0.00  0.00    +0.000 A 
ATOM     26  F   UNL     1      46.184   0.180   8.031  0.00  0.00    +0.000 F 
ATOM     27  C   UNL     1      45.512   2.142   9.152  0.00  0.00    +0.000 A 
ENDBRANCH  19  21
ENDBRANCH   1  15
TORSDOF 4
ENDMDL
MODEL 5
REMARK VINA RESULT:    -6.989      5.528      7.489
REMARK INTER + INTRA:          -9.164
REMARK INTER:                  -8.732
REMARK INTRA:                  -0.432
REMARK UNBOUND:                -0.541
REMARK  Name = 
REMARK  4 active torsions:
REMARK  status: ('A' for Active; 'I' for Inactive)
REMARK    1  A    between atoms: C_2  and  C_4
REMARK    2  A    between atoms: N_8  and  C_9
REMARK    3  A    between atoms: C_9  and  C_10
REMARK    4  A    between atoms: C_14  and  C_15
REMARK                            x       y       z     vdW  Elec       q    Type
REMARK                         _______ _______ _______ _____ _____    ______ ____
ROOT
ATOM      1  C   UNL     1      48.186   6.414  14.997  0.00  0.00    +0.000 C 
ENDROOT
BRANCH   1   6
ATOM      2  C   UNL     1      45.184   4.399  11.396  0.00  0.00    +0.000 A 
ATOM      3  C   UNL     1      45.730   5.673  11.490  0.00  0.00    +0.000 A 
ATOM      4  C   UNL     1      46.405   6.037  12.652  0.00  0.00    +0.000 A 
ATOM      5  C   UNL     1      46.527   5.130  13.701  0.00  0.00    +0.000 A 
ATOM      6  N   UNL     1      47.094   5.455  14.917  0.00  0.00    +0.000 N 
ATOM      7  N   UNL     1      46.017   3.886  13.614  0.00  0.00    +0.000 NA
ATOM      8  C   UNL     1      45.350   3.547  12.475  0.00  0.00    +0.000 A 
ATOM      9  H   UNL     1      47.162   4.625  15.496  0.00  0.00    +0.000 HD
BRANCH   2  11
ATOM     10  N   UNL     1      44.554   4.686   9.070  0.00  0.00    +0.000 N 
ATOM     11  C   UNL     1      44.397   3.969  10.224  0.00  0.00    +0.000 C 
ATOM     12  O   UNL     1      43.641   3.009  10.277  0.00  0.00    +0.000 OA
ATOM     13  H   UNL     1      44.048   4.369   8.256  0.00  0.00    +0.000 HD
ATOM     14  H   UNL     1      45.308   5.347   8.929  0.00  0.00    +0.000 HD
ENDBRANCH   2  11
ENDBRANCH   1   6
BRANCH   1  15
ATOM     15  C   UNL     1      48.976   6.232  16.273  0.00  0.00    +0.000 A 
ATOM     16  C   UNL     1      49.010   7.238  17.232  0.00  0.00    +0.000 A 
ATOM     17  N   UNL     1      49.736   7.144  18.367  0.00  0.00    +0.000 NA
ATOM     18  C   UNL     1      50.448   6.000  18.500  0.00  0.00    +0.000 A 
ATOM     19  C   UNL     1      50.439   4.973  17.558  0.00  0.00    +0.000 A 
ATOM     20  N   UNL     1      49.683   5.080  16.433  0.00  0.00    +0.000 NA
BRANCH  19  21
ATOM     21  C   UNL     1      51.212   3.727  17.707  0.00  0.00    +0.000 A 
ATOM     22  C   UNL     1      50.701   2.479  17.304  0.00  0.00    +0.000 A 
ATOM     23  C   UNL     1      51.451   1.304  17.427  0.00  0.00    +0.000 A 
ATOM     24  C   UNL     1      52.728   1.355  17.965  0.00  0.00    +0.000 A 
ATOM     25  C   UNL     1      53.245   2.578  18.388  0.00  0.00    +0.000 A 
ATOM     26  F   UNL     1      54.472   2.625  18.913  0.00  0.00    +0.000 F 
ATOM     27  C   UNL     1      52.502   3.746  18.264  0.00  0.00    +0.000 A 
ENDBRANCH  19  21
ENDBRANCH   1  15
TORSDOF 4
ENDMDL
MODEL 6
REMARK VINA RESULT:    -6.933      5.471      8.571
REMARK INTER + INTRA:          -9.096
REMARK INTER:                  -8.720
REMARK INTRA:                  -0.376
REMARK UNBOUND:                -0.541
REMARK  Name = 
REMARK  4 active torsions:
REMARK  status: ('A' for Active; 'I' for Inactive)
REMARK    1  A    between atoms: C_2  and  C_4
REMARK    2  A    between atoms: N_8  and  C_9
REMARK    3  A    between atoms: C_9  and  C_10
REMARK    4  A    between atoms: C_14  and  C_15
REMARK                            x       y       z     vdW  Elec       q    Type
REMARK                         _______ _______ _______ _____ _____    ______ ____
ROOT
ATOM      1  C   UNL     1      47.389   3.567  16.899  0.00  0.00    +0.000 C 
ENDROOT
BRANCH   1   6
ATOM      2  C   UNL     1      52.259   2.373  17.847  0.00  0.00    +0.000 A 
ATOM      3  C   UNL     1      51.222   1.577  17.377  0.00  0.00    +0.000 A 
ATOM      4  C   UNL     1      49.931   2.099  17.336  0.00  0.00    +0.000 A 
ATOM      5  C   UNL     1      49.692   3.402  17.763  0.00  0.00    +0.000 A 
ATOM      6  N   UNL     1      48.427   3.949  17.845  0.00  0.00    +0.000 N 
ATOM      7  N   UNL     1      50.693   4.189  18.205  0.00  0.00    +0.000 NA
ATOM      8  C   UNL     1      51.948   3.662  18.248  0.00  0.00    +0.000 A 
ATOM      9  H   UNL     1      48.493   4.931  18.089  0.00  0.00    +0.000 HD
BRANCH   2  11
ATOM     10  N   UNL     1      54.103   1.662  19.254  0.00  0.00    +0.000 N 
ATOM     11  C   UNL     1      53.638   1.865  17.983  0.00  0.00    +0.000 C 
ATOM     12  O   UNL     1      54.333   1.627  17.007  0.00  0.00    +0.000 OA
ATOM     13  H   UNL     1      55.031   1.275  19.349  0.00  0.00    +0.000 HD
ATOM     14  H   UNL     1      53.501   1.650  20.068  0.00  0.00    +0.000 HD
ENDBRANCH   2  11
ENDBRANCH   1   6
BRANCH   1  15
ATOM     15  C   UNL     1      47.424   4.445  15.670  0.00  0.00    +0.000 A 
ATOM     16  C   UNL     1      48.263   5.552  15.617  0.00  0.00    +0.000 A 
ATOM     17  N   UNL     1      48.301   6.394  14.562  0.00  0.00    +0.000 NA
ATOM     18  C   UNL     1      47.445   6.093  13.557  0.00  0.00    +0.000 A 
ATOM     19  C   UNL     1      46.588   4.993  13.578  0.00  0.00    +0.000 A 
ATOM     20  N   UNL     1      46.584   4.147  14.641  0.00  0.00    +0.000 NA
BRANCH  19  21
ATOM     21  C   UNL     1      45.660   4.666  12.481  0.00  0.00    +0.000 A 
ATOM     22  C   UNL     1      45.620   5.414  11.289  0.00  0.00    +0.000 A 
ATOM     23  C   UNL     1      44.752   5.083  10.243  0.00  0.00    +0.000 A 
ATOM     24  C   UNL     1      43.899   3.997  10.373  0.00  0.00    +0.000 A 
ATOM     25  C   UNL     1      43.908   3.256  11.552  0.00  0.00    +0.000 A 
ATOM     26  F   UNL     1      43.080   2.216  11.680  0.00  0.00    +0.000 F 
ATOM     27  C   UNL     1      44.772   3.582  12.592  0.00  0.00    +0.000 A 
ENDBRANCH  19  21
ENDBRANCH   1  15
TORSDOF 4
ENDMDL
MODEL 7
REMARK VINA RESULT:    -6.605      4.837      8.501
REMARK INTER + INTRA:          -8.691
REMARK INTER:                  -8.226
REMARK INTRA:                  -0.465
REMARK UNBOUND:                -0.541
REMARK  Name = 
REMARK  4 active torsions:
REMARK  status: ('A' for Active; 'I' for Inactive)
REMARK    1  A    between atoms: C_2  and  C_4
REMARK    2  A    between atoms: N_8  and  C_9
REMARK    3  A    between atoms: C_9  and  C_10
REMARK    4  A    between atoms: C_14  and  C_15
REMARK                            x       y       z     vdW  Elec       q    Type
REMARK                         _______ _______ _______ _____ _____    ______ ____
ROOT
ATOM      1  C   UNL     1      48.991   7.118  13.602  0.00  0.00    +0.000 C 
ENDROOT
BRANCH   1   6
ATOM      2  C   UNL     1      48.752   5.087  18.278  0.00  0.00    +0.000 A 
ATOM      3  C   UNL     1      48.120   4.697  17.104  0.00  0.00    +0.000 A 
ATOM      4  C   UNL     1      48.229   5.504  15.974  0.00  0.00    +0.000 A 
ATOM      5  C   UNL     1      48.963   6.685  16.030  0.00  0.00    +0.000 A 
ATOM      6  N   UNL     1      49.031   7.581  14.981  0.00  0.00    +0.000 N 
ATOM      7  N   UNL     1      49.595   7.065  17.158  0.00  0.00    +0.000 NA
ATOM      8  C   UNL     1      49.471   6.271  18.257  0.00  0.00    +0.000 A 
ATOM      9  H   UNL     1      49.689   8.320  15.203  0.00  0.00    +0.000 HD
BRANCH   2  11
ATOM     10  N   UNL     1      48.240   3.009  19.421  0.00  0.00    +0.000 N 
ATOM     11  C   UNL     1      48.623   4.318  19.531  0.00  0.00    +0.000 C 
ATOM     12  O   UNL     1      48.854   4.823  20.620  0.00  0.00    +0.000 OA
ATOM     13  H   UNL     1      48.190   2.470  20.273  0.00  0.00    +0.000 HD
ATOM     14  H   UNL     1      48.238   2.506  18.543  0.00  0.00    +0.000 HD
ENDBRANCH   2  11
ENDBRANCH   1   6
BRANCH   1  15
ATOM     15  C   UNL     1      47.603   7.262  13.021  0.00  0.00    +0.000 A 
ATOM     16  C   UNL     1      46.810   8.356  13.349  0.00  0.00    +0.000 A 
ATOM     17  N   UNL     1      45.548   8.509  12.894  0.00  0.00    +0.000 NA
ATOM     18  C   UNL     1      45.098   7.507  12.102  0.00  0.00    +0.000 A 
ATOM     19  C   UNL     1      45.864   6.395  11.755  0.00  0.00    +0.000 A 
ATOM     20  N   UNL     1      47.140   6.273  12.207  0.00  0.00    +0.000 NA
BRANCH  19  21
ATOM     21  C   UNL     1      45.373   5.308  10.891  0.00  0.00    +0.000 A 
ATOM     22  C   UNL     1      45.664   5.260   9.514  0.00  0.00    +0.000 A 
ATOM     23  C   UNL     1      45.214   4.211   8.705  0.00  0.00    +0.000 A 
ATOM     24  C   UNL     1      44.454   3.191   9.257  0.00  0.00    +0.000 A 
ATOM     25  C   UNL     1      44.138   3.230  10.614  0.00  0.00    +0.000 A 
ATOM     26  F   UNL     1      43.399   2.252  11.144  0.00  0.00    +0.000 F 
ATOM     27  C   UNL     1      44.587   4.270  11.420  0.00  0.00    +0.000 A 
ENDBRANCH  19  21
ENDBRANCH   1  15
TORSDOF 4
ENDMDL
MODEL 8
REMARK VINA RESULT:    -6.406      5.825      7.659
REMARK INTER + INTRA:          -8.446
REMARK INTER:                  -8.054
REMARK INTRA:                  -0.391
REMARK UNBOUND:                -0.541
REMARK  Name = 
REMARK  4 active torsions:
REMARK  status: ('A' for Active; 'I' for Inactive)
REMARK    1  A    between atoms: C_2  and  C_4
REMARK    2  A    between atoms: N_8  and  C_9
REMARK    3  A    between atoms: C_9  and  C_10
REMARK    4  A    between atoms: C_14  and  C_15
REMARK                            x       y       z     vdW  Elec       q    Type
REMARK                         _______ _______ _______ _____ _____    ______ ____
ROOT
ATOM      1  C   UNL     1      47.250   4.188  16.118  0.00  0.00    +0.000 C 
ENDROOT
BRANCH   1   6
ATOM      2  C   UNL     1      45.267   4.805  11.456  0.00  0.00    +0.000 A 
ATOM      3  C   UNL     1      45.531   3.639  12.165  0.00  0.00    +0.000 A 
ATOM      4  C   UNL     1      46.215   3.722  13.374  0.00  0.00    +0.000 A 
ATOM      5  C   UNL     1      46.627   4.959  13.860  0.00  0.00    +0.000 A 
ATOM      6  N   UNL     1      47.396   5.106  14.998  0.00  0.00    +0.000 N 
ATOM      7  N   UNL     1      46.363   6.099  13.189  0.00  0.00    +0.000 NA
ATOM      8  C   UNL     1      45.701   6.001  12.003  0.00  0.00    +0.000 A 
ATOM      9  H   UNL     1      47.500   6.091  15.216  0.00  0.00    +0.000 HD
BRANCH   2  11
ATOM     10  N   UNL     1      45.400   5.013   9.042  0.00  0.00    +0.000 N 
ATOM     11  C   UNL     1      44.609   4.787  10.135  0.00  0.00    +0.000 C 
ATOM     12  O   UNL     1      43.411   4.574  10.019  0.00  0.00    +0.000 OA
ATOM     13  H   UNL     1      44.960   4.960   8.135  0.00  0.00    +0.000 HD
ATOM     14  H   UNL     1      46.411   4.990   9.078  0.00  0.00    +0.000 HD
ENDBRANCH   2  11
ENDBRANCH   1   6
BRANCH   1  15
ATOM     15  C   UNL     1      48.288   4.461  17.182  0.00  0.00    +0.000 A 
ATOM     16  C   UNL     1      48.021   5.350  18.217  0.00  0.00    +0.000 A 
ATOM     17  N   UNL     1      48.929   5.663  19.167  0.00  0.00    +0.000 NA
ATOM     18  C   UNL     1      50.133   5.058  19.031  0.00  0.00    +0.000 A 
ATOM     19  C   UNL     1      50.435   4.164  18.005  0.00  0.00    +0.000 A 
ATOM     20  N   UNL     1      49.498   3.847  17.073  0.00  0.00    +0.000 NA
BRANCH  19  21
ATOM     21  C   UNL     1      51.745   3.504  17.862  0.00  0.00    +0.000 A 
ATOM     22  C   UNL     1      52.950   4.232  17.861  0.00  0.00    +0.000 A 
ATOM     23  C   UNL     1      54.191   3.597  17.749  0.00  0.00    +0.000 A 
ATOM     24  C   UNL     1      54.251   2.216  17.626  0.00  0.00    +0.000 A 
ATOM     25  C   UNL     1      53.069   1.479  17.606  0.00  0.00    +0.000 A 
ATOM     26  F   UNL     1      53.126   0.151  17.479  0.00  0.00    +0.000 F 
ATOM     27  C   UNL     1      51.834   2.109  17.720  0.00  0.00    +0.000 A 
ENDBRANCH  19  21
ENDBRANCH   1  15
TORSDOF 4
ENDMDL
