MODEL 1
REMARK VINA RESULT:    -8.083      0.000      0.000
REMARK INTER + INTRA:         -10.555
REMARK INTER:                  -9.973
REMARK INTRA:                  -0.582
REMARK UNBOUND:                -0.582
REMARK  Name = 
REMARK  4 active torsions:
REMARK  status: ('A' for Active; 'I' for Inactive)
REMARK    1  A    between atoms: C_2  and  C_4
REMARK    2  A    between atoms: C_7  and  O_8
REMARK    3  A    between atoms: O_8  and  C_9
REMARK    4  A    between atoms: C_9  and  C_10
REMARK                            x       y       z     vdW  Elec       q    Type
REMARK                         _______ _______ _______ _____ _____    ______ ____
ROOT
ATOM      1  C   UNL     1      46.455   2.768   7.520  0.00  0.00    +0.000 A 
ATOM      2  C   UNL     1      46.072   4.098   7.740  0.00  0.00    +0.000 A 
ATOM      3  C   UNL     1      45.223   4.418   8.804  0.00  0.00    +0.000 A 
ATOM      4  C   UNL     1      44.720   3.402   9.612  0.00  0.00    +0.000 A 
ATOM      5  C   UNL     1      45.143   2.085   9.437  0.00  0.00    +0.000 A 
ATOM      6  C   UNL     1      46.003   1.762   8.385  0.00  0.00    +0.000 A 
ENDROOT
BRANCH   1   8
ATOM      7  N   UNL     1      47.215   3.160   5.235  0.00  0.00    +0.000 N 
ATOM      8  C   UNL     1      47.282   2.372   6.349  0.00  0.00    +0.000 C 
ATOM      9  O   UNL     1      48.000   1.381   6.375  0.00  0.00    +0.000 OA
ATOM     10  H   UNL     1      47.830   2.910   4.471  0.00  0.00    +0.000 HD
ATOM     11  H   UNL     1      46.830   4.093   5.244  0.00  0.00    +0.000 HD
ENDBRANCH   1   8
BRANCH   4  12
ATOM     12  O   UNL     1      43.799   3.629  10.598  0.00  0.00    +0.000 OA
BRANCH  12  13
ATOM     13  C   UNL     1      43.868   4.896  11.306  0.00  0.00    +0.000 C 
ATOM     14  C   UNL     1      42.606   5.147  12.128  0.00  0.00    +0.000 C 
ATOM     15  C   UNL     1      42.928   6.053  10.991  0.00  0.00    +0.000 C 
BRANCH  13  16
ATOM     16  C   UNL     1      45.205   5.206  11.959  0.00  0.00    +0.000 A 
ATOM     17  C   UNL     1      45.957   6.341  11.599  0.00  0.00    +0.000 A 
ATOM     18  C   UNL     1      47.137   6.674  12.270  0.00  0.00    +0.000 A 
ATOM     19  C   UNL     1      47.591   5.858  13.296  0.00  0.00    +0.000 A 
ATOM     20  F   UNL     1      48.704   6.193  13.962  0.00  0.00    +0.000 F 
ATOM     21  C   UNL     1      46.905   4.704  13.645  0.00  0.00    +0.000 A 
ATOM     22  C   UNL     1      45.722   4.380  12.974  0.00  0.00    +0.000 A 
ENDBRANCH  13  16
ENDBRANCH  12  13
ENDBRANCH   4  12
TORSDOF 4
ENDMDL
MODEL 2
REMARK VINA RESULT:    -7.356      1.277      1.823
REMARK INTER + INTRA:          -9.659
REMARK INTER:                  -9.954
REMARK INTRA:                   0.295
REMARK UNBOUND:                -0.582
REMARK  Name = 
REMARK  4 active torsions:
REMARK  status: ('A' for Active; 'I' for Inactive)
REMARK    1  A    between atoms: C_2  and  C_4
REMARK    2  A    between atoms: C_7  and  O_8
REMARK    3  A    between atoms: O_8  and  C_9
REMARK    4  A    between atoms: C_9  and  C_10
REMARK                            x       y       z     vdW  Elec       q    Type
REMARK                         _______ _______ _______ _____ _____    ______ ____
ROOT
ATOM      1  C   UNL     1      46.514   2.565   7.713  0.00  0.00    +0.000 A 
ATOM      2  C   UNL     1      46.458   3.966   7.716  0.00  0.00    +0.000 A 
ATOM      3  C   UNL     1      45.549   4.629   8.547  0.00  0.00    +0.000 A 
ATOM      4  C   UNL     1      44.669   3.891   9.333  0.00  0.00    +0.000 A 
ATOM      5  C   UNL     1      44.761   2.500   9.380  0.00  0.00    +0.000 A 
ATOM      6  C   UNL     1      45.676   1.833   8.564  0.00  0.00    +0.000 A 
ENDROOT
BRANCH   1   8
ATOM      7  N   UNL     1      48.438   2.501   6.212  0.00  0.00    +0.000 N 
ATOM      8  C   UNL     1      47.400   1.818   6.781  0.00  0.00    +0.000 C 
ATOM      9  O   UNL     1      47.215   0.634   6.529  0.00  0.00    +0.000 OA
ATOM     10  H   UNL     1      49.065   1.962   5.630  0.00  0.00    +0.000 HD
ATOM     11  H   UNL     1      48.765   3.391   6.559  0.00  0.00    +0.000 HD
ENDBRANCH   1   8
BRANCH   4  12
ATOM     12  O   UNL     1      43.683   4.471  10.084  0.00  0.00    +0.000 OA
BRANCH  12  13
ATOM     13  C   UNL     1      43.972   4.742  11.482  0.00  0.00    +0.000 C 
ATOM     14  C   UNL     1      44.145   3.450  12.278  0.00  0.00    +0.000 C 
ATOM     15  C   UNL     1      43.009   4.359  12.598  0.00  0.00    +0.000 C 
BRANCH  13  16
ATOM     16  C   UNL     1      44.967   5.862  11.736  0.00  0.00    +0.000 A 
ATOM     17  C   UNL     1      46.317   5.597  12.039  0.00  0.00    +0.000 A 
ATOM     18  C   UNL     1      47.248   6.630  12.175  0.00  0.00    +0.000 A 
ATOM     19  C   UNL     1      46.831   7.946  12.034  0.00  0.00    +0.000 A 
ATOM     20  F   UNL     1      47.728   8.936  12.133  0.00  0.00    +0.000 F 
ATOM     21  C   UNL     1      45.500   8.249  11.787  0.00  0.00    +0.000 A 
ATOM     22  C   UNL     1      44.575   7.211  11.645  0.00  0.00    +0.000 A 
ENDBRANCH  13  16
ENDBRANCH  12  13
ENDBRANCH   4  12
TORSDOF 4
ENDMDL
MODEL 3
REMARK VINA RESULT:    -6.743      3.618      6.093
REMARK INTER + INTRA:          -8.903
REMARK INTER:                  -8.495
REMARK INTRA:                  -0.408
REMARK UNBOUND:                -0.582
REMARK  Name = 
REMARK  4 active torsions:
REMARK  status: ('A' for Active; 'I' for Inactive)
REMARK    1  A    between atoms: C_2  and  C_4
REMARK    2  A    between atoms: C_7  and  O_8
REMARK    3  A    between atoms: O_8  and  C_9
REMARK    4  A    between atoms: C_9  and  C_10
REMARK                            x       y       z     vdW  Elec       q    Type
REMARK                         _______ _______ _______ _____ _____    ______ ____
ROOT
ATOM      1  C   UNL     1      48.329   6.768  13.187  0.00  0.00    +0.000 A 
ATOM      2  C   UNL     1      47.508   5.798  13.778  0.00  0.00    +0.000 A 
ATOM      3  C   UNL     1      46.342   5.377  13.131  0.00  0.00    +0.000 A 
ATOM      4  C   UNL     1      45.976   5.963  11.923  0.00  0.00    +0.000 A 
ATOM      5  C   UNL     1      46.818   6.884  11.300  0.00  0.00    +0.000 A 
ATOM      6  C   UNL     1      47.991   7.297  11.935  0.00  0.00    +0.000 A 
ENDROOT
BRANCH   1   8
ATOM      7  N   UNL     1      50.621   7.607  13.115  0.00  0.00    +0.000 N 
ATOM      8  C   UNL     1      49.528   7.310  13.881  0.00  0.00    +0.000 C 
ATOM      9  O   UNL     1      49.543   7.490  15.092  0.00  0.00    +0.000 OA
ATOM     10  H   UNL     1      51.403   8.031  13.596  0.00  0.00    +0.000 HD
ATOM     11  H   UNL     1      50.579   7.696  12.111  0.00  0.00    +0.000 HD
ENDBRANCH   1   8
BRANCH   4  12
ATOM     12  O   UNL     1      44.796   5.680  11.291  0.00  0.00    +0.000 OA
BRANCH  12  13
ATOM     13  C   UNL     1      44.479   4.283  11.048  0.00  0.00    +0.000 C 
ATOM     14  C   UNL     1      43.016   3.978  11.365  0.00  0.00    +0.000 C 
ATOM     15  C   UNL     1      44.089   3.333  12.173  0.00  0.00    +0.000 C 
BRANCH  13  16
ATOM     16  C   UNL     1      45.058   3.695   9.772  0.00  0.00    +0.000 A 
ATOM     17  C   UNL     1      45.538   4.515   8.732  0.00  0.00    +0.000 A 
ATOM     18  C   UNL     1      46.158   3.971   7.605  0.00  0.00    +0.000 A 
ATOM     19  C   UNL     1      46.284   2.594   7.493  0.00  0.00    +0.000 A 
ATOM     20  F   UNL     1      46.906   2.072   6.429  0.00  0.00    +0.000 F 
ATOM     21  C   UNL     1      45.777   1.752   8.473  0.00  0.00    +0.000 A 
ATOM     22  C   UNL     1      45.164   2.302   9.601  0.00  0.00    +0.000 A 
ENDBRANCH  13  16
ENDBRANCH  12  13
ENDBRANCH   4  12
TORSDOF 4
ENDMDL
MODEL 4
REMARK VINA RESULT:    -6.596      3.967      6.462
REMARK INTER + INTRA:          -8.721
REMARK INTER:                  -8.359
REMARK INTRA:                  -0.362
REMARK UNBOUND:                -0.582
REMARK  Name = 
REMARK  4 active torsions:
REMARK  status: ('A' for Active; 'I' for Inactive)
REMARK    1  A    between atoms: C_2  and  C_4
REMARK    2  A    between atoms: C_7  and  O_8
REMARK    3  A    between atoms: O_8  and  C_9
REMARK    4  A    between atoms: C_9  and  C_10
REMARK                            x       y       z     vdW  Elec       q    Type
REMARK                         _______ _______ _______ _____ _____    ______ ____
ROOT
ATOM      1  C   UNL     1      47.259   4.484  14.928  0.00  0.00    +0.000 A 
ATOM      2  C   UNL     1      46.772   3.440  14.129  0.00  0.00    +0.000 A 
ATOM      3  C   UNL     1      46.192   3.718  12.888  0.00  0.00    +0.000 A 
ATOM      4  C   UNL     1      46.055   5.039  12.473  0.00  0.00    +0.000 A 
ATOM      5  C   UNL     1      46.591   6.078  13.234  0.00  0.00    +0.000 A 
ATOM      6  C   UNL     1      47.185   5.805  14.467  0.00  0.00    +0.000 A 
ENDROOT
BRANCH   1   8
ATOM      7  N   UNL     1      47.508   5.162  17.260  0.00  0.00    +0.000 N 
ATOM      8  C   UNL     1      47.800   4.242  16.292  0.00  0.00    +0.000 C 
ATOM      9  O   UNL     1      48.479   3.256  16.549  0.00  0.00    +0.000 OA
ATOM     10  H   UNL     1      47.832   4.949  18.194  0.00  0.00    +0.000 HD
ATOM     11  H   UNL     1      46.776   5.850  17.160  0.00  0.00    +0.000 HD
ENDBRANCH   1   8
BRANCH   4  12
ATOM     12  O   UNL     1      45.400   5.390  11.324  0.00  0.00    +0.000 OA
BRANCH  12  13
ATOM     13  C   UNL     1      44.517   4.405  10.724  0.00  0.00    +0.000 C 
ATOM     14  C   UNL     1      43.084   4.923  10.627  0.00  0.00    +0.000 C 
ATOM     15  C   UNL     1      43.379   3.754  11.502  0.00  0.00    +0.000 C 
BRANCH  13  16
ATOM     16  C   UNL     1      45.082   3.672   9.519  0.00  0.00    +0.000 A 
ATOM     17  C   UNL     1      45.679   4.363   8.446  0.00  0.00    +0.000 A 
ATOM     18  C   UNL     1      46.283   3.680   7.388  0.00  0.00    +0.000 A 
ATOM     19  C   UNL     1      46.276   2.293   7.378  0.00  0.00    +0.000 A 
ATOM     20  F   UNL     1      46.883   1.637   6.381  0.00  0.00    +0.000 F 
ATOM     21  C   UNL     1      45.653   1.578   8.391  0.00  0.00    +0.000 A 
ATOM     22  C   UNL     1      45.056   2.266   9.450  0.00  0.00    +0.000 A 
ENDBRANCH  13  16
ENDBRANCH  12  13
ENDBRANCH   4  12
TORSDOF 4
ENDMDL
MODEL 5
REMARK VINA RESULT:    -6.193      3.967      6.426
REMARK INTER + INTRA:          -8.223
REMARK INTER:                  -7.695
REMARK INTRA:                  -0.528
REMARK UNBOUND:                -0.582
REMARK  Name = 
REMARK  4 active torsions:
REMARK  status: ('A' for Active; 'I' for Inactive)
REMARK    1  A    between atoms: C_2  and  C_4
REMARK    2  A    between atoms: C_7  and  O_8
REMARK    3  A    between atoms: O_8  and  C_9
REMARK    4  A    between atoms: C_9  and  C_10
REMARK                            x       y       z     vdW  Elec       q    Type
REMARK                         _______ _______ _______ _____ _____    ______ ____
ROOT
ATOM      1  C   UNL     1      47.928   7.867  13.538  0.00  0.00    +0.000 A 
ATOM      2  C   UNL     1      46.691   8.523  13.612  0.00  0.00    +0.000 A 
ATOM      3  C   UNL     1      45.624   8.100  12.814  0.00  0.00    +0.000 A 
ATOM      4  C   UNL     1      45.810   7.059  11.910  0.00  0.00    +0.000 A 
ATOM      5  C   UNL     1      47.018   6.362  11.874  0.00  0.00    +0.000 A 
ATOM      6  C   UNL     1      48.083   6.770  12.680  0.00  0.00    +0.000 A 
ENDROOT
BRANCH   1   8
ATOM      7  N   UNL     1      49.338   9.686  14.350  0.00  0.00    +0.000 N 
ATOM      8  C   UNL     1      49.114   8.339  14.301  0.00  0.00    +0.000 C 
ATOM      9  O   UNL     1      49.866   7.557  14.870  0.00  0.00    +0.000 OA
ATOM     10  H   UNL     1      50.113   9.992  14.923  0.00  0.00    +0.000 HD
ATOM     11  H   UNL     1      48.636  10.368  14.102  0.00  0.00    +0.000 HD
ENDBRANCH   1   8
BRANCH   4  12
ATOM     12  O   UNL     1      44.846   6.667  11.023  0.00  0.00    +0.000 OA
BRANCH  12  13
ATOM     13  C   UNL     1      44.381   5.292  11.095  0.00  0.00    +0.000 C 
ATOM     14  C   UNL     1      42.879   5.223  11.365  0.00  0.00    +0.000 C 
ATOM     15  C   UNL     1      43.829   4.690  12.381  0.00  0.00    +0.000 C 
BRANCH  13  16
ATOM     16  C   UNL     1      44.949   4.356  10.042  0.00  0.00    +0.000 A 
ATOM     17  C   UNL     1      44.797   2.959  10.135  0.00  0.00    +0.000 A 
ATOM     18  C   UNL     1      45.236   2.110   9.116  0.00  0.00    +0.000 A 
ATOM     19  C   UNL     1      45.857   2.650   7.999  0.00  0.00    +0.000 A 
ATOM     20  F   UNL     1      46.249   1.841   7.007  0.00  0.00    +0.000 F 
ATOM     21  C   UNL     1      46.071   4.017   7.895  0.00  0.00    +0.000 A 
ATOM     22  C   UNL     1      45.624   4.861   8.915  0.00  0.00    +0.000 A 
ENDBRANCH  13  16
ENDBRANCH  12  13
ENDBRANCH   4  12
TORSDOF 4
ENDMDL
MODEL 6
REMARK VINA RESULT:    -6.038      4.517      7.034
REMARK INTER + INTRA:          -8.032
REMARK INTER:                  -7.593
REMARK INTRA:                  -0.439
REMARK UNBOUND:                -0.582
REMARK  Name = 
REMARK  4 active torsions:
REMARK  status: ('A' for Active; 'I' for Inactive)
REMARK    1  A    between atoms: C_2  and  C_4
REMARK    2  A    between atoms: C_7  and  O_8
REMARK    3  A    between atoms: O_8  and  C_9
REMARK    4  A    between atoms: C_9  and  C_10
REMARK                            x       y       z     vdW  Elec       q    Type
REMARK                         _______ _______ _______ _____ _____    ______ ____
ROOT
ATOM      1  C   UNL     1      48.044   5.069  16.300  0.00  0.00    +0.000 A 
ATOM      2  C   UNL     1      48.585   6.247  15.767  0.00  0.00    +0.000 A 
ATOM      3  C   UNL     1      48.286   6.625  14.454  0.00  0.00    +0.000 A 
ATOM      4  C   UNL     1      47.489   5.802  13.665  0.00  0.00    +0.000 A 
ATOM      5  C   UNL     1      46.898   4.660  14.207  0.00  0.00    +0.000 A 
ATOM      6  C   UNL     1      47.182   4.285  15.522  0.00  0.00    +0.000 A 
ENDROOT
BRANCH   1   8
ATOM      7  N   UNL     1      47.453   4.656  18.632  0.00  0.00    +0.000 N 
ATOM      8  C   UNL     1      48.408   4.582  17.657  0.00  0.00    +0.000 C 
ATOM      9  O   UNL     1      49.519   4.127  17.901  0.00  0.00    +0.000 OA
ATOM     10  H   UNL     1      47.698   4.265  19.531  0.00  0.00    +0.000 HD
ATOM     11  H   UNL     1      46.474   4.800  18.431  0.00  0.00    +0.000 HD
ENDBRANCH   1   8
BRANCH   4  12
ATOM     12  O   UNL     1      47.246   6.053  12.343  0.00  0.00    +0.000 OA
BRANCH  12  13
ATOM     13  C   UNL     1      45.861   6.205  11.929  0.00  0.00    +0.000 C 
ATOM     14  C   UNL     1      45.528   7.661  11.613  0.00  0.00    +0.000 C 
ATOM     15  C   UNL     1      44.849   6.988  12.755  0.00  0.00    +0.000 C 
BRANCH  13  16
ATOM     16  C   UNL     1      45.347   5.143  10.970  0.00  0.00    +0.000 A 
ATOM     17  C   UNL     1      45.660   5.173   9.597  0.00  0.00    +0.000 A 
ATOM     18  C   UNL     1      45.267   4.143   8.740  0.00  0.00    +0.000 A 
ATOM     19  C   UNL     1      44.532   3.079   9.243  0.00  0.00    +0.000 A 
ATOM     20  F   UNL     1      44.183   2.075   8.429  0.00  0.00    +0.000 F 
ATOM     21  C   UNL     1      44.161   3.040  10.579  0.00  0.00    +0.000 A 
ATOM     22  C   UNL     1      44.563   4.070  11.434  0.00  0.00    +0.000 A 
ENDBRANCH  13  16
ENDBRANCH  12  13
ENDBRANCH   4  12
TORSDOF 4
ENDMDL
MODEL 7
REMARK VINA RESULT:    -5.736      5.212      8.058
REMARK INTER + INTRA:          -7.660
REMARK INTER:                  -6.954
REMARK INTRA:                  -0.706
REMARK UNBOUND:                -0.582
REMARK  Name = 
REMARK  4 active torsions:
REMARK  status: ('A' for Active; 'I' for Inactive)
REMARK    1  A    between atoms: C_2  and  C_4
REMARK    2  A    between atoms: C_7  and  O_8
REMARK    3  A    between atoms: O_8  and  C_9
REMARK    4  A    between atoms: C_9  and  C_10
REMARK                            x       y       z     vdW  Elec       q    Type
REMARK                         _______ _______ _______ _____ _____    ______ ____
ROOT
ATOM      1  C   UNL     1      48.127   5.219  18.047  0.00  0.00    +0.000 A 
ATOM      2  C   UNL     1      48.731   6.333  17.447  0.00  0.00    +0.000 A 
ATOM      3  C   UNL     1      48.684   6.493  16.059  0.00  0.00    +0.000 A 
ATOM      4  C   UNL     1      48.081   5.516  15.273  0.00  0.00    +0.000 A 
ATOM      5  C   UNL     1      47.426   4.436  15.867  0.00  0.00    +0.000 A 
ATOM      6  C   UNL     1      47.456   4.280  17.254  0.00  0.00    +0.000 A 
ENDROOT
BRANCH   1   8
ATOM      7  N   UNL     1      48.446   3.675  19.910  0.00  0.00    +0.000 N 
ATOM      8  C   UNL     1      48.231   4.963  19.509  0.00  0.00    +0.000 C 
ATOM      9  O   UNL     1      48.132   5.868  20.329  0.00  0.00    +0.000 OA
ATOM     10  H   UNL     1      48.575   3.530  20.903  0.00  0.00    +0.000 HD
ATOM     11  H   UNL     1      48.761   2.950  19.283  0.00  0.00    +0.000 HD
ENDBRANCH   1   8
BRANCH   4  12
ATOM     12  O   UNL     1      48.096   5.551  13.906  0.00  0.00    +0.000 OA
BRANCH  12  13
ATOM     13  C   UNL     1      46.944   6.129  13.234  0.00  0.00    +0.000 C 
ATOM     14  C   UNL     1      47.367   7.105  12.138  0.00  0.00    +0.000 C 
ATOM     15  C   UNL     1      46.615   7.614  13.320  0.00  0.00    +0.000 C 
BRANCH  13  16
ATOM     16  C   UNL     1      45.821   5.156  12.913  0.00  0.00    +0.000 A 
ATOM     17  C   UNL     1      44.468   5.542  12.973  0.00  0.00    +0.000 A 
ATOM     18  C   UNL     1      43.446   4.673  12.583  0.00  0.00    +0.000 A 
ATOM     19  C   UNL     1      43.767   3.394  12.150  0.00  0.00    +0.000 A 
ATOM     20  F   UNL     1      42.790   2.571  11.746  0.00  0.00    +0.000 F 
ATOM     21  C   UNL     1      45.084   2.960  12.126  0.00  0.00    +0.000 A 
ATOM     22  C   UNL     1      46.102   3.836  12.511  0.00  0.00    +0.000 A 
ENDBRANCH  13  16
ENDBRANCH  12  13
ENDBRANCH   4  12
TORSDOF 4
ENDMDL
MODEL 8
REMARK VINA RESULT:    -5.642      3.271      5.067
REMARK INTER + INTRA:          -7.544
REMARK INTER:                  -6.993
REMARK INTRA:                  -0.550
REMARK UNBOUND:                -0.582
REMARK  Name = 
REMARK  4 active torsions:
REMARK  status: ('A' for Active; 'I' for Inactive)
REMARK    1  A    between atoms: C_2  and  C_4
REMARK    2  A    between atoms: C_7  and  O_8
REMARK    3  A    between atoms: O_8  and  C_9
REMARK    4  A    between atoms: C_9  and  C_10
REMARK                            x       y       z     vdW  Elec       q    Type
REMARK                         _______ _______ _______ _____ _____    ______ ____
ROOT
ATOM      1  C   UNL     1      44.691   4.095  11.421  0.00  0.00    +0.000 A 
ATOM      2  C   UNL     1      44.950   5.128  10.509  0.00  0.00    +0.000 A 
ATOM      3  C   UNL     1      45.548   6.315  10.945  0.00  0.00    +0.000 A 
ATOM      4  C   UNL     1      45.837   6.485  12.295  0.00  0.00    +0.000 A 
ATOM      5  C   UNL     1      45.638   5.440  13.197  0.00  0.00    +0.000 A 
ATOM      6  C   UNL     1      45.056   4.247  12.765  0.00  0.00    +0.000 A 
ENDROOT
BRANCH   1   8
ATOM      7  N   UNL     1      44.470   2.160   9.951  0.00  0.00    +0.000 N 
ATOM      8  C   UNL     1      43.977   2.855  11.020  0.00  0.00    +0.000 C 
ATOM      9  O   UNL     1      42.985   2.461  11.620  0.00  0.00    +0.000 OA
ATOM     10  H   UNL     1      44.008   1.287   9.731  0.00  0.00    +0.000 HD
ATOM     11  H   UNL     1      45.396   2.309   9.579  0.00  0.00    +0.000 HD
ENDBRANCH   1   8
BRANCH   4  12
ATOM     12  O   UNL     1      46.318   7.659  12.807  0.00  0.00    +0.000 OA
BRANCH  12  13
ATOM     13  C   UNL     1      47.754   7.772  12.999  0.00  0.00    +0.000 C 
ATOM     14  C   UNL     1      48.369   8.786  12.036  0.00  0.00    +0.000 C 
ATOM     15  C   UNL     1      48.752   7.350  11.928  0.00  0.00    +0.000 C 
BRANCH  13  16
ATOM     16  C   UNL     1      48.217   7.808  14.446  0.00  0.00    +0.000 A 
ATOM     17  C   UNL     1      48.103   8.972  15.230  0.00  0.00    +0.000 A 
ATOM     18  C   UNL     1      48.439   8.972  16.586  0.00  0.00    +0.000 A 
ATOM     19  C   UNL     1      48.919   7.807  17.169  0.00  0.00    +0.000 A 
ATOM     20  F   UNL     1      49.211   7.796  18.476  0.00  0.00    +0.000 F 
ATOM     21  C   UNL     1      49.093   6.655  16.417  0.00  0.00    +0.000 A 
ATOM     22  C   UNL     1      48.749   6.660  15.063  0.00  0.00    +0.000 A 
ENDBRANCH  13  16
ENDBRANCH  12  13
ENDBRANCH   4  12
TORSDOF 4
ENDMDL
MODEL 9
REMARK VINA RESULT:    -5.378      4.220      6.312
REMARK INTER + INTRA:          -7.218
REMARK INTER:                  -6.452
REMARK INTRA:                  -0.766
REMARK UNBOUND:                -0.582
REMARK  Name = 
REMARK  4 active torsions:
REMARK  status: ('A' for Active; 'I' for Inactive)
REMARK    1  A    between atoms: C_2  and  C_4
REMARK    2  A    between atoms: C_7  and  O_8
REMARK    3  A    between atoms: O_8  and  C_9
REMARK    4  A    between atoms: C_9  and  C_10
REMARK                            x       y       z     vdW  Elec       q    Type
REMARK                         _______ _______ _______ _____ _____    ______ ____
ROOT
ATOM      1  C   UNL     1      44.962   5.559  12.112  0.00  0.00    +0.000 A 
ATOM      2  C   UNL     1      45.774   6.415  11.355  0.00  0.00    +0.000 A 
ATOM      3  C   UNL     1      47.115   6.600  11.706  0.00  0.00    +0.000 A 
ATOM      4  C   UNL     1      47.625   5.970  12.837  0.00  0.00    +0.000 A 
ATOM      5  C   UNL     1      46.840   5.071  13.559  0.00  0.00    +0.000 A 
ATOM      6  C   UNL     1      45.504   4.871  13.205  0.00  0.00    +0.000 A 
ENDROOT
BRANCH   1   8
ATOM      7  N   UNL     1      42.648   5.491  12.888  0.00  0.00    +0.000 N 
ATOM      8  C   UNL     1      43.509   5.403  11.830  0.00  0.00    +0.000 C 
ATOM      9  O   UNL     1      43.092   5.208  10.696  0.00  0.00    +0.000 OA
ATOM     10  H   UNL     1      41.662   5.444  12.668  0.00  0.00    +0.000 HD
ATOM     11  H   UNL     1      42.915   5.876  13.782  0.00  0.00    +0.000 HD
ENDBRANCH   1   8
BRANCH   4  12
ATOM     12  O   UNL     1      48.892   6.192  13.301  0.00  0.00    +0.000 OA
BRANCH  12  13
ATOM     13  C   UNL     1      49.172   7.484  13.905  0.00  0.00    +0.000 C 
ATOM     14  C   UNL     1      50.042   7.341  15.152  0.00  0.00    +0.000 C 
ATOM     15  C   UNL     1      48.653   7.863  15.286  0.00  0.00    +0.000 C 
BRANCH  13  16
ATOM     16  C   UNL     1      49.519   8.598  12.930  0.00  0.00    +0.000 A 
ATOM     17  C   UNL     1      50.622   8.502  12.061  0.00  0.00    +0.000 A 
ATOM     18  C   UNL     1      50.879   9.484  11.101  0.00  0.00    +0.000 A 
ATOM     19  C   UNL     1      50.044  10.589  11.016  0.00  0.00    +0.000 A 
ATOM     20  F   UNL     1      50.269  11.515  10.075  0.00  0.00    +0.000 F 
ATOM     21  C   UNL     1      48.977  10.744  11.889  0.00  0.00    +0.000 A 
ATOM     22  C   UNL     1      48.722   9.755  12.843  0.00  0.00    +0.000 A 
ENDBRANCH  13  16
ENDBRANCH  12  13
ENDBRANCH   4  12
TORSDOF 4
ENDMDL
