MODEL 1
REMARK VINA RESULT:    -8.069      0.000      0.000
REMARK INTER + INTRA:         -11.791
REMARK INTER:                 -10.899
REMARK INTRA:                  -0.892
REMARK UNBOUND:                -0.892
REMARK  Name = 
REMARK  7 active torsions:
REMARK  status: ('A' for Active; 'I' for Inactive)
REMARK    1  A    between atoms: C_1  and  N_2
REMARK    2  A    between atoms: N_2  and  C_3
REMARK    3  A    between atoms: C_3  and  C_4
REMARK    4  A    between atoms: C_7  and  C_8
REMARK    5  A    between atoms: C_8  and  N_9
REMARK    6  A    between atoms: C_10  and  C_12
REMARK    7  A    between atoms: C_19  and  C_21
REMARK                            x       y       z     vdW  Elec       q    Type
REMARK                         _______ _______ _______ _____ _____    ______ ____
ROOT
ATOM      1  C   UNL     1      47.407   6.379  12.527  0.00  0.00    +0.000 C 
ENDROOT
BRANCH   1   2
ATOM      2  C   UNL     1      47.486   5.591  13.815  0.00  0.00    +0.000 A 
ATOM      3  C   UNL     1      46.788   4.399  13.959  0.00  0.00    +0.000 A 
ATOM      4  C   UNL     1      46.891   3.706  15.164  0.00  0.00    +0.000 A 
ATOM      5  C   UNL     1      47.680   4.218  16.196  0.00  0.00    +0.000 A 
ATOM      6  C   UNL     1      48.353   5.409  15.958  0.00  0.00    +0.000 A 
ATOM      7  N   UNL     1      48.272   6.100  14.799  0.00  0.00    +0.000 NA
BRANCH   5   8
ATOM      8  C   UNL     1      47.821   3.506  17.504  0.00  0.00    +0.000 C 
BRANCH   8   9
ATOM      9  N   UNL     1      49.191   3.174  17.791  0.00  0.00    +0.000 N 
ATOM     10  C   UNL     1      49.871   2.241  17.029  0.00  0.00    +0.000 C 
ATOM     11  O   UNL     1      49.320   1.665  16.095  0.00  0.00    +0.000 OA
ATOM     12  H   UNL     1      49.698   3.613  18.554  0.00  0.00    +0.000 HD
BRANCH  10  13
ATOM     13  C   UNL     1      51.253   2.031  17.445  0.00  0.00    +0.000 A 
ATOM     14  N   UNL     1      51.844   0.847  17.420  0.00  0.00    +0.000 NA
ATOM     15  C   UNL     1      53.141   0.982  17.880  0.00  0.00    +0.000 A 
ATOM     16  C   UNL     1      53.518   2.256  18.248  0.00  0.00    +0.000 A 
ATOM     17  S   UNL     1      52.209   3.337  18.009  0.00  0.00    +0.000 S 
ENDBRANCH  10  13
ENDBRANCH   8   9
ENDBRANCH   5   8
ENDBRANCH   1   2
BRANCH   1  19
ATOM     18  C   UNL     1      46.477   8.646  13.142  0.00  0.00    +0.000 C 
ATOM     19  N   UNL     1      46.347   7.391  12.409  0.00  0.00    +0.000 N 
ATOM     20  C   UNL     1      45.261   7.288  11.527  0.00  0.00    +0.000 C 
ATOM     21  O   UNL     1      44.476   8.220  11.371  0.00  0.00    +0.000 OA
BRANCH  20  22
ATOM     22  C   UNL     1      45.036   6.031  10.797  0.00  0.00    +0.000 A 
ATOM     23  C   UNL     1      45.600   5.716   9.573  0.00  0.00    +0.000 A 
ATOM     24  S   UNL     1      45.211   4.145   9.025  0.00  0.00    +0.000 S 
ATOM     25  C   UNL     1      44.399   3.785  10.474  0.00  0.00    +0.000 A 
ATOM     26  N   UNL     1      43.909   2.540  10.713  0.00  0.00    +0.000 NA
ATOM     27  C   UNL     1      43.391   2.393  11.887  0.00  0.00    +0.000 A 
ATOM     28  N   UNL     1      43.280   3.387  12.825  0.00  0.00    +0.000 N 
ATOM     29  C   UNL     1      43.623   4.694  12.567  0.00  0.00    +0.000 A 
ATOM     30  O   UNL     1      43.273   5.600  13.318  0.00  0.00    +0.000 OA
ATOM     31  C   UNL     1      44.336   4.878  11.317  0.00  0.00    +0.000 A 
ATOM     32  H   UNL     1      42.797   3.223  13.696  0.00  0.00    +0.000 HD
ENDBRANCH  20  22
ENDBRANCH   1  19
TORSDOF 6
ENDMDL
MODEL 2
REMARK VINA RESULT:    -7.939      1.302      1.980
REMARK INTER + INTRA:         -11.615
REMARK INTER:                 -11.034
REMARK INTRA:                  -0.581
REMARK UNBOUND:                -0.892
REMARK  Name = 
REMARK  7 active torsions:
REMARK  status: ('A' for Active; 'I' for Inactive)
REMARK    1  A    between atoms: C_1  and  N_2
REMARK    2  A    between atoms: N_2  and  C_3
REMARK    3  A    between atoms: C_3  and  C_4
REMARK    4  A    between atoms: C_7  and  C_8
REMARK    5  A    between atoms: C_8  and  N_9
REMARK    6  A    between atoms: C_10  and  C_12
REMARK    7  A    between atoms: C_19  and  C_21
REMARK                            x       y       z     vdW  Elec       q    Type
REMARK                         _______ _______ _______ _____ _____    ______ ____
ROOT
ATOM      1  C   UNL     1      47.297   6.270  12.261  0.00  0.00    +0.000 C 
ENDROOT
BRANCH   1   2
ATOM      2  C   UNL     1      47.398   5.584  13.604  0.00  0.00    +0.000 A 
ATOM      3  C   UNL     1      46.752   4.375  13.832  0.00  0.00    +0.000 A 
ATOM      4  C   UNL     1      46.874   3.779  15.087  0.00  0.00    +0.000 A 
ATOM      5  C   UNL     1      47.628   4.402  16.083  0.00  0.00    +0.000 A 
ATOM      6  C   UNL     1      48.249   5.601  15.762  0.00  0.00    +0.000 A 
ATOM      7  N   UNL     1      48.149   6.200  14.554  0.00  0.00    +0.000 NA
BRANCH   5   8
ATOM      8  C   UNL     1      47.786   3.796  17.441  0.00  0.00    +0.000 C 
BRANCH   8   9
ATOM      9  N   UNL     1      49.151   3.431  17.711  0.00  0.00    +0.000 N 
ATOM     10  C   UNL     1      49.750   2.377  17.046  0.00  0.00    +0.000 C 
ATOM     11  O   UNL     1      49.129   1.719  16.214  0.00  0.00    +0.000 OA
ATOM     12  H   UNL     1      49.714   3.934  18.392  0.00  0.00    +0.000 HD
BRANCH  10  13
ATOM     13  C   UNL     1      51.139   2.147  17.427  0.00  0.00    +0.000 A 
ATOM     14  N   UNL     1      51.730   0.967  17.334  0.00  0.00    +0.000 NA
ATOM     15  C   UNL     1      53.034   1.080  17.778  0.00  0.00    +0.000 A 
ATOM     16  C   UNL     1      53.417   2.335  18.204  0.00  0.00    +0.000 A 
ATOM     17  S   UNL     1      52.104   3.424  18.041  0.00  0.00    +0.000 S 
ENDBRANCH  10  13
ENDBRANCH   8   9
ENDBRANCH   5   8
ENDBRANCH   1   2
BRANCH   1  19
ATOM     18  C   UNL     1      46.449   8.648  12.215  0.00  0.00    +0.000 C 
ATOM     19  N   UNL     1      46.194   7.221  12.060  0.00  0.00    +0.000 N 
ATOM     20  C   UNL     1      44.921   6.856  11.597  0.00  0.00    +0.000 C 
ATOM     21  O   UNL     1      44.076   7.705  11.320  0.00  0.00    +0.000 OA
BRANCH  20  22
ATOM     22  C   UNL     1      44.575   5.433  11.470  0.00  0.00    +0.000 A 
ATOM     23  C   UNL     1      43.783   4.729  12.362  0.00  0.00    +0.000 A 
ATOM     24  S   UNL     1      43.496   3.112  11.892  0.00  0.00    +0.000 S 
ATOM     25  C   UNL     1      44.299   3.345  10.412  0.00  0.00    +0.000 A 
ATOM     26  N   UNL     1      44.325   2.368   9.467  0.00  0.00    +0.000 NA
ATOM     27  C   UNL     1      44.899   2.718   8.363  0.00  0.00    +0.000 A 
ATOM     28  N   UNL     1      45.484   3.937   8.135  0.00  0.00    +0.000 N 
ATOM     29  C   UNL     1      45.614   4.894   9.115  0.00  0.00    +0.000 A 
ATOM     30  O   UNL     1      46.365   5.854   8.967  0.00  0.00    +0.000 OA
ATOM     31  C   UNL     1      44.865   4.602  10.324  0.00  0.00    +0.000 A 
ATOM     32  H   UNL     1      45.981   4.117   7.276  0.00  0.00    +0.000 HD
ENDBRANCH  20  22
ENDBRANCH   1  19
TORSDOF 6
ENDMDL
MODEL 3
REMARK VINA RESULT:    -7.553      3.336      7.957
REMARK INTER + INTRA:         -11.094
REMARK INTER:                  -9.988
REMARK INTRA:                  -1.106
REMARK UNBOUND:                -0.892
REMARK  Name = 
REMARK  7 active torsions:
REMARK  status: ('A' for Active; 'I' for Inactive)
REMARK    1  A    between atoms: C_1  and  N_2
REMARK    2  A    between atoms: N_2  and  C_3
REMARK    3  A    between atoms: C_3  and  C_4
REMARK    4  A    between atoms: C_7  and  C_8
REMARK    5  A    between atoms: C_8  and  N_9
REMARK    6  A    between atoms: C_10  and  C_12
REMARK    7  A    between atoms: C_19  and  C_21
REMARK                            x       y       z     vdW  Elec       q    Type
REMARK                         _______ _______ _______ _____ _____    ______ ____
ROOT
ATOM      1  C   UNL     1      47.548   7.829  13.897  0.00  0.00    +0.000 C 
ENDROOT
BRANCH   1   2
ATOM      2  C   UNL     1      46.729   6.729  13.261  0.00  0.00    +0.000 A 
ATOM      3  C   UNL     1      45.931   6.990  12.154  0.00  0.00    +0.000 A 
ATOM      4  C   UNL     1      45.193   5.944  11.601  0.00  0.00    +0.000 A 
ATOM      5  C   UNL     1      45.263   4.669  12.164  0.00  0.00    +0.000 A 
ATOM      6  C   UNL     1      46.097   4.498  13.261  0.00  0.00    +0.000 A 
ATOM      7  N   UNL     1      46.824   5.493  13.816  0.00  0.00    +0.000 NA
BRANCH   5   8
ATOM      8  C   UNL     1      44.490   3.519  11.601  0.00  0.00    +0.000 C 
BRANCH   8   9
ATOM      9  N   UNL     1      45.222   2.833  10.570  0.00  0.00    +0.000 N 
ATOM     10  C   UNL     1      45.028   3.141   9.236  0.00  0.00    +0.000 C 
ATOM     11  O   UNL     1      44.219   4.001   8.896  0.00  0.00    +0.000 OA
ATOM     12  H   UNL     1      45.901   2.109  10.788  0.00  0.00    +0.000 HD
BRANCH  10  13
ATOM     13  C   UNL     1      45.857   2.363   8.322  0.00  0.00    +0.000 A 
ATOM     14  N   UNL     1      46.017   1.053   8.426  0.00  0.00    +0.000 NA
ATOM     15  C   UNL     1      46.861   0.622   7.420  0.00  0.00    +0.000 A 
ATOM     16  C   UNL     1      47.332   1.600   6.570  0.00  0.00    +0.000 A 
ATOM     17  S   UNL     1      46.695   3.122   7.033  0.00  0.00    +0.000 S 
ENDBRANCH  10  13
ENDBRANCH   8   9
ENDBRANCH   5   8
ENDBRANCH   1   2
BRANCH   1  19
ATOM     18  C   UNL     1      49.668   7.397  12.593  0.00  0.00    +0.000 C 
ATOM     19  N   UNL     1      49.012   7.699  13.860  0.00  0.00    +0.000 N 
ATOM     20  C   UNL     1      49.849   7.974  14.952  0.00  0.00    +0.000 C 
ATOM     21  O   UNL     1      51.072   7.978  14.833  0.00  0.00    +0.000 OA
BRANCH  20  22
ATOM     22  C   UNL     1      49.257   8.231  16.274  0.00  0.00    +0.000 A 
ATOM     23  C   UNL     1      49.005   9.488  16.796  0.00  0.00    +0.000 A 
ATOM     24  S   UNL     1      48.234   9.454  18.320  0.00  0.00    +0.000 S 
ATOM     25  C   UNL     1      48.081   7.762  18.261  0.00  0.00    +0.000 A 
ATOM     26  N   UNL     1      47.401   7.085  19.225  0.00  0.00    +0.000 NA
ATOM     27  C   UNL     1      47.297   5.816  19.005  0.00  0.00    +0.000 A 
ATOM     28  N   UNL     1      47.847   5.159  17.934  0.00  0.00    +0.000 N 
ATOM     29  C   UNL     1      48.669   5.780  17.022  0.00  0.00    +0.000 A 
ATOM     30  O   UNL     1      49.353   5.127  16.239  0.00  0.00    +0.000 OA
ATOM     31  C   UNL     1      48.700   7.225  17.149  0.00  0.00    +0.000 A 
ATOM     32  H   UNL     1      47.791   4.154  17.863  0.00  0.00    +0.000 HD
ENDBRANCH  20  22
ENDBRANCH   1  19
TORSDOF 6
ENDMDL
MODEL 4
REMARK VINA RESULT:    -7.265      2.704      8.263
REMARK INTER + INTRA:         -10.705
REMARK INTER:                  -9.711
REMARK INTRA:                  -0.994
REMARK UNBOUND:                -0.892
REMARK  Name = 
REMARK  7 active torsions:
REMARK  status: ('A' for Active; 'I' for Inactive)
REMARK    1  A    between atoms: C_1  and  N_2
REMARK    2  A    between atoms: N_2  and  C_3
REMARK    3  A    between atoms: C_3  and  C_4
REMARK    4  A    between atoms: C_7  and  C_8
REMARK    5  A    between atoms: C_8  and  N_9
REMARK    6  A    between atoms: C_10  and  C_12
REMARK    7  A    between atoms: C_19  and  C_21
REMARK                            x       y       z     vdW  Elec       q    Type
REMARK                         _______ _______ _______ _____ _____    ______ ____
ROOT
ATOM      1  C   UNL     1      49.543   6.969  15.641  0.00  0.00    +0.000 C 
ENDROOT
BRANCH   1   2
ATOM      2  C   UNL     1      48.443   6.930  14.604  0.00  0.00    +0.000 A 
ATOM      3  C   UNL     1      47.884   8.106  14.121  0.00  0.00    +0.000 A 
ATOM      4  C   UNL     1      46.873   8.021  13.165  0.00  0.00    +0.000 A 
ATOM      5  C   UNL     1      46.441   6.771  12.718  0.00  0.00    +0.000 A 
ATOM      6  C   UNL     1      47.066   5.650  13.246  0.00  0.00    +0.000 A 
ATOM      7  N   UNL     1      48.049   5.704  14.173  0.00  0.00    +0.000 NA
BRANCH   5   8
ATOM      8  C   UNL     1      45.361   6.635  11.692  0.00  0.00    +0.000 C 
BRANCH   8   9
ATOM      9  N   UNL     1      45.760   5.786  10.601  0.00  0.00    +0.000 N 
ATOM     10  C   UNL     1      44.908   4.815  10.107  0.00  0.00    +0.000 C 
ATOM     11  O   UNL     1      43.792   4.647  10.593  0.00  0.00    +0.000 OA
ATOM     12  H   UNL     1      46.672   5.874  10.162  0.00  0.00    +0.000 HD
BRANCH  10  13
ATOM     13  C   UNL     1      45.461   4.051   8.995  0.00  0.00    +0.000 A 
ATOM     14  N   UNL     1      46.119   4.608   7.991  0.00  0.00    +0.000 NA
ATOM     15  C   UNL     1      46.504   3.620   7.103  0.00  0.00    +0.000 A 
ATOM     16  C   UNL     1      46.134   2.335   7.437  0.00  0.00    +0.000 A 
ATOM     17  S   UNL     1      45.277   2.349   8.921  0.00  0.00    +0.000 S 
ENDBRANCH  10  13
ENDBRANCH   8   9
ENDBRANCH   5   8
ENDBRANCH   1   2
BRANCH   1  19
ATOM     18  C   UNL     1      49.309   8.867  17.291  0.00  0.00    +0.000 C 
ATOM     19  N   UNL     1      49.195   7.445  16.988  0.00  0.00    +0.000 N 
ATOM     20  C   UNL     1      48.629   6.633  17.982  0.00  0.00    +0.000 C 
ATOM     21  O   UNL     1      48.233   7.109  19.045  0.00  0.00    +0.000 OA
BRANCH  20  22
ATOM     22  C   UNL     1      48.534   5.182  17.767  0.00  0.00    +0.000 A 
ATOM     23  C   UNL     1      47.386   4.513  17.378  0.00  0.00    +0.000 A 
ATOM     24  S   UNL     1      47.619   2.840  17.130  0.00  0.00    +0.000 S 
ATOM     25  C   UNL     1      49.293   2.982  17.393  0.00  0.00    +0.000 A 
ATOM     26  N   UNL     1      50.122   1.919  17.223  0.00  0.00    +0.000 NA
ATOM     27  C   UNL     1      51.374   2.197  17.377  0.00  0.00    +0.000 A 
ATOM     28  N   UNL     1      51.867   3.428  17.728  0.00  0.00    +0.000 N 
ATOM     29  C   UNL     1      51.054   4.487  18.059  0.00  0.00    +0.000 A 
ATOM     30  O   UNL     1      51.506   5.482  18.617  0.00  0.00    +0.000 OA
ATOM     31  C   UNL     1      49.650   4.264  17.766  0.00  0.00    +0.000 A 
ATOM     32  H   UNL     1      52.851   3.558  17.905  0.00  0.00    +0.000 HD
ENDBRANCH  20  22
ENDBRANCH   1  19
TORSDOF 6
ENDMDL
MODEL 5
REMARK VINA RESULT:    -6.993      2.701      8.174
REMARK INTER + INTRA:         -10.338
REMARK INTER:                  -9.335
REMARK INTRA:                  -1.002
REMARK UNBOUND:                -0.892
REMARK  Name = 
REMARK  7 active torsions:
REMARK  status: ('A' for Active; 'I' for Inactive)
REMARK    1  A    between atoms: C_1  and  N_2
REMARK    2  A    between atoms: N_2  and  C_3
REMARK    3  A    between atoms: C_3  and  C_4
REMARK    4  A    between atoms: C_7  and  C_8
REMARK    5  A    between atoms: C_8  and  N_9
REMARK    6  A    between atoms: C_10  and  C_12
REMARK    7  A    between atoms: C_19  and  C_21
REMARK                            x       y       z     vdW  Elec       q    Type
REMARK                         _______ _______ _______ _____ _____    ______ ____
ROOT
ATOM      1  C   UNL     1      49.221   7.989  15.420  0.00  0.00    +0.000 C 
ENDROOT
BRANCH   1   2
ATOM      2  C   UNL     1      48.169   7.574  14.417  0.00  0.00    +0.000 A 
ATOM      3  C   UNL     1      48.037   6.243  14.040  0.00  0.00    +0.000 A 
ATOM      4  C   UNL     1      47.053   5.906  13.112  0.00  0.00    +0.000 A 
ATOM      5  C   UNL     1      46.230   6.900  12.579  0.00  0.00    +0.000 A 
ATOM      6  C   UNL     1      46.424   8.201  13.024  0.00  0.00    +0.000 A 
ATOM      7  N   UNL     1      47.369   8.554  13.923  0.00  0.00    +0.000 NA
BRANCH   5   8
ATOM      8  C   UNL     1      45.160   6.582  11.583  0.00  0.00    +0.000 C 
BRANCH   8   9
ATOM      9  N   UNL     1      45.633   5.702  10.548  0.00  0.00    +0.000 N 
ATOM     10  C   UNL     1      44.777   4.810   9.928  0.00  0.00    +0.000 C 
ATOM     11  O   UNL     1      43.594   4.740  10.250  0.00  0.00    +0.000 OA
ATOM     12  H   UNL     1      46.602   5.709  10.242  0.00  0.00    +0.000 HD
BRANCH  10  13
ATOM     13  C   UNL     1      45.413   4.000   8.895  0.00  0.00    +0.000 A 
ATOM     14  N   UNL     1      46.045   4.519   7.854  0.00  0.00    +0.000 NA
ATOM     15  C   UNL     1      46.525   3.493   7.062  0.00  0.00    +0.000 A 
ATOM     16  C   UNL     1      46.253   2.215   7.503  0.00  0.00    +0.000 A 
ATOM     17  S   UNL     1      45.368   2.288   8.969  0.00  0.00    +0.000 S 
ENDBRANCH  10  13
ENDBRANCH   8   9
ENDBRANCH   5   8
ENDBRANCH   1   2
BRANCH   1  19
ATOM     18  C   UNL     1      47.846   9.272  17.105  0.00  0.00    +0.000 C 
ATOM     19  N   UNL     1      48.792   8.204  16.810  0.00  0.00    +0.000 N 
ATOM     20  C   UNL     1      49.137   7.356  17.874  0.00  0.00    +0.000 C 
ATOM     21  O   UNL     1      48.645   7.503  18.991  0.00  0.00    +0.000 OA
BRANCH  20  22
ATOM     22  C   UNL     1      50.128   6.291  17.662  0.00  0.00    +0.000 A 
ATOM     23  C   UNL     1      51.495   6.439  17.827  0.00  0.00    +0.000 A 
ATOM     24  S   UNL     1      52.373   4.993  17.587  0.00  0.00    +0.000 S 
ATOM     25  C   UNL     1      50.942   4.095  17.401  0.00  0.00    +0.000 A 
ATOM     26  N   UNL     1      50.976   2.742  17.271  0.00  0.00    +0.000 NA
ATOM     27  C   UNL     1      49.809   2.188  17.222  0.00  0.00    +0.000 A 
ATOM     28  N   UNL     1      48.618   2.866  17.246  0.00  0.00    +0.000 N 
ATOM     29  C   UNL     1      48.543   4.239  17.221  0.00  0.00    +0.000 A 
ATOM     30  O   UNL     1      47.484   4.811  16.978  0.00  0.00    +0.000 OA
ATOM     31  C   UNL     1      49.820   4.901  17.417  0.00  0.00    +0.000 A 
ATOM     32  H   UNL     1      47.744   2.376  17.128  0.00  0.00    +0.000 HD
ENDBRANCH  20  22
ENDBRANCH   1  19
TORSDOF 6
ENDMDL
MODEL 6
REMARK VINA RESULT:    -6.693      2.474      7.951
REMARK INTER + INTRA:          -9.933
REMARK INTER:                  -8.579
REMARK INTRA:                  -1.354
REMARK UNBOUND:                -0.892
REMARK  Name = 
REMARK  7 active torsions:
REMARK  status: ('A' for Active; 'I' for Inactive)
REMARK    1  A    between atoms: C_1  and  N_2
REMARK    2  A    between atoms: N_2  and  C_3
REMARK    3  A    between atoms: C_3  and  C_4
REMARK    4  A    between atoms: C_7  and  C_8
REMARK    5  A    between atoms: C_8  and  N_9
REMARK    6  A    between atoms: C_10  and  C_12
REMARK    7  A    between atoms: C_19  and  C_21
REMARK                            x       y       z     vdW  Elec       q    Type
REMARK                         _______ _______ _______ _____ _____    ______ ____
ROOT
ATOM      1  C   UNL     1      49.375   8.040  17.271  0.00  0.00    +0.000 C 
ENDROOT
BRANCH   1   2
ATOM      2  C   UNL     1      48.844   7.926  15.860  0.00  0.00    +0.000 A 
ATOM      3  C   UNL     1      48.161   8.983  15.272  0.00  0.00    +0.000 A 
ATOM      4  C   UNL     1      47.690   8.833  13.969  0.00  0.00    +0.000 A 
ATOM      5  C   UNL     1      47.906   7.635  13.285  0.00  0.00    +0.000 A 
ATOM      6  C   UNL     1      48.611   6.638  13.945  0.00  0.00    +0.000 A 
ATOM      7  N   UNL     1      49.079   6.757  15.208  0.00  0.00    +0.000 NA
BRANCH   5   8
ATOM      8  C   UNL     1      47.420   7.432  11.885  0.00  0.00    +0.000 C 
BRANCH   8   9
ATOM      9  N   UNL     1      46.651   6.224  11.752  0.00  0.00    +0.000 N 
ATOM     10  C   UNL     1      45.270   6.265  11.684  0.00  0.00    +0.000 C 
ATOM     11  O   UNL     1      44.665   7.332  11.744  0.00  0.00    +0.000 OA
ATOM     12  H   UNL     1      47.094   5.311  11.703  0.00  0.00    +0.000 HD
BRANCH  10  13
ATOM     13  C   UNL     1      44.645   4.955  11.540  0.00  0.00    +0.000 A 
ATOM     14  N   UNL     1      44.899   4.139  10.530  0.00  0.00    +0.000 NA
ATOM     15  C   UNL     1      44.146   2.989  10.679  0.00  0.00    +0.000 A 
ATOM     16  C   UNL     1      43.332   2.945  11.791  0.00  0.00    +0.000 A 
ATOM     17  S   UNL     1      43.511   4.390  12.695  0.00  0.00    +0.000 S 
ENDBRANCH  10  13
ENDBRANCH   8   9
ENDBRANCH   5   8
ENDBRANCH   1   2
BRANCH   1  19
ATOM     18  C   UNL     1      47.462   8.513  18.851  0.00  0.00    +0.000 C 
ATOM     19  N   UNL     1      48.497   7.607  18.368  0.00  0.00    +0.000 N 
ATOM     20  C   UNL     1      48.501   6.311  18.907  0.00  0.00    +0.000 C 
ATOM     21  O   UNL     1      47.658   5.961  19.730  0.00  0.00    +0.000 OA
BRANCH  20  22
ATOM     22  C   UNL     1      49.551   5.362  18.507  0.00  0.00    +0.000 A 
ATOM     23  C   UNL     1      50.844   5.358  19.001  0.00  0.00    +0.000 A 
ATOM     24  S   UNL     1      51.801   4.077  18.402  0.00  0.00    +0.000 S 
ATOM     25  C   UNL     1      50.476   3.402  17.579  0.00  0.00    +0.000 A 
ATOM     26  N   UNL     1      50.582   2.209  16.937  0.00  0.00    +0.000 NA
ATOM     27  C   UNL     1      49.473   1.783  16.429  0.00  0.00    +0.000 A 
ATOM     28  N   UNL     1      48.282   2.462  16.466  0.00  0.00    +0.000 N 
ATOM     29  C   UNL     1      48.168   3.737  16.969  0.00  0.00    +0.000 A 
ATOM     30  O   UNL     1      47.168   4.415  16.754  0.00  0.00    +0.000 OA
ATOM     31  C   UNL     1      49.350   4.198  17.674  0.00  0.00    +0.000 A 
ATOM     32  H   UNL     1      47.471   2.106  15.983  0.00  0.00    +0.000 HD
ENDBRANCH  20  22
ENDBRANCH   1  19
TORSDOF 6
ENDMDL
MODEL 7
REMARK VINA RESULT:    -6.625      4.597      5.879
REMARK INTER + INTRA:          -9.840
REMARK INTER:                  -8.858
REMARK INTRA:                  -0.983
REMARK UNBOUND:                -0.892
REMARK  Name = 
REMARK  7 active torsions:
REMARK  status: ('A' for Active; 'I' for Inactive)
REMARK    1  A    between atoms: C_1  and  N_2
REMARK    2  A    between atoms: N_2  and  C_3
REMARK    3  A    between atoms: C_3  and  C_4
REMARK    4  A    between atoms: C_7  and  C_8
REMARK    5  A    between atoms: C_8  and  N_9
REMARK    6  A    between atoms: C_10  and  C_12
REMARK    7  A    between atoms: C_19  and  C_21
REMARK                            x       y       z     vdW  Elec       q    Type
REMARK                         _______ _______ _______ _____ _____    ______ ____
ROOT
ATOM      1  C   UNL     1      46.374   6.329  12.907  0.00  0.00    +0.000 C 
ENDROOT
BRANCH   1   2
ATOM      2  C   UNL     1      47.767   6.905  12.785  0.00  0.00    +0.000 A 
ATOM      3  C   UNL     1      48.292   7.230  11.541  0.00  0.00    +0.000 A 
ATOM      4  C   UNL     1      49.581   7.759  11.478  0.00  0.00    +0.000 A 
ATOM      5  C   UNL     1      50.315   7.946  12.651  0.00  0.00    +0.000 A 
ATOM      6  C   UNL     1      49.704   7.606  13.851  0.00  0.00    +0.000 A 
ATOM      7  N   UNL     1      48.457   7.093  13.941  0.00  0.00    +0.000 NA
BRANCH   5   8
ATOM      8  C   UNL     1      51.699   8.513  12.629  0.00  0.00    +0.000 C 
BRANCH   8   9
ATOM      9  N   UNL     1      52.597   7.707  11.846  0.00  0.00    +0.000 N 
ATOM     10  C   UNL     1      52.973   8.094  10.573  0.00  0.00    +0.000 C 
ATOM     11  O   UNL     1      52.542   9.130  10.073  0.00  0.00    +0.000 OA
ATOM     12  H   UNL     1      52.983   6.837  12.203  0.00  0.00    +0.000 HD
BRANCH  10  13
ATOM     13  C   UNL     1      53.897   7.172   9.922  0.00  0.00    +0.000 A 
ATOM     14  N   UNL     1      53.831   5.858  10.067  0.00  0.00    +0.000 NA
ATOM     15  C   UNL     1      54.846   5.273   9.332  0.00  0.00    +0.000 A 
ATOM     16  C   UNL     1      55.666   6.141   8.643  0.00  0.00    +0.000 A 
ATOM     17  S   UNL     1      55.154   7.754   8.913  0.00  0.00    +0.000 S 
ENDBRANCH  10  13
ENDBRANCH   8   9
ENDBRANCH   5   8
ENDBRANCH   1   2
BRANCH   1  19
ATOM     18  C   UNL     1      45.267   8.566  12.525  0.00  0.00    +0.000 C 
ATOM     19  N   UNL     1      45.259   7.117  12.362  0.00  0.00    +0.000 N 
ATOM     20  C   UNL     1      44.233   6.578  11.572  0.00  0.00    +0.000 C 
ATOM     21  O   UNL     1      43.399   7.301  11.031  0.00  0.00    +0.000 OA
BRANCH  20  22
ATOM     22  C   UNL     1      44.131   5.121  11.410  0.00  0.00    +0.000 A 
ATOM     23  C   UNL     1      43.358   4.289  12.203  0.00  0.00    +0.000 A 
ATOM     24  S   UNL     1      43.385   2.654  11.708  0.00  0.00    +0.000 S 
ATOM     25  C   UNL     1      44.311   3.031  10.334  0.00  0.00    +0.000 A 
ATOM     26  N   UNL     1      44.601   2.085   9.402  0.00  0.00    +0.000 NA
ATOM     27  C   UNL     1      45.240   2.535   8.374  0.00  0.00    +0.000 A 
ATOM     28  N   UNL     1      45.652   3.834   8.213  0.00  0.00    +0.000 N 
ATOM     29  C   UNL     1      45.514   4.784   9.198  0.00  0.00    +0.000 A 
ATOM     30  O   UNL     1      46.118   5.851   9.136  0.00  0.00    +0.000 OA
ATOM     31  C   UNL     1      44.681   4.362  10.309  0.00  0.00    +0.000 A 
ATOM     32  H   UNL     1      46.213   4.102   7.419  0.00  0.00    +0.000 HD
ENDBRANCH  20  22
ENDBRANCH   1  19
TORSDOF 6
ENDMDL
MODEL 8
REMARK VINA RESULT:    -6.552      2.716      8.120
REMARK INTER + INTRA:          -9.742
REMARK INTER:                  -8.690
REMARK INTRA:                  -1.052
REMARK UNBOUND:                -0.892
REMARK  Name = 
REMARK  7 active torsions:
REMARK  status: ('A' for Active; 'I' for Inactive)
REMARK    1  A    between atoms: C_1  and  N_2
REMARK    2  A    between atoms: N_2  and  C_3
REMARK    3  A    between atoms: C_3  and  C_4
REMARK    4  A    between atoms: C_7  and  C_8
REMARK    5  A    between atoms: C_8  and  N_9
REMARK    6  A    between atoms: C_10  and  C_12
REMARK    7  A    between atoms: C_19  and  C_21
REMARK                            x       y       z     vdW  Elec       q    Type
REMARK                         _______ _______ _______ _____ _____    ______ ____
ROOT
ATOM      1  C   UNL     1      50.520   7.078  16.724  0.00  0.00    +0.000 C 
ENDROOT
BRANCH   1   2
ATOM      2  C   UNL     1      49.443   7.325  15.692  0.00  0.00    +0.000 A 
ATOM      3  C   UNL     1      48.867   8.583  15.557  0.00  0.00    +0.000 A 
ATOM      4  C   UNL     1      47.877   8.764  14.592  0.00  0.00    +0.000 A 
ATOM      5  C   UNL     1      47.482   7.692  13.790  0.00  0.00    +0.000 A 
ATOM      6  C   UNL     1      48.122   6.475  13.985  0.00  0.00    +0.000 A 
ATOM      7  N   UNL     1      49.085   6.272  14.912  0.00  0.00    +0.000 NA
BRANCH   5   8
ATOM      8  C   UNL     1      46.426   7.844  12.741  0.00  0.00    +0.000 C 
BRANCH   8   9
ATOM      9  N   UNL     1      45.655   6.641  12.577  0.00  0.00    +0.000 N 
ATOM     10  C   UNL     1      45.722   5.908  11.406  0.00  0.00    +0.000 C 
ATOM     11  O   UNL     1      46.434   6.270  10.473  0.00  0.00    +0.000 OA
ATOM     12  H   UNL     1      45.044   6.293  13.311  0.00  0.00    +0.000 HD
BRANCH  10  13
ATOM     13  C   UNL     1      44.888   4.711  11.407  0.00  0.00    +0.000 A 
ATOM     14  N   UNL     1      44.770   3.910  10.361  0.00  0.00    +0.000 NA
ATOM     15  C   UNL     1      43.907   2.878  10.680  0.00  0.00    +0.000 A 
ATOM     16  C   UNL     1      43.381   2.906  11.954  0.00  0.00    +0.000 A 
ATOM     17  S   UNL     1      43.987   4.270  12.797  0.00  0.00    +0.000 S 
ENDBRANCH  10  13
ENDBRANCH   8   9
ENDBRANCH   5   8
ENDBRANCH   1   2
BRANCH   1  19
ATOM     18  C   UNL     1      50.589   8.484  18.821  0.00  0.00    +0.000 C 
ATOM     19  N   UNL     1      50.167   7.266  18.139  0.00  0.00    +0.000 N 
ATOM     20  C   UNL     1      49.328   6.400  18.857  0.00  0.00    +0.000 C 
ATOM     21  O   UNL     1      48.957   6.673  19.997  0.00  0.00    +0.000 OA
BRANCH  20  22
ATOM     22  C   UNL     1      48.909   5.128  18.252  0.00  0.00    +0.000 A 
ATOM     23  C   UNL     1      47.669   4.893  17.683  0.00  0.00    +0.000 A 
ATOM     24  S   UNL     1      47.517   3.340  16.989  0.00  0.00    +0.000 S 
ATOM     25  C   UNL     1      49.151   2.986  17.297  0.00  0.00    +0.000 A 
ATOM     26  N   UNL     1      49.716   1.833  16.850  0.00  0.00    +0.000 NA
ATOM     27  C   UNL     1      50.983   1.741  17.087  0.00  0.00    +0.000 A 
ATOM     28  N   UNL     1      51.724   2.673  17.766  0.00  0.00    +0.000 N 
ATOM     29  C   UNL     1      51.162   3.776  18.366  0.00  0.00    +0.000 A 
ATOM     30  O   UNL     1      51.793   4.444  19.180  0.00  0.00    +0.000 OA
ATOM     31  C   UNL     1      49.772   3.994  18.010  0.00  0.00    +0.000 A 
ATOM     32  H   UNL     1      52.695   2.502  17.981  0.00  0.00    +0.000 HD
ENDBRANCH  20  22
ENDBRANCH   1  19
TORSDOF 6
ENDMDL
MODEL 9
REMARK VINA RESULT:    -6.540      3.335      8.855
REMARK INTER + INTRA:          -9.726
REMARK INTER:                  -9.334
REMARK INTRA:                  -0.392
REMARK UNBOUND:                -0.892
REMARK  Name = 
REMARK  7 active torsions:
REMARK  status: ('A' for Active; 'I' for Inactive)
REMARK    1  A    between atoms: C_1  and  N_2
REMARK    2  A    between atoms: N_2  and  C_3
REMARK    3  A    between atoms: C_3  and  C_4
REMARK    4  A    between atoms: C_7  and  C_8
REMARK    5  A    between atoms: C_8  and  N_9
REMARK    6  A    between atoms: C_10  and  C_12
REMARK    7  A    between atoms: C_19  and  C_21
REMARK                            x       y       z     vdW  Elec       q    Type
REMARK                         _______ _______ _______ _____ _____    ______ ____
ROOT
ATOM      1  C   UNL     1      47.626   5.488  15.317  0.00  0.00    +0.000 C 
ENDROOT
BRANCH   1   2
ATOM      2  C   UNL     1      46.833   5.373  14.036  0.00  0.00    +0.000 A 
ATOM      3  C   UNL     1      47.165   6.140  12.926  0.00  0.00    +0.000 A 
ATOM      4  C   UNL     1      46.405   6.000  11.765  0.00  0.00    +0.000 A 
ATOM      5  C   UNL     1      45.333   5.107  11.740  0.00  0.00    +0.000 A 
ATOM      6  C   UNL     1      45.082   4.372  12.890  0.00  0.00    +0.000 A 
ATOM      7  N   UNL     1      45.803   4.486  14.028  0.00  0.00    +0.000 NA
BRANCH   5   8
ATOM      8  C   UNL     1      44.493   4.923  10.515  0.00  0.00    +0.000 C 
BRANCH   8   9
ATOM      9  N   UNL     1      45.207   4.238   9.471  0.00  0.00    +0.000 N 
ATOM     10  C   UNL     1      45.098   2.867   9.317  0.00  0.00    +0.000 C 
ATOM     11  O   UNL     1      44.396   2.200  10.073  0.00  0.00    +0.000 OA
ATOM     12  H   UNL     1      45.807   4.734   8.819  0.00  0.00    +0.000 HD
BRANCH  10  13
ATOM     13  C   UNL     1      45.875   2.332   8.206  0.00  0.00    +0.000 A 
ATOM     14  N   UNL     1      46.311   1.083   8.163  0.00  0.00    +0.000 NA
ATOM     15  C   UNL     1      47.017   0.893   6.989  0.00  0.00    +0.000 A 
ATOM     16  C   UNL     1      47.113   1.992   6.161  0.00  0.00    +0.000 A 
ATOM     17  S   UNL     1      46.285   3.318   6.865  0.00  0.00    +0.000 S 
ENDBRANCH  10  13
ENDBRANCH   8   9
ENDBRANCH   5   8
ENDBRANCH   1   2
BRANCH   1  19
ATOM     18  C   UNL     1      47.726   2.969  15.469  0.00  0.00    +0.000 C 
ATOM     19  N   UNL     1      47.805   4.271  16.122  0.00  0.00    +0.000 N 
ATOM     20  C   UNL     1      48.180   4.275  17.474  0.00  0.00    +0.000 C 
ATOM     21  O   UNL     1      48.446   3.231  18.065  0.00  0.00    +0.000 OA
BRANCH  20  22
ATOM     22  C   UNL     1      48.227   5.547  18.210  0.00  0.00    +0.000 A 
ATOM     23  C   UNL     1      47.236   6.004  19.062  0.00  0.00    +0.000 A 
ATOM     24  S   UNL     1      47.624   7.478  19.833  0.00  0.00    +0.000 S 
ATOM     25  C   UNL     1      49.187   7.476  19.165  0.00  0.00    +0.000 A 
ATOM     26  N   UNL     1      50.100   8.422  19.513  0.00  0.00    +0.000 NA
ATOM     27  C   UNL     1      51.268   8.244  18.990  0.00  0.00    +0.000 A 
ATOM     28  N   UNL     1      51.593   7.236  18.120  0.00  0.00    +0.000 N 
ATOM     29  C   UNL     1      50.662   6.352  17.625  0.00  0.00    +0.000 A 
ATOM     30  O   UNL     1      50.917   5.638  16.660  0.00  0.00    +0.000 OA
ATOM     31  C   UNL     1      49.373   6.425  18.288  0.00  0.00    +0.000 A 
ATOM     32  H   UNL     1      52.505   7.200  17.690  0.00  0.00    +0.000 HD
ENDBRANCH  20  22
ENDBRANCH   1  19
TORSDOF 6
ENDMDL
