MODEL 1
REMARK VINA RESULT:    -8.468      0.000      0.000
REMARK INTER + INTRA:         -12.590
REMARK INTER:                 -11.438
REMARK INTRA:                  -1.151
REMARK UNBOUND:                -1.151
REMARK  Name = 
REMARK  6 active torsions:
REMARK  status: ('A' for Active; 'I' for Inactive)
REMARK    1  A    between atoms: C_2  and  C_19
REMARK    2  A    between atoms: N_3  and  C_4
REMARK    3  A    between atoms: C_4  and  C_5
REMARK    4  A    between atoms: C_8  and  C_9
REMARK    5  A    between atoms: C_9  and  N_10
REMARK    6  A    between atoms: N_10  and  C_11
REMARK                            x       y       z     vdW  Elec       q    Type
REMARK                         _______ _______ _______ _____ _____    ______ ____
ROOT
ATOM      1  C   UNL     1      46.358   7.519  12.838  0.00  0.00    +0.000 C 
ENDROOT
BRANCH   1   2
ATOM      2  C   UNL     1      45.906   6.385  11.960  0.00  0.00    +0.000 A 
ATOM      3  C   UNL     1      45.086   5.384  12.495  0.00  0.00    +0.000 A 
ATOM      4  C   UNL     1      44.593   4.354  11.691  0.00  0.00    +0.000 A 
ATOM      5  C   UNL     1      44.906   4.305  10.326  0.00  0.00    +0.000 A 
ATOM      6  C   UNL     1      45.740   5.296   9.795  0.00  0.00    +0.000 A 
ATOM      7  C   UNL     1      46.240   6.324  10.601  0.00  0.00    +0.000 A 
BRANCH   5   8
ATOM      8  C   UNL     1      44.446   3.174   9.438  0.00  0.00    +0.000 C 
BRANCH   8   9
ATOM      9  N   UNL     1      44.534   3.491   8.013  0.00  0.00    +0.000 NA
ATOM     10  H   UNL     1      44.852   4.456   7.912  0.00  0.00    +0.000 HD
BRANCH   9  11
ATOM     11  C   UNL     1      45.447   2.601   7.275  0.00  0.00    +0.000 C 
ATOM     12  C   UNL     1      46.007   1.554   8.249  0.00  0.00    +0.000 C 
ATOM     13  C   UNL     1      47.040   0.675   7.556  0.00  0.00    +0.000 C 
ATOM     14  O   UNL     1      48.085   1.461   6.988  0.00  0.00    +0.000 OA
ATOM     15  C   UNL     1      47.602   2.370   6.005  0.00  0.00    +0.000 C 
ATOM     16  C   UNL     1      46.612   3.350   6.613  0.00  0.00    +0.000 C 
ENDBRANCH   9  11
ENDBRANCH   8   9
ENDBRANCH   5   8
ENDBRANCH   1   2
BRANCH   1  19
ATOM     17  O   UNL     1      48.935   6.503  13.081  0.00  0.00    +0.000 OA
ATOM     18  C   UNL     1      48.240   6.621  14.096  0.00  0.00    +0.000 C 
ATOM     19  N   UNL     1      46.957   7.103  14.074  0.00  0.00    +0.000 N 
ATOM     20  H   UNL     1      46.534   7.422  14.934  0.00  0.00    +0.000 HD
BRANCH  18  21
ATOM     21  C   UNL     1      48.738   6.217  15.402  0.00  0.00    +0.000 A 
ATOM     22  C   UNL     1      49.721   6.930  16.072  0.00  0.00    +0.000 A 
ATOM     23  S   UNL     1      50.083   6.277  17.613  0.00  0.00    +0.000 S 
ATOM     24  C   UNL     1      48.933   5.037  17.419  0.00  0.00    +0.000 A 
ATOM     25  N   UNL     1      48.710   4.115  18.392  0.00  0.00    +0.000 NA
ATOM     26  C   UNL     1      47.794   3.250  18.108  0.00  0.00    +0.000 A 
ATOM     27  N   UNL     1      47.081   3.219  16.935  0.00  0.00    +0.000 N 
ATOM     28  C   UNL     1      47.315   4.079  15.904  0.00  0.00    +0.000 A 
ATOM     29  O   UNL     1      46.763   3.915  14.809  0.00  0.00    +0.000 OA
ATOM     30  C   UNL     1      48.303   5.099  16.190  0.00  0.00    +0.000 A 
ATOM     31  H   UNL     1      46.406   2.485  16.758  0.00  0.00    +0.000 HD
ENDBRANCH  18  21
ENDBRANCH   1  19
TORSDOF 6
ENDMDL
MODEL 2
REMARK VINA RESULT:    -7.882      1.917      2.576
REMARK INTER + INTRA:         -11.798
REMARK INTER:                 -10.952
REMARK INTRA:                  -0.845
REMARK UNBOUND:                -1.151
REMARK  Name = 
REMARK  6 active torsions:
REMARK  status: ('A' for Active; 'I' for Inactive)
REMARK    1  A    between atoms: C_2  and  C_19
REMARK    2  A    between atoms: N_3  and  C_4
REMARK    3  A    between atoms: C_4  and  C_5
REMARK    4  A    between atoms: C_8  and  C_9
REMARK    5  A    between atoms: C_9  and  N_10
REMARK    6  A    between atoms: N_10  and  C_11
REMARK                            x       y       z     vdW  Elec       q    Type
REMARK                         _______ _______ _______ _____ _____    ______ ____
ROOT
ATOM      1  C   UNL     1      45.865   4.737  14.844  0.00  0.00    +0.000 C 
ENDROOT
BRANCH   1   2
ATOM      2  C   UNL     1      45.843   4.784  13.341  0.00  0.00    +0.000 A 
ATOM      3  C   UNL     1      45.188   3.771  12.630  0.00  0.00    +0.000 A 
ATOM      4  C   UNL     1      45.091   3.818  11.237  0.00  0.00    +0.000 A 
ATOM      5  C   UNL     1      45.644   4.888  10.522  0.00  0.00    +0.000 A 
ATOM      6  C   UNL     1      46.314   5.892  11.232  0.00  0.00    +0.000 A 
ATOM      7  C   UNL     1      46.418   5.842  12.626  0.00  0.00    +0.000 A 
BRANCH   5   8
ATOM      8  C   UNL     1      45.616   4.945   9.014  0.00  0.00    +0.000 C 
BRANCH   8   9
ATOM      9  N   UNL     1      44.780   3.904   8.416  0.00  0.00    +0.000 NA
ATOM     10  H   UNL     1      44.055   4.352   7.854  0.00  0.00    +0.000 HD
BRANCH   9  11
ATOM     11  C   UNL     1      45.537   2.965   7.571  0.00  0.00    +0.000 C 
ATOM     12  C   UNL     1      45.900   1.731   8.410  0.00  0.00    +0.000 C 
ATOM     13  C   UNL     1      46.776   0.776   7.611  0.00  0.00    +0.000 C 
ATOM     14  O   UNL     1      47.946   1.434   7.130  0.00  0.00    +0.000 OA
ATOM     15  C   UNL     1      47.636   2.521   6.264  0.00  0.00    +0.000 C 
ATOM     16  C   UNL     1      46.820   3.577   6.991  0.00  0.00    +0.000 C 
ENDBRANCH   9  11
ENDBRANCH   8   9
ENDBRANCH   5   8
ENDBRANCH   1   2
BRANCH   1  19
ATOM     17  O   UNL     1      46.760   3.373  17.095  0.00  0.00    +0.000 OA
ATOM     18  C   UNL     1      47.525   4.162  16.529  0.00  0.00    +0.000 C 
ATOM     19  N   UNL     1      47.171   4.884  15.419  0.00  0.00    +0.000 N 
ATOM     20  H   UNL     1      47.893   5.302  14.850  0.00  0.00    +0.000 HD
BRANCH  18  21
ATOM     21  C   UNL     1      48.869   4.402  17.033  0.00  0.00    +0.000 A 
ATOM     22  C   UNL     1      49.280   5.648  17.481  0.00  0.00    +0.000 A 
ATOM     23  S   UNL     1      50.885   5.645  18.077  0.00  0.00    +0.000 S 
ATOM     24  C   UNL     1      51.061   3.983  17.756  0.00  0.00    +0.000 A 
ATOM     25  N   UNL     1      52.209   3.319  18.047  0.00  0.00    +0.000 NA
ATOM     26  C   UNL     1      52.184   2.059  17.765  0.00  0.00    +0.000 A 
ATOM     27  N   UNL     1      51.114   1.400  17.211  0.00  0.00    +0.000 N 
ATOM     28  C   UNL     1      49.967   2.034  16.838  0.00  0.00    +0.000 A 
ATOM     29  O   UNL     1      49.094   1.434  16.199  0.00  0.00    +0.000 OA
ATOM     30  C   UNL     1      49.927   3.443  17.176  0.00  0.00    +0.000 A 
ATOM     31  H   UNL     1      51.177   0.418  16.974  0.00  0.00    +0.000 HD
ENDBRANCH  18  21
ENDBRANCH   1  19
TORSDOF 6
ENDMDL
MODEL 3
REMARK VINA RESULT:    -7.866      1.712      2.218
REMARK INTER + INTRA:         -11.776
REMARK INTER:                 -10.891
REMARK INTRA:                  -0.885
REMARK UNBOUND:                -1.151
REMARK  Name = 
REMARK  6 active torsions:
REMARK  status: ('A' for Active; 'I' for Inactive)
REMARK    1  A    between atoms: C_2  and  C_19
REMARK    2  A    between atoms: N_3  and  C_4
REMARK    3  A    between atoms: C_4  and  C_5
REMARK    4  A    between atoms: C_8  and  C_9
REMARK    5  A    between atoms: C_9  and  N_10
REMARK    6  A    between atoms: N_10  and  C_11
REMARK                            x       y       z     vdW  Elec       q    Type
REMARK                         _______ _______ _______ _____ _____    ______ ____
ROOT
ATOM      1  C   UNL     1      48.269   6.851  13.506  0.00  0.00    +0.000 C 
ENDROOT
BRANCH   1   2
ATOM      2  C   UNL     1      47.168   6.148  12.762  0.00  0.00    +0.000 A 
ATOM      3  C   UNL     1      46.772   6.625  11.506  0.00  0.00    +0.000 A 
ATOM      4  C   UNL     1      45.800   5.957  10.758  0.00  0.00    +0.000 A 
ATOM      5  C   UNL     1      45.203   4.788  11.249  0.00  0.00    +0.000 A 
ATOM      6  C   UNL     1      45.587   4.322  12.513  0.00  0.00    +0.000 A 
ATOM      7  C   UNL     1      46.555   4.993  13.265  0.00  0.00    +0.000 A 
BRANCH   5   8
ATOM      8  C   UNL     1      44.105   4.073  10.501  0.00  0.00    +0.000 C 
BRANCH   8   9
ATOM      9  N   UNL     1      44.061   4.415   9.080  0.00  0.00    +0.000 NA
ATOM     10  H   UNL     1      44.492   5.331   8.951  0.00  0.00    +0.000 HD
BRANCH   9  11
ATOM     11  C   UNL     1      44.746   3.432   8.224  0.00  0.00    +0.000 C 
ATOM     12  C   UNL     1      45.044   2.177   9.057  0.00  0.00    +0.000 C 
ATOM     13  C   UNL     1      45.849   1.172   8.244  0.00  0.00    +0.000 C 
ATOM     14  O   UNL     1      47.051   1.756   7.748  0.00  0.00    +0.000 OA
ATOM     15  C   UNL     1      46.796   2.862   6.887  0.00  0.00    +0.000 C 
ATOM     16  C   UNL     1      46.057   3.965   7.627  0.00  0.00    +0.000 C 
ENDBRANCH   9  11
ENDBRANCH   8   9
ENDBRANCH   5   8
ENDBRANCH   1   2
BRANCH   1  19
ATOM     17  O   UNL     1      50.305   6.727  15.395  0.00  0.00    +0.000 OA
ATOM     18  C   UNL     1      49.138   6.859  15.780  0.00  0.00    +0.000 C 
ATOM     19  N   UNL     1      48.069   6.922  14.925  0.00  0.00    +0.000 N 
ATOM     20  H   UNL     1      47.189   7.286  15.260  0.00  0.00    +0.000 HD
BRANCH  18  21
ATOM     21  C   UNL     1      48.816   6.926  17.197  0.00  0.00    +0.000 A 
ATOM     22  C   UNL     1      48.391   8.098  17.805  0.00  0.00    +0.000 A 
ATOM     23  S   UNL     1      48.021   7.891  19.464  0.00  0.00    +0.000 S 
ATOM     24  C   UNL     1      48.414   6.236  19.403  0.00  0.00    +0.000 A 
ATOM     25  N   UNL     1      48.303   5.437  20.496  0.00  0.00    +0.000 NA
ATOM     26  C   UNL     1      48.617   4.202  20.288  0.00  0.00    +0.000 A 
ATOM     27  N   UNL     1      49.039   3.691  19.086  0.00  0.00    +0.000 N 
ATOM     28  C   UNL     1      49.231   4.464  17.980  0.00  0.00    +0.000 A 
ATOM     29  O   UNL     1      49.763   3.994  16.966  0.00  0.00    +0.000 OA
ATOM     30  C   UNL     1      48.848   5.851  18.147  0.00  0.00    +0.000 A 
ATOM     31  H   UNL     1      49.312   2.720  19.003  0.00  0.00    +0.000 HD
ENDBRANCH  18  21
ENDBRANCH   1  19
TORSDOF 6
ENDMDL
MODEL 4
REMARK VINA RESULT:    -7.590      2.337      2.902
REMARK INTER + INTRA:         -11.403
REMARK INTER:                 -10.268
REMARK INTRA:                  -1.136
REMARK UNBOUND:                -1.151
REMARK  Name = 
REMARK  6 active torsions:
REMARK  status: ('A' for Active; 'I' for Inactive)
REMARK    1  A    between atoms: C_2  and  C_19
REMARK    2  A    between atoms: N_3  and  C_4
REMARK    3  A    between atoms: C_4  and  C_5
REMARK    4  A    between atoms: C_8  and  C_9
REMARK    5  A    between atoms: C_9  and  N_10
REMARK    6  A    between atoms: N_10  and  C_11
REMARK                            x       y       z     vdW  Elec       q    Type
REMARK                         _______ _______ _______ _____ _____    ______ ____
ROOT
ATOM      1  C   UNL     1      48.018   6.763  13.907  0.00  0.00    +0.000 C 
ENDROOT
BRANCH   1   2
ATOM      2  C   UNL     1      46.980   6.101  13.043  0.00  0.00    +0.000 A 
ATOM      3  C   UNL     1      46.455   4.860  13.425  0.00  0.00    +0.000 A 
ATOM      4  C   UNL     1      45.443   4.249  12.682  0.00  0.00    +0.000 A 
ATOM      5  C   UNL     1      44.926   4.872  11.538  0.00  0.00    +0.000 A 
ATOM      6  C   UNL     1      45.463   6.105  11.147  0.00  0.00    +0.000 A 
ATOM      7  C   UNL     1      46.481   6.714  11.887  0.00  0.00    +0.000 A 
BRANCH   5   8
ATOM      8  C   UNL     1      43.878   4.217  10.672  0.00  0.00    +0.000 C 
BRANCH   8   9
ATOM      9  N   UNL     1      43.939   4.642   9.274  0.00  0.00    +0.000 NA
ATOM     10  H   UNL     1      44.428   5.537   9.226  0.00  0.00    +0.000 HD
BRANCH   9  11
ATOM     11  C   UNL     1      44.619   3.671   8.400  0.00  0.00    +0.000 C 
ATOM     12  C   UNL     1      44.816   2.363   9.179  0.00  0.00    +0.000 C 
ATOM     13  C   UNL     1      45.613   1.361   8.353  0.00  0.00    +0.000 C 
ATOM     14  O   UNL     1      46.863   1.910   7.945  0.00  0.00    +0.000 OA
ATOM     15  C   UNL     1      46.703   3.069   7.133  0.00  0.00    +0.000 C 
ATOM     16  C   UNL     1      45.980   4.168   7.894  0.00  0.00    +0.000 C 
ENDBRANCH   9  11
ENDBRANCH   8   9
ENDBRANCH   5   8
ENDBRANCH   1   2
BRANCH   1  19
ATOM     17  O   UNL     1      50.176   6.398  15.623  0.00  0.00    +0.000 OA
ATOM     18  C   UNL     1      49.029   6.300  16.073  0.00  0.00    +0.000 C 
ATOM     19  N   UNL     1      47.905   6.455  15.304  0.00  0.00    +0.000 N 
ATOM     20  H   UNL     1      47.017   6.624  15.754  0.00  0.00    +0.000 HD
BRANCH  18  21
ATOM     21  C   UNL     1      48.794   5.976  17.472  0.00  0.00    +0.000 A 
ATOM     22  C   UNL     1      49.035   4.712  17.989  0.00  0.00    +0.000 A 
ATOM     23  S   UNL     1      48.734   4.614  19.672  0.00  0.00    +0.000 S 
ATOM     24  C   UNL     1      48.285   6.254  19.745  0.00  0.00    +0.000 A 
ATOM     25  N   UNL     1      47.920   6.841  20.914  0.00  0.00    +0.000 NA
ATOM     26  C   UNL     1      47.627   8.094  20.813  0.00  0.00    +0.000 A 
ATOM     27  N   UNL     1      47.659   8.816  19.646  0.00  0.00    +0.000 N 
ATOM     28  C   UNL     1      47.951   8.257  18.438  0.00  0.00    +0.000 A 
ATOM     29  O   UNL     1      47.813   8.905  17.393  0.00  0.00    +0.000 OA
ATOM     30  C   UNL     1      48.334   6.861  18.503  0.00  0.00    +0.000 A 
ATOM     31  H   UNL     1      47.373   9.787  19.630  0.00  0.00    +0.000 HD
ENDBRANCH  18  21
ENDBRANCH   1  19
TORSDOF 6
ENDMDL
MODEL 5
REMARK VINA RESULT:    -7.277      4.408      8.910
REMARK INTER + INTRA:         -10.981
REMARK INTER:                  -9.951
REMARK INTRA:                  -1.030
REMARK UNBOUND:                -1.151
REMARK  Name = 
REMARK  6 active torsions:
REMARK  status: ('A' for Active; 'I' for Inactive)
REMARK    1  A    between atoms: C_2  and  C_19
REMARK    2  A    between atoms: N_3  and  C_4
REMARK    3  A    between atoms: C_4  and  C_5
REMARK    4  A    between atoms: C_8  and  C_9
REMARK    5  A    between atoms: C_9  and  N_10
REMARK    6  A    between atoms: N_10  and  C_11
REMARK                            x       y       z     vdW  Elec       q    Type
REMARK                         _______ _______ _______ _____ _____    ______ ____
ROOT
ATOM      1  C   UNL     1      47.209   3.347  16.723  0.00  0.00    +0.000 C 
ENDROOT
BRANCH   1   2
ATOM      2  C   UNL     1      48.680   3.314  17.033  0.00  0.00    +0.000 A 
ATOM      3  C   UNL     1      49.297   4.450  17.571  0.00  0.00    +0.000 A 
ATOM      4  C   UNL     1      50.646   4.432  17.933  0.00  0.00    +0.000 A 
ATOM      5  C   UNL     1      51.410   3.269  17.769  0.00  0.00    +0.000 A 
ATOM      6  C   UNL     1      50.798   2.139  17.214  0.00  0.00    +0.000 A 
ATOM      7  C   UNL     1      49.449   2.158  16.846  0.00  0.00    +0.000 A 
BRANCH   5   8
ATOM      8  C   UNL     1      52.885   3.228  18.087  0.00  0.00    +0.000 C 
BRANCH   8   9
ATOM      9  N   UNL     1      53.255   2.106  18.950  0.00  0.00    +0.000 NA
ATOM     10  H   UNL     1      52.420   1.550  19.139  0.00  0.00    +0.000 HD
BRANCH   9  11
ATOM     11  C   UNL     1      54.292   1.240  18.364  0.00  0.00    +0.000 C 
ATOM     12  C   UNL     1      54.773   1.869  17.049  0.00  0.00    +0.000 C 
ATOM     13  C   UNL     1      55.771   0.954  16.349  0.00  0.00    +0.000 C 
ATOM     14  O   UNL     1      55.214  -0.339  16.128  0.00  0.00    +0.000 OA
ATOM     15  C   UNL     1      54.854  -0.987  17.344  0.00  0.00    +0.000 C 
ATOM     16  C   UNL     1      53.798  -0.188  18.091  0.00  0.00    +0.000 C 
ENDBRANCH   9  11
ENDBRANCH   8   9
ENDBRANCH   5   8
ENDBRANCH   1   2
BRANCH   1  19
ATOM     17  O   UNL     1      47.211   3.115  13.952  0.00  0.00    +0.000 OA
ATOM     18  C   UNL     1      46.848   4.180  14.464  0.00  0.00    +0.000 C 
ATOM     19  N   UNL     1      46.821   4.391  15.818  0.00  0.00    +0.000 N 
ATOM     20  H   UNL     1      46.281   5.160  16.188  0.00  0.00    +0.000 HD
BRANCH  18  21
ATOM     21  C   UNL     1      46.447   5.312  13.643  0.00  0.00    +0.000 A 
ATOM     22  C   UNL     1      47.278   6.402  13.428  0.00  0.00    +0.000 A 
ATOM     23  S   UNL     1      46.589   7.566  12.378  0.00  0.00    +0.000 S 
ATOM     24  C   UNL     1      45.176   6.638  12.184  0.00  0.00    +0.000 A 
ATOM     25  N   UNL     1      44.159   7.049  11.383  0.00  0.00    +0.000 NA
ATOM     26  C   UNL     1      43.163   6.229  11.321  0.00  0.00    +0.000 A 
ATOM     27  N   UNL     1      43.088   5.033  11.992  0.00  0.00    +0.000 N 
ATOM     28  C   UNL     1      44.051   4.610  12.859  0.00  0.00    +0.000 A 
ATOM     29  O   UNL     1      43.871   3.607  13.562  0.00  0.00    +0.000 OA
ATOM     30  C   UNL     1      45.213   5.473  12.929  0.00  0.00    +0.000 A 
ATOM     31  H   UNL     1      42.258   4.458  11.934  0.00  0.00    +0.000 HD
ENDBRANCH  18  21
ENDBRANCH   1  19
TORSDOF 6
ENDMDL
MODEL 6
REMARK VINA RESULT:    -7.094      2.025      3.453
REMARK INTER + INTRA:         -10.734
REMARK INTER:                  -9.535
REMARK INTRA:                  -1.199
REMARK UNBOUND:                -1.151
REMARK  Name = 
REMARK  6 active torsions:
REMARK  status: ('A' for Active; 'I' for Inactive)
REMARK    1  A    between atoms: C_2  and  C_19
REMARK    2  A    between atoms: N_3  and  C_4
REMARK    3  A    between atoms: C_4  and  C_5
REMARK    4  A    between atoms: C_8  and  C_9
REMARK    5  A    between atoms: C_9  and  N_10
REMARK    6  A    between atoms: N_10  and  C_11
REMARK                            x       y       z     vdW  Elec       q    Type
REMARK                         _______ _______ _______ _____ _____    ______ ____
ROOT
ATOM      1  C   UNL     1      46.737   4.746  14.689  0.00  0.00    +0.000 C 
ENDROOT
BRANCH   1   2
ATOM      2  C   UNL     1      46.189   4.653  13.291  0.00  0.00    +0.000 A 
ATOM      3  C   UNL     1      45.774   3.410  12.795  0.00  0.00    +0.000 A 
ATOM      4  C   UNL     1      45.199   3.298  11.528  0.00  0.00    +0.000 A 
ATOM      5  C   UNL     1      45.020   4.434  10.726  0.00  0.00    +0.000 A 
ATOM      6  C   UNL     1      45.451   5.673  11.215  0.00  0.00    +0.000 A 
ATOM      7  C   UNL     1      46.033   5.785  12.482  0.00  0.00    +0.000 A 
BRANCH   5   8
ATOM      8  C   UNL     1      44.461   4.346   9.327  0.00  0.00    +0.000 C 
BRANCH   8   9
ATOM      9  N   UNL     1      44.232   2.971   8.884  0.00  0.00    +0.000 NA
ATOM     10  H   UNL     1      43.278   2.898   8.527  0.00  0.00    +0.000 HD
BRANCH   9  11
ATOM     11  C   UNL     1      45.174   2.531   7.842  0.00  0.00    +0.000 C 
ATOM     12  C   UNL     1      45.963   1.324   8.369  0.00  0.00    +0.000 C 
ATOM     13  C   UNL     1      47.028   0.898   7.367  0.00  0.00    +0.000 C 
ATOM     14  O   UNL     1      47.898   1.982   7.050  0.00  0.00    +0.000 OA
ATOM     15  C   UNL     1      47.202   3.077   6.462  0.00  0.00    +0.000 C 
ATOM     16  C   UNL     1      46.158   3.631   7.417  0.00  0.00    +0.000 C 
ENDBRANCH   9  11
ENDBRANCH   8   9
ENDBRANCH   5   8
ENDBRANCH   1   2
BRANCH   1  19
ATOM     17  O   UNL     1      48.915   4.858  16.413  0.00  0.00    +0.000 OA
ATOM     18  C   UNL     1      48.582   5.879  15.802  0.00  0.00    +0.000 C 
ATOM     19  N   UNL     1      47.519   5.923  14.938  0.00  0.00    +0.000 N 
ATOM     20  H   UNL     1      47.449   6.684  14.278  0.00  0.00    +0.000 HD
BRANCH  18  21
ATOM     21  C   UNL     1      49.294   7.134  15.988  0.00  0.00    +0.000 A 
ATOM     22  C   UNL     1      49.425   7.733  17.232  0.00  0.00    +0.000 A 
ATOM     23  S   UNL     1      50.358   9.168  17.183  0.00  0.00    +0.000 S 
ATOM     24  C   UNL     1      50.609   9.016  15.507  0.00  0.00    +0.000 A 
ATOM     25  N   UNL     1      51.352   9.917  14.813  0.00  0.00    +0.000 NA
ATOM     26  C   UNL     1      51.469   9.656  13.555  0.00  0.00    +0.000 A 
ATOM     27  N   UNL     1      50.905   8.577  12.920  0.00  0.00    +0.000 N 
ATOM     28  C   UNL     1      50.095   7.685  13.558  0.00  0.00    +0.000 A 
ATOM     29  O   UNL     1      49.481   6.822  12.919  0.00  0.00    +0.000 OA
ATOM     30  C   UNL     1      49.969   7.907  14.984  0.00  0.00    +0.000 A 
ATOM     31  H   UNL     1      50.999   8.456  11.920  0.00  0.00    +0.000 HD
ENDBRANCH  18  21
ENDBRANCH   1  19
TORSDOF 6
ENDMDL
MODEL 7
REMARK VINA RESULT:    -7.022      2.611      3.492
REMARK INTER + INTRA:         -10.636
REMARK INTER:                  -9.601
REMARK INTRA:                  -1.035
REMARK UNBOUND:                -1.151
REMARK  Name = 
REMARK  6 active torsions:
REMARK  status: ('A' for Active; 'I' for Inactive)
REMARK    1  A    between atoms: C_2  and  C_19
REMARK    2  A    between atoms: N_3  and  C_4
REMARK    3  A    between atoms: C_4  and  C_5
REMARK    4  A    between atoms: C_8  and  C_9
REMARK    5  A    between atoms: C_9  and  N_10
REMARK    6  A    between atoms: N_10  and  C_11
REMARK                            x       y       z     vdW  Elec       q    Type
REMARK                         _______ _______ _______ _____ _____    ______ ____
ROOT
ATOM      1  C   UNL     1      46.902   5.809  14.125  0.00  0.00    +0.000 C 
ENDROOT
BRANCH   1   2
ATOM      2  C   UNL     1      46.269   5.187  12.912  0.00  0.00    +0.000 A 
ATOM      3  C   UNL     1      45.801   3.868  12.978  0.00  0.00    +0.000 A 
ATOM      4  C   UNL     1      45.148   3.282  11.892  0.00  0.00    +0.000 A 
ATOM      5  C   UNL     1      44.942   4.008  10.711  0.00  0.00    +0.000 A 
ATOM      6  C   UNL     1      45.426   5.320  10.638  0.00  0.00    +0.000 A 
ATOM      7  C   UNL     1      46.085   5.905  11.723  0.00  0.00    +0.000 A 
BRANCH   5   8
ATOM      8  C   UNL     1      44.298   3.391   9.493  0.00  0.00    +0.000 C 
BRANCH   8   9
ATOM      9  N   UNL     1      44.825   3.919   8.235  0.00  0.00    +0.000 NA
ATOM     10  H   UNL     1      45.448   4.700   8.444  0.00  0.00    +0.000 HD
BRANCH   9  11
ATOM     11  C   UNL     1      45.555   2.915   7.443  0.00  0.00    +0.000 C 
ATOM     12  C   UNL     1      45.966   1.762   8.369  0.00  0.00    +0.000 C 
ATOM     13  C   UNL     1      46.818   0.747   7.618  0.00  0.00    +0.000 C 
ATOM     14  O   UNL     1      47.960   1.368   7.032  0.00  0.00    +0.000 OA
ATOM     15  C   UNL     1      47.601   2.374   6.089  0.00  0.00    +0.000 C 
ATOM     16  C   UNL     1      46.805   3.483   6.757  0.00  0.00    +0.000 C 
ENDBRANCH   9  11
ENDBRANCH   8   9
ENDBRANCH   5   8
ENDBRANCH   1   2
BRANCH   1  19
ATOM     17  O   UNL     1      47.479   8.526  14.250  0.00  0.00    +0.000 OA
ATOM     18  C   UNL     1      48.387   7.733  13.979  0.00  0.00    +0.000 C 
ATOM     19  N   UNL     1      48.197   6.378  13.888  0.00  0.00    +0.000 N 
ATOM     20  H   UNL     1      48.997   5.764  13.926  0.00  0.00    +0.000 HD
BRANCH  18  21
ATOM     21  C   UNL     1      49.737   8.199  13.705  0.00  0.00    +0.000 A 
ATOM     22  C   UNL     1      50.026   9.051  12.649  0.00  0.00    +0.000 A 
ATOM     23  S   UNL     1      51.679   9.494  12.585  0.00  0.00    +0.000 S 
ATOM     24  C   UNL     1      52.040   8.565  13.965  0.00  0.00    +0.000 A 
ATOM     25  N   UNL     1      53.297   8.510  14.477  0.00  0.00    +0.000 NA
ATOM     26  C   UNL     1      53.410   7.781  15.536  0.00  0.00    +0.000 A 
ATOM     27  N   UNL     1      52.380   7.094  16.130  0.00  0.00    +0.000 N 
ATOM     28  C   UNL     1      51.118   7.063  15.616  0.00  0.00    +0.000 A 
ATOM     29  O   UNL     1      50.262   6.306  16.090  0.00  0.00    +0.000 OA
ATOM     30  C   UNL     1      50.927   7.903  14.451  0.00  0.00    +0.000 A 
ATOM     31  H   UNL     1      52.547   6.504  16.935  0.00  0.00    +0.000 HD
ENDBRANCH  18  21
ENDBRANCH   1  19
TORSDOF 6
ENDMDL
MODEL 8
REMARK VINA RESULT:    -6.980      2.583      3.730
REMARK INTER + INTRA:         -10.579
REMARK INTER:                  -9.421
REMARK INTRA:                  -1.159
REMARK UNBOUND:                -1.151
REMARK  Name = 
REMARK  6 active torsions:
REMARK  status: ('A' for Active; 'I' for Inactive)
REMARK    1  A    between atoms: C_2  and  C_19
REMARK    2  A    between atoms: N_3  and  C_4
REMARK    3  A    between atoms: C_4  and  C_5
REMARK    4  A    between atoms: C_8  and  C_9
REMARK    5  A    between atoms: C_9  and  N_10
REMARK    6  A    between atoms: N_10  and  C_11
REMARK                            x       y       z     vdW  Elec       q    Type
REMARK                         _______ _______ _______ _____ _____    ______ ____
ROOT
ATOM      1  C   UNL     1      47.569   4.380  15.442  0.00  0.00    +0.000 C 
ENDROOT
BRANCH   1   2
ATOM      2  C   UNL     1      46.955   4.717  14.111  0.00  0.00    +0.000 A 
ATOM      3  C   UNL     1      45.876   3.959  13.638  0.00  0.00    +0.000 A 
ATOM      4  C   UNL     1      45.240   4.285  12.438  0.00  0.00    +0.000 A 
ATOM      5  C   UNL     1      45.667   5.387  11.685  0.00  0.00    +0.000 A 
ATOM      6  C   UNL     1      46.756   6.134  12.149  0.00  0.00    +0.000 A 
ATOM      7  C   UNL     1      47.398   5.803  13.347  0.00  0.00    +0.000 A 
BRANCH   5   8
ATOM      8  C   UNL     1      45.048   5.735  10.353  0.00  0.00    +0.000 C 
BRANCH   8   9
ATOM      9  N   UNL     1      44.079   4.741   9.892  0.00  0.00    +0.000 NA
ATOM     10  H   UNL     1      43.253   5.228   9.541  0.00  0.00    +0.000 HD
BRANCH   9  11
ATOM     11  C   UNL     1      44.607   3.860   8.837  0.00  0.00    +0.000 C 
ATOM     12  C   UNL     1      44.907   2.484   9.449  0.00  0.00    +0.000 C 
ATOM     13  C   UNL     1      45.557   1.568   8.420  0.00  0.00    +0.000 C 
ATOM     14  O   UNL     1      46.736   2.159   7.879  0.00  0.00    +0.000 OA
ATOM     15  C   UNL     1      46.467   3.389   7.214  0.00  0.00    +0.000 C 
ATOM     16  C   UNL     1      45.880   4.408   8.177  0.00  0.00    +0.000 C 
ENDBRANCH   9  11
ENDBRANCH   8   9
ENDBRANCH   5   8
ENDBRANCH   1   2
BRANCH   1  19
ATOM     17  O   UNL     1      49.807   5.404  16.734  0.00  0.00    +0.000 OA
ATOM     18  C   UNL     1      48.699   5.896  16.974  0.00  0.00    +0.000 C 
ATOM     19  N   UNL     1      47.539   5.453  16.393  0.00  0.00    +0.000 N 
ATOM     20  H   UNL     1      46.719   6.041  16.416  0.00  0.00    +0.000 HD
BRANCH  18  21
ATOM     21  C   UNL     1      48.548   6.980  17.933  0.00  0.00    +0.000 A 
ATOM     22  C   UNL     1      48.597   6.768  19.303  0.00  0.00    +0.000 A 
ATOM     23  S   UNL     1      48.452   8.216  20.205  0.00  0.00    +0.000 S 
ATOM     24  C   UNL     1      48.328   9.152  18.789  0.00  0.00    +0.000 A 
ATOM     25  N   UNL     1      48.198  10.504  18.838  0.00  0.00    +0.000 NA
ATOM     26  C   UNL     1      48.136  11.076  17.683  0.00  0.00    +0.000 A 
ATOM     27  N   UNL     1      48.187  10.420  16.478  0.00  0.00    +0.000 N 
ATOM     28  C   UNL     1      48.248   9.062  16.377  0.00  0.00    +0.000 A 
ATOM     29  O   UNL     1      48.131   8.506  15.278  0.00  0.00    +0.000 OA
ATOM     30  C   UNL     1      48.366   8.374  17.647  0.00  0.00    +0.000 A 
ATOM     31  H   UNL     1      48.089  10.927  15.607  0.00  0.00    +0.000 HD
ENDBRANCH  18  21
ENDBRANCH   1  19
TORSDOF 6
ENDMDL
MODEL 9
REMARK VINA RESULT:    -6.851      2.489      3.137
REMARK INTER + INTRA:         -10.405
REMARK INTER:                  -9.393
REMARK INTRA:                  -1.012
REMARK UNBOUND:                -1.151
REMARK  Name = 
REMARK  6 active torsions:
REMARK  status: ('A' for Active; 'I' for Inactive)
REMARK    1  A    between atoms: C_2  and  C_19
REMARK    2  A    between atoms: N_3  and  C_4
REMARK    3  A    between atoms: C_4  and  C_5
REMARK    4  A    between atoms: C_8  and  C_9
REMARK    5  A    between atoms: C_9  and  N_10
REMARK    6  A    between atoms: N_10  and  C_11
REMARK                            x       y       z     vdW  Elec       q    Type
REMARK                         _______ _______ _______ _____ _____    ______ ____
ROOT
ATOM      1  C   UNL     1      48.647   7.144  15.163  0.00  0.00    +0.000 C 
ENDROOT
BRANCH   1   2
ATOM      2  C   UNL     1      47.727   6.401  14.233  0.00  0.00    +0.000 A 
ATOM      3  C   UNL     1      47.223   5.152  14.616  0.00  0.00    +0.000 A 
ATOM      4  C   UNL     1      46.315   4.465  13.807  0.00  0.00    +0.000 A 
ATOM      5  C   UNL     1      45.884   5.019  12.594  0.00  0.00    +0.000 A 
ATOM      6  C   UNL     1      46.402   6.260  12.203  0.00  0.00    +0.000 A 
ATOM      7  C   UNL     1      47.317   6.945  13.009  0.00  0.00    +0.000 A 
BRANCH   5   8
ATOM      8  C   UNL     1      44.954   4.281  11.662  0.00  0.00    +0.000 C 
BRANCH   8   9
ATOM      9  N   UNL     1      44.755   4.969  10.386  0.00  0.00    +0.000 NA
ATOM     10  H   UNL     1      45.433   5.728  10.315  0.00  0.00    +0.000 HD
BRANCH   9  11
ATOM     11  C   UNL     1      44.897   4.082   9.219  0.00  0.00    +0.000 C 
ATOM     12  C   UNL     1      45.129   2.648   9.717  0.00  0.00    +0.000 C 
ATOM     13  C   UNL     1      45.390   1.709   8.546  0.00  0.00    +0.000 C 
ATOM     14  O   UNL     1      46.486   2.164   7.756  0.00  0.00    +0.000 OA
ATOM     15  C   UNL     1      46.250   3.452   7.198  0.00  0.00    +0.000 C 
ATOM     16  C   UNL     1      46.050   4.489   8.291  0.00  0.00    +0.000 C 
ENDBRANCH   9  11
ENDBRANCH   8   9
ENDBRANCH   5   8
ENDBRANCH   1   2
BRANCH   1  19
ATOM     17  O   UNL     1      48.776   6.076  17.727  0.00  0.00    +0.000 OA
ATOM     18  C   UNL     1      49.709   5.867  16.943  0.00  0.00    +0.000 C 
ATOM     19  N   UNL     1      49.738   6.359  15.664  0.00  0.00    +0.000 N 
ATOM     20  H   UNL     1      50.375   5.954  14.993  0.00  0.00    +0.000 HD
BRANCH  18  21
ATOM     21  C   UNL     1      50.875   5.097  17.348  0.00  0.00    +0.000 A 
ATOM     22  C   UNL     1      52.032   5.698  17.819  0.00  0.00    +0.000 A 
ATOM     23  S   UNL     1      53.229   4.565  18.283  0.00  0.00    +0.000 S 
ATOM     24  C   UNL     1      52.226   3.252  17.871  0.00  0.00    +0.000 A 
ATOM     25  N   UNL     1      52.632   1.967  18.037  0.00  0.00    +0.000 NA
ATOM     26  C   UNL     1      51.754   1.082  17.700  0.00  0.00    +0.000 A 
ATOM     27  N   UNL     1      50.505   1.365  17.204  0.00  0.00    +0.000 N 
ATOM     28  C   UNL     1      50.078   2.635  16.955  0.00  0.00    +0.000 A 
ATOM     29  O   UNL     1      49.012   2.837  16.361  0.00  0.00    +0.000 OA
ATOM     30  C   UNL     1      51.010   3.668  17.361  0.00  0.00    +0.000 A 
ATOM     31  H   UNL     1      49.881   0.621  16.917  0.00  0.00    +0.000 HD
ENDBRANCH  18  21
ENDBRANCH   1  19
TORSDOF 6
ENDMDL
