MODEL 1
REMARK VINA RESULT:    -6.925      0.000      0.000
REMARK INTER + INTRA:          -9.128
REMARK INTER:                  -8.747
REMARK INTRA:                  -0.381
REMARK UNBOUND:                -0.381
REMARK  Name = 
REMARK  5 active torsions:
REMARK  status: ('A' for Active; 'I' for Inactive)
REMARK    1  A    between atoms: N_1  and  C_2
REMARK    2  A    between atoms: C_2  and  C_3
REMARK    3  A    between atoms: C_6  and  C_7
REMARK    4  A    between atoms: C_7  and  O_8
REMARK    5  A    between atoms: O_8  and  C_9
REMARK                            x       y       z     vdW  Elec       q    Type
REMARK                         _______ _______ _______ _____ _____    ______ ____
ROOT
ATOM      1  C   UNL     1      46.559   2.340   7.574  0.00  0.00    +0.000 A 
ATOM      2  C   UNL     1      46.405   3.725   7.548  0.00  0.00    +0.000 A 
ATOM      3  C   UNL     1      45.497   4.321   8.418  0.00  0.00    +0.000 A 
ATOM      4  C   UNL     1      44.765   3.528   9.302  0.00  0.00    +0.000 A 
ATOM      5  C   UNL     1      44.968   2.154   9.244  0.00  0.00    +0.000 A 
ATOM      6  N   UNL     1      45.849   1.547   8.416  0.00  0.00    +0.000 NA
ENDROOT
BRANCH   1   7
ATOM      7  C   UNL     1      47.536   1.660   6.639  0.00  0.00    +0.000 C 
BRANCH   7   8
ATOM      8  N   UNL     1      48.667   2.518   6.267  0.00  0.00    +0.000 NA
ATOM      9  H   UNL     1      48.923   3.078   7.077  0.00  0.00    +0.000 HD
ATOM     10  H   UNL     1      48.334   3.179   5.564  0.00  0.00    +0.000 HD
ENDBRANCH   7   8
ENDBRANCH   1   7
BRANCH   4  11
ATOM     11  C   UNL     1      43.782   4.120  10.273  0.00  0.00    +0.000 C 
BRANCH  11  12
ATOM     12  O   UNL     1      43.955   3.494  11.539  0.00  0.00    +0.000 OA
BRANCH  12  13
ATOM     13  C   UNL     1      44.934   4.125  12.276  0.00  0.00    +0.000 A 
ATOM     14  N   UNL     1      45.771   3.308  12.930  0.00  0.00    +0.000 NA
ATOM     15  C   UNL     1      46.732   3.907  13.655  0.00  0.00    +0.000 A 
ATOM     16  C   UNL     1      46.885   5.273  13.735  0.00  0.00    +0.000 A 
ATOM     17  C   UNL     1      45.982   6.013  13.010  0.00  0.00    +0.000 A 
ATOM     18  N   UNL     1      44.996   5.468  12.273  0.00  0.00    +0.000 NA
ENDBRANCH  12  13
ENDBRANCH  11  12
ENDBRANCH   4  11
TORSDOF 5
ENDMDL
MODEL 2
REMARK VINA RESULT:    -6.608      1.571      5.703
REMARK INTER + INTRA:          -8.728
REMARK INTER:                  -8.586
REMARK INTRA:                  -0.142
REMARK UNBOUND:                -0.381
REMARK  Name = 
REMARK  5 active torsions:
REMARK  status: ('A' for Active; 'I' for Inactive)
REMARK    1  A    between atoms: N_1  and  C_2
REMARK    2  A    between atoms: C_2  and  C_3
REMARK    3  A    between atoms: C_6  and  C_7
REMARK    4  A    between atoms: C_7  and  O_8
REMARK    5  A    between atoms: O_8  and  C_9
REMARK                            x       y       z     vdW  Elec       q    Type
REMARK                         _______ _______ _______ _____ _____    ______ ____
ROOT
ATOM      1  C   UNL     1      46.264   4.600  13.297  0.00  0.00    +0.000 A 
ATOM      2  C   UNL     1      46.250   5.662  12.395  0.00  0.00    +0.000 A 
ATOM      3  C   UNL     1      45.583   5.511  11.182  0.00  0.00    +0.000 A 
ATOM      4  C   UNL     1      44.938   4.308  10.894  0.00  0.00    +0.000 A 
ATOM      5  C   UNL     1      45.021   3.296  11.844  0.00  0.00    +0.000 A 
ATOM      6  N   UNL     1      45.652   3.417  13.034  0.00  0.00    +0.000 NA
ENDROOT
BRANCH   1   7
ATOM      7  C   UNL     1      46.982   4.730  14.623  0.00  0.00    +0.000 C 
BRANCH   7   8
ATOM      8  N   UNL     1      47.432   3.441  15.161  0.00  0.00    +0.000 NA
ATOM      9  H   UNL     1      46.930   2.700  14.678  0.00  0.00    +0.000 HD
ATOM     10  H   UNL     1      47.132   3.392  16.136  0.00  0.00    +0.000 HD
ENDBRANCH   7   8
ENDBRANCH   1   7
BRANCH   4  11
ATOM     11  C   UNL     1      44.190   4.096   9.608  0.00  0.00    +0.000 C 
BRANCH  11  12
ATOM     12  O   UNL     1      44.997   4.552   8.528  0.00  0.00    +0.000 OA
BRANCH  12  13
ATOM     13  C   UNL     1      45.730   3.520   7.985  0.00  0.00    +0.000 A 
ATOM     14  N   UNL     1      46.509   3.857   6.948  0.00  0.00    +0.000 NA
ATOM     15  C   UNL     1      47.231   2.862   6.404  0.00  0.00    +0.000 A 
ATOM     16  C   UNL     1      47.207   1.565   6.866  0.00  0.00    +0.000 A 
ATOM     17  C   UNL     1      46.387   1.336   7.945  0.00  0.00    +0.000 A 
ATOM     18  N   UNL     1      45.637   2.292   8.524  0.00  0.00    +0.000 NA
ENDBRANCH  12  13
ENDBRANCH  11  12
ENDBRANCH   4  11
TORSDOF 5
ENDMDL
MODEL 3
REMARK VINA RESULT:    -6.093      1.764      5.847
REMARK INTER + INTRA:          -8.076
REMARK INTER:                  -7.864
REMARK INTRA:                  -0.212
REMARK UNBOUND:                -0.381
REMARK  Name = 
REMARK  5 active torsions:
REMARK  status: ('A' for Active; 'I' for Inactive)
REMARK    1  A    between atoms: N_1  and  C_2
REMARK    2  A    between atoms: C_2  and  C_3
REMARK    3  A    between atoms: C_6  and  C_7
REMARK    4  A    between atoms: C_7  and  O_8
REMARK    5  A    between atoms: O_8  and  C_9
REMARK                            x       y       z     vdW  Elec       q    Type
REMARK                         _______ _______ _______ _____ _____    ______ ____
ROOT
ATOM      1  C   UNL     1      46.403   6.524  12.760  0.00  0.00    +0.000 A 
ATOM      2  C   UNL     1      46.235   6.727  11.391  0.00  0.00    +0.000 A 
ATOM      3  C   UNL     1      45.539   5.778  10.647  0.00  0.00    +0.000 A 
ATOM      4  C   UNL     1      45.019   4.649  11.281  0.00  0.00    +0.000 A 
ATOM      5  C   UNL     1      45.252   4.519  12.645  0.00  0.00    +0.000 A 
ATOM      6  N   UNL     1      45.916   5.428  13.396  0.00  0.00    +0.000 NA
ENDROOT
BRANCH   1   7
ATOM      7  C   UNL     1      47.157   7.535  13.597  0.00  0.00    +0.000 C 
BRANCH   7   8
ATOM      8  N   UNL     1      46.447   8.812  13.732  0.00  0.00    +0.000 NA
ATOM      9  H   UNL     1      46.500   9.304  12.843  0.00  0.00    +0.000 HD
ATOM     10  H   UNL     1      46.965   9.384  14.400  0.00  0.00    +0.000 HD
ENDBRANCH   7   8
ENDBRANCH   1   7
BRANCH   4  11
ATOM     11  C   UNL     1      44.246   3.601  10.530  0.00  0.00    +0.000 C 
BRANCH  11  12
ATOM     12  O   UNL     1      44.237   3.942   9.149  0.00  0.00    +0.000 OA
BRANCH  12  13
ATOM     13  C   UNL     1      45.196   3.235   8.456  0.00  0.00    +0.000 A 
ATOM     14  N   UNL     1      45.866   3.937   7.532  0.00  0.00    +0.000 NA
ATOM     15  C   UNL     1      46.805   3.262   6.846  0.00  0.00    +0.000 A 
ATOM     16  C   UNL     1      47.096   1.934   7.060  0.00  0.00    +0.000 A 
ATOM     17  C   UNL     1      46.360   1.317   8.043  0.00  0.00    +0.000 A 
ATOM     18  N   UNL     1      45.403   1.941   8.756  0.00  0.00    +0.000 NA
ENDBRANCH  12  13
ENDBRANCH  11  12
ENDBRANCH   4  11
TORSDOF 5
ENDMDL
MODEL 4
REMARK VINA RESULT:    -5.422      2.893      4.250
REMARK INTER + INTRA:          -7.229
REMARK INTER:                  -6.985
REMARK INTRA:                  -0.244
REMARK UNBOUND:                -0.381
REMARK  Name = 
REMARK  5 active torsions:
REMARK  status: ('A' for Active; 'I' for Inactive)
REMARK    1  A    between atoms: N_1  and  C_2
REMARK    2  A    between atoms: C_2  and  C_3
REMARK    3  A    between atoms: C_6  and  C_7
REMARK    4  A    between atoms: C_7  and  O_8
REMARK    5  A    between atoms: O_8  and  C_9
REMARK                            x       y       z     vdW  Elec       q    Type
REMARK                         _______ _______ _______ _____ _____    ______ ____
ROOT
ATOM      1  C   UNL     1      44.962   4.238  10.018  0.00  0.00    +0.000 A 
ATOM      2  C   UNL     1      44.699   3.274  10.989  0.00  0.00    +0.000 A 
ATOM      3  C   UNL     1      45.111   3.504  12.299  0.00  0.00    +0.000 A 
ATOM      4  C   UNL     1      45.770   4.692  12.617  0.00  0.00    +0.000 A 
ATOM      5  C   UNL     1      46.007   5.587  11.580  0.00  0.00    +0.000 A 
ATOM      6  N   UNL     1      45.610   5.396  10.301  0.00  0.00    +0.000 NA
ENDROOT
BRANCH   1   7
ATOM      7  C   UNL     1      44.529   4.017   8.583  0.00  0.00    +0.000 C 
BRANCH   7   8
ATOM      8  N   UNL     1      45.649   4.048   7.635  0.00  0.00    +0.000 NA
ATOM      9  H   UNL     1      45.317   3.706   6.736  0.00  0.00    +0.000 HD
ATOM     10  H   UNL     1      46.342   3.370   7.954  0.00  0.00    +0.000 HD
ENDBRANCH   7   8
ENDBRANCH   1   7
BRANCH   4  11
ATOM     11  C   UNL     1      46.222   4.999  14.017  0.00  0.00    +0.000 C 
BRANCH  11  12
ATOM     12  O   UNL     1      46.785   3.822  14.585  0.00  0.00    +0.000 OA
BRANCH  12  13
ATOM     13  C   UNL     1      47.429   4.102  15.771  0.00  0.00    +0.000 A 
ATOM     14  N   UNL     1      47.153   3.266  16.781  0.00  0.00    +0.000 NA
ATOM     15  C   UNL     1      47.772   3.524  17.946  0.00  0.00    +0.000 A 
ATOM     16  C   UNL     1      48.652   4.568  18.125  0.00  0.00    +0.000 A 
ATOM     17  C   UNL     1      48.874   5.350  17.017  0.00  0.00    +0.000 A 
ATOM     18  N   UNL     1      48.277   5.143  15.829  0.00  0.00    +0.000 NA
ENDBRANCH  12  13
ENDBRANCH  11  12
ENDBRANCH   4  11
TORSDOF 5
ENDMDL
MODEL 5
REMARK VINA RESULT:    -5.155      4.827      8.166
REMARK INTER + INTRA:          -6.892
REMARK INTER:                  -6.586
REMARK INTRA:                  -0.306
REMARK UNBOUND:                -0.381
REMARK  Name = 
REMARK  5 active torsions:
REMARK  status: ('A' for Active; 'I' for Inactive)
REMARK    1  A    between atoms: N_1  and  C_2
REMARK    2  A    between atoms: C_2  and  C_3
REMARK    3  A    between atoms: C_6  and  C_7
REMARK    4  A    between atoms: C_7  and  O_8
REMARK    5  A    between atoms: O_8  and  C_9
REMARK                            x       y       z     vdW  Elec       q    Type
REMARK                         _______ _______ _______ _____ _____    ______ ____
ROOT
ATOM      1  C   UNL     1      51.391   3.122  17.846  0.00  0.00    +0.000 A 
ATOM      2  C   UNL     1      50.758   1.985  17.348  0.00  0.00    +0.000 A 
ATOM      3  C   UNL     1      49.483   2.105  16.803  0.00  0.00    +0.000 A 
ATOM      4  C   UNL     1      48.865   3.355  16.759  0.00  0.00    +0.000 A 
ATOM      5  C   UNL     1      49.563   4.430  17.298  0.00  0.00    +0.000 A 
ATOM      6  N   UNL     1      50.806   4.347  17.825  0.00  0.00    +0.000 NA
ENDROOT
BRANCH   1   7
ATOM      7  C   UNL     1      52.777   3.026  18.448  0.00  0.00    +0.000 C 
BRANCH   7   8
ATOM      8  N   UNL     1      53.174   1.648  18.757  0.00  0.00    +0.000 NA
ATOM      9  H   UNL     1      54.112   1.666  19.152  0.00  0.00    +0.000 HD
ATOM     10  H   UNL     1      53.253   1.144  17.873  0.00  0.00    +0.000 HD
ENDBRANCH   7   8
ENDBRANCH   1   7
BRANCH   4  11
ATOM     11  C   UNL     1      47.496   3.544  16.169  0.00  0.00    +0.000 C 
BRANCH  11  12
ATOM     12  O   UNL     1      47.505   3.066  14.829  0.00  0.00    +0.000 OA
BRANCH  12  13
ATOM     13  C   UNL     1      46.994   4.008  13.962  0.00  0.00    +0.000 A 
ATOM     14  N   UNL     1      45.790   3.719  13.450  0.00  0.00    +0.000 NA
ATOM     15  C   UNL     1      45.277   4.627  12.601  0.00  0.00    +0.000 A 
ATOM     16  C   UNL     1      45.916   5.799  12.265  0.00  0.00    +0.000 A 
ATOM     17  C   UNL     1      47.136   6.001  12.863  0.00  0.00    +0.000 A 
ATOM     18  N   UNL     1      47.701   5.124  13.713  0.00  0.00    +0.000 NA
ENDBRANCH  12  13
ENDBRANCH  11  12
ENDBRANCH   4  11
TORSDOF 5
ENDMDL
MODEL 6
REMARK VINA RESULT:    -5.144      3.052      5.873
REMARK INTER + INTRA:          -6.878
REMARK INTER:                  -6.547
REMARK INTRA:                  -0.331
REMARK UNBOUND:                -0.381
REMARK  Name = 
REMARK  5 active torsions:
REMARK  status: ('A' for Active; 'I' for Inactive)
REMARK    1  A    between atoms: N_1  and  C_2
REMARK    2  A    between atoms: C_2  and  C_3
REMARK    3  A    between atoms: C_6  and  C_7
REMARK    4  A    between atoms: C_7  and  O_8
REMARK    5  A    between atoms: O_8  and  C_9
REMARK                            x       y       z     vdW  Elec       q    Type
REMARK                         _______ _______ _______ _____ _____    ______ ____
ROOT
ATOM      1  C   UNL     1      49.219   7.434  12.976  0.00  0.00    +0.000 A 
ATOM      2  C   UNL     1      48.544   7.809  11.816  0.00  0.00    +0.000 A 
ATOM      3  C   UNL     1      47.355   7.164  11.487  0.00  0.00    +0.000 A 
ATOM      4  C   UNL     1      46.858   6.163  12.322  0.00  0.00    +0.000 A 
ATOM      5  C   UNL     1      47.608   5.841  13.447  0.00  0.00    +0.000 A 
ATOM      6  N   UNL     1      48.761   6.455  13.798  0.00  0.00    +0.000 NA
ENDROOT
BRANCH   1   7
ATOM      7  C   UNL     1      50.516   8.113  13.362  0.00  0.00    +0.000 C 
BRANCH   7   8
ATOM      8  N   UNL     1      51.564   7.968  12.344  0.00  0.00    +0.000 NA
ATOM      9  H   UNL     1      51.572   8.809  11.771  0.00  0.00    +0.000 HD
ATOM     10  H   UNL     1      51.287   7.209  11.722  0.00  0.00    +0.000 HD
ENDBRANCH   7   8
ENDBRANCH   1   7
BRANCH   4  11
ATOM     11  C   UNL     1      45.572   5.445  12.023  0.00  0.00    +0.000 C 
BRANCH  11  12
ATOM     12  O   UNL     1      45.146   5.795  10.712  0.00  0.00    +0.000 OA
BRANCH  12  13
ATOM     13  C   UNL     1      45.199   4.709   9.866  0.00  0.00    +0.000 A 
ATOM     14  N   UNL     1      44.659   3.582  10.349  0.00  0.00    +0.000 NA
ATOM     15  C   UNL     1      44.703   2.511   9.536  0.00  0.00    +0.000 A 
ATOM     16  C   UNL     1      45.250   2.538   8.273  0.00  0.00    +0.000 A 
ATOM     17  C   UNL     1      45.758   3.750   7.873  0.00  0.00    +0.000 A 
ATOM     18  N   UNL     1      45.748   4.851   8.647  0.00  0.00    +0.000 NA
ENDBRANCH  12  13
ENDBRANCH  11  12
ENDBRANCH   4  11
TORSDOF 5
ENDMDL
MODEL 7
REMARK VINA RESULT:    -5.131      2.238      5.946
REMARK INTER + INTRA:          -6.862
REMARK INTER:                  -6.505
REMARK INTRA:                  -0.357
REMARK UNBOUND:                -0.381
REMARK  Name = 
REMARK  5 active torsions:
REMARK  status: ('A' for Active; 'I' for Inactive)
REMARK    1  A    between atoms: N_1  and  C_2
REMARK    2  A    between atoms: C_2  and  C_3
REMARK    3  A    between atoms: C_6  and  C_7
REMARK    4  A    between atoms: C_7  and  O_8
REMARK    5  A    between atoms: O_8  and  C_9
REMARK                            x       y       z     vdW  Elec       q    Type
REMARK                         _______ _______ _______ _____ _____    ______ ____
ROOT
ATOM      1  C   UNL     1      47.801   7.031  13.261  0.00  0.00    +0.000 A 
ATOM      2  C   UNL     1      47.528   5.795  13.845  0.00  0.00    +0.000 A 
ATOM      3  C   UNL     1      46.527   4.996  13.299  0.00  0.00    +0.000 A 
ATOM      4  C   UNL     1      45.823   5.440  12.180  0.00  0.00    +0.000 A 
ATOM      5  C   UNL     1      46.148   6.694  11.677  0.00  0.00    +0.000 A 
ATOM      6  N   UNL     1      47.121   7.489  12.179  0.00  0.00    +0.000 NA
ENDROOT
BRANCH   1   7
ATOM      7  C   UNL     1      48.881   7.926  13.831  0.00  0.00    +0.000 C 
BRANCH   7   8
ATOM      8  N   UNL     1      49.664   8.612  12.796  0.00  0.00    +0.000 NA
ATOM      9  H   UNL     1      50.437   8.007  12.526  0.00  0.00    +0.000 HD
ATOM     10  H   UNL     1      50.089   9.434  13.225  0.00  0.00    +0.000 HD
ENDBRANCH   7   8
ENDBRANCH   1   7
BRANCH   4  11
ATOM     11  C   UNL     1      44.743   4.611  11.542  0.00  0.00    +0.000 C 
BRANCH  11  12
ATOM     12  O   UNL     1      44.587   5.025  10.190  0.00  0.00    +0.000 OA
BRANCH  12  13
ATOM     13  C   UNL     1      45.162   4.121   9.323  0.00  0.00    +0.000 A 
ATOM     14  N   UNL     1      45.866   4.661   8.319  0.00  0.00    +0.000 NA
ATOM     15  C   UNL     1      46.433   3.792   7.463  0.00  0.00    +0.000 A 
ATOM     16  C   UNL     1      46.329   2.425   7.587  0.00  0.00    +0.000 A 
ATOM     17  C   UNL     1      45.599   1.982   8.663  0.00  0.00    +0.000 A 
ATOM     18  N   UNL     1      45.003   2.805   9.546  0.00  0.00    +0.000 NA
ENDBRANCH  12  13
ENDBRANCH  11  12
ENDBRANCH   4  11
TORSDOF 5
ENDMDL
MODEL 8
REMARK VINA RESULT:    -4.930      3.601      5.391
REMARK INTER + INTRA:          -6.608
REMARK INTER:                  -6.336
REMARK INTRA:                  -0.271
REMARK UNBOUND:                -0.381
REMARK  Name = 
REMARK  5 active torsions:
REMARK  status: ('A' for Active; 'I' for Inactive)
REMARK    1  A    between atoms: N_1  and  C_2
REMARK    2  A    between atoms: C_2  and  C_3
REMARK    3  A    between atoms: C_6  and  C_7
REMARK    4  A    between atoms: C_7  and  O_8
REMARK    5  A    between atoms: O_8  and  C_9
REMARK                            x       y       z     vdW  Elec       q    Type
REMARK                         _______ _______ _______ _____ _____    ______ ____
ROOT
ATOM      1  C   UNL     1      44.815   3.851  11.505  0.00  0.00    +0.000 A 
ATOM      2  C   UNL     1      45.144   5.093  10.964  0.00  0.00    +0.000 A 
ATOM      3  C   UNL     1      46.042   5.911  11.645  0.00  0.00    +0.000 A 
ATOM      4  C   UNL     1      46.599   5.474  12.847  0.00  0.00    +0.000 A 
ATOM      5  C   UNL     1      46.198   4.230  13.321  0.00  0.00    +0.000 A 
ATOM      6  N   UNL     1      45.336   3.410  12.678  0.00  0.00    +0.000 NA
ENDROOT
BRANCH   1   7
ATOM      7  C   UNL     1      43.840   2.939  10.791  0.00  0.00    +0.000 C 
BRANCH   7   8
ATOM      8  N   UNL     1      43.049   2.113  11.711  0.00  0.00    +0.000 NA
ATOM      9  H   UNL     1      42.088   2.446  11.693  0.00  0.00    +0.000 HD
ATOM     10  H   UNL     1      43.390   2.291  12.656  0.00  0.00    +0.000 HD
ENDBRANCH   7   8
ENDBRANCH   1   7
BRANCH   4  11
ATOM     11  C   UNL     1      47.585   6.309  13.615  0.00  0.00    +0.000 C 
BRANCH  11  12
ATOM     12  O   UNL     1      48.833   6.288  12.934  0.00  0.00    +0.000 OA
BRANCH  12  13
ATOM     13  C   UNL     1      49.162   7.539  12.459  0.00  0.00    +0.000 A 
ATOM     14  N   UNL     1      50.328   7.612  11.804  0.00  0.00    +0.000 NA
ATOM     15  C   UNL     1      50.665   8.827  11.334  0.00  0.00    +0.000 A 
ATOM     16  C   UNL     1      49.880   9.947  11.489  0.00  0.00    +0.000 A 
ATOM     17  C   UNL     1      48.697   9.752  12.162  0.00  0.00    +0.000 A 
ATOM     18  N   UNL     1      48.313   8.562  12.659  0.00  0.00    +0.000 NA
ENDBRANCH  12  13
ENDBRANCH  11  12
ENDBRANCH   4  11
TORSDOF 5
ENDMDL
MODEL 9
REMARK VINA RESULT:    -4.861      3.527      5.642
REMARK INTER + INTRA:          -6.521
REMARK INTER:                  -6.214
REMARK INTRA:                  -0.307
REMARK UNBOUND:                -0.381
REMARK  Name = 
REMARK  5 active torsions:
REMARK  status: ('A' for Active; 'I' for Inactive)
REMARK    1  A    between atoms: N_1  and  C_2
REMARK    2  A    between atoms: C_2  and  C_3
REMARK    3  A    between atoms: C_6  and  C_7
REMARK    4  A    between atoms: C_7  and  O_8
REMARK    5  A    between atoms: O_8  and  C_9
REMARK                            x       y       z     vdW  Elec       q    Type
REMARK                         _______ _______ _______ _____ _____    ______ ____
ROOT
ATOM      1  C   UNL     1      45.274   4.733  11.691  0.00  0.00    +0.000 A 
ATOM      2  C   UNL     1      45.978   5.935  11.662  0.00  0.00    +0.000 A 
ATOM      3  C   UNL     1      46.823   6.250  12.722  0.00  0.00    +0.000 A 
ATOM      4  C   UNL     1      46.956   5.359  13.787  0.00  0.00    +0.000 A 
ATOM      5  C   UNL     1      46.200   4.193  13.742  0.00  0.00    +0.000 A 
ATOM      6  N   UNL     1      45.378   3.855  12.721  0.00  0.00    +0.000 NA
ENDROOT
BRANCH   1   7
ATOM      7  C   UNL     1      44.344   4.361  10.555  0.00  0.00    +0.000 C 
BRANCH   7   8
ATOM      8  N   UNL     1      43.336   5.392  10.278  0.00  0.00    +0.000 NA
ATOM      9  H   UNL     1      43.377   6.087  11.021  0.00  0.00    +0.000 HD
ATOM     10  H   UNL     1      42.418   4.953  10.355  0.00  0.00    +0.000 HD
ENDBRANCH   7   8
ENDBRANCH   1   7
BRANCH   4  11
ATOM     11  C   UNL     1      47.865   5.641  14.950  0.00  0.00    +0.000 C 
BRANCH  11  12
ATOM     12  O   UNL     1      47.515   4.779  16.026  0.00  0.00    +0.000 OA
BRANCH  12  13
ATOM     13  C   UNL     1      48.623   4.127  16.522  0.00  0.00    +0.000 A 
ATOM     14  N   UNL     1      48.618   2.796  16.368  0.00  0.00    +0.000 NA
ATOM     15  C   UNL     1      49.692   2.144  16.848  0.00  0.00    +0.000 A 
ATOM     16  C   UNL     1      50.755   2.773  17.455  0.00  0.00    +0.000 A 
ATOM     17  C   UNL     1      50.663   4.141  17.543  0.00  0.00    +0.000 A 
ATOM     18  N   UNL     1      49.609   4.844  17.088  0.00  0.00    +0.000 NA
ENDBRANCH  12  13
ENDBRANCH  11  12
ENDBRANCH   4  11
TORSDOF 5
ENDMDL
