MODEL 1
REMARK VINA RESULT:    -8.130      0.000      0.000
REMARK INTER + INTRA:         -10.277
REMARK INTER:                 -10.031
REMARK INTRA:                  -0.246
REMARK UNBOUND:                -0.246
REMARK  Name = 
REMARK  5 active torsions:
REMARK  status: ('A' for Active; 'I' for Inactive)
REMARK    1  A    between atoms: C_1  and  C_2
REMARK    2  A    between atoms: C_2  and  C_3
REMARK    3  A    between atoms: C_2  and  C_14
REMARK    4  A    between atoms: C_3  and  N_4
REMARK    5  A    between atoms: C_8  and  C_9
REMARK                            x       y       z     vdW  Elec       q    Type
REMARK                         _______ _______ _______ _____ _____    ______ ____
ROOT
ATOM      1  N   UNL     1      43.837   4.687   9.794  0.00  0.00    +0.000 N 
ATOM      2  C   UNL     1      44.775   3.998   9.037  0.00  0.00    +0.000 A 
ATOM      3  N   UNL     1      44.811   2.657   9.106  0.00  0.00    +0.000 NA
ATOM      4  C   UNL     1      45.744   2.009   8.385  0.00  0.00    +0.000 A 
ATOM      5  C   UNL     1      46.636   2.645   7.561  0.00  0.00    +0.000 A 
ATOM      6  C   UNL     1      46.542   4.018   7.555  0.00  0.00    +0.000 A 
ATOM      7  N   UNL     1      45.623   4.711   8.276  0.00  0.00    +0.000 NA
ATOM      8  H   UNL     1      44.205   5.613   9.953  0.00  0.00    +0.000 HD
ENDROOT
BRANCH   5   9
ATOM      9  C   UNL     1      47.620   1.846   6.816  0.00  0.00    +0.000 C 
ATOM     10  N   UNL     1      48.725   2.485   6.326  0.00  0.00    +0.000 N 
ATOM     11  O   UNL     1      47.434   0.657   6.607  0.00  0.00    +0.000 OA
ATOM     12  H   UNL     1      48.865   3.484   6.333  0.00  0.00    +0.000 HD
ATOM     13  H   UNL     1      49.337   1.928   5.740  0.00  0.00    +0.000 HD
ENDBRANCH   5   9
BRANCH   1  14
ATOM     14  C   UNL     1      43.438   3.937  10.972  0.00  0.00    +0.000 C 
BRANCH  14  16
ATOM     15  C   UNL     1      42.903   5.203  13.155  0.00  0.00    +0.000 C 
ATOM     16  C   UNL     1      43.916   4.634  12.212  0.00  0.00    +0.000 C 
BRANCH  16  17
ATOM     17  C   UNL     1      45.357   5.079  12.285  0.00  0.00    +0.000 C 
ATOM     18  C   UNL     1      45.992   4.884  13.677  0.00  0.00    +0.000 C 
ATOM     19  C   UNL     1      47.431   5.396  13.710  0.00  0.00    +0.000 C 
ATOM     20  C   UNL     1      47.503   6.856  13.273  0.00  0.00    +0.000 C 
ATOM     21  C   UNL     1      46.895   7.052  11.890  0.00  0.00    +0.000 C 
ATOM     22  C   UNL     1      45.462   6.539  11.830  0.00  0.00    +0.000 C 
ENDBRANCH  16  17
ENDBRANCH  14  16
ENDBRANCH   1  14
TORSDOF 4
ENDMDL
MODEL 2
REMARK VINA RESULT:    -7.949      1.298      1.721
REMARK INTER + INTRA:         -10.054
REMARK INTER:                  -9.649
REMARK INTRA:                  -0.406
REMARK UNBOUND:                -0.246
REMARK  Name = 
REMARK  5 active torsions:
REMARK  status: ('A' for Active; 'I' for Inactive)
REMARK    1  A    between atoms: C_1  and  C_2
REMARK    2  A    between atoms: C_2  and  C_3
REMARK    3  A    between atoms: C_2  and  C_14
REMARK    4  A    between atoms: C_3  and  N_4
REMARK    5  A    between atoms: C_8  and  C_9
REMARK                            x       y       z     vdW  Elec       q    Type
REMARK                         _______ _______ _______ _____ _____    ______ ____
ROOT
ATOM      1  N   UNL     1      44.158   5.098   9.684  0.00  0.00    +0.000 N 
ATOM      2  C   UNL     1      44.884   4.096   9.053  0.00  0.00    +0.000 A 
ATOM      3  N   UNL     1      44.811   2.841   9.527  0.00  0.00    +0.000 NA
ATOM      4  C   UNL     1      45.541   1.889   8.919  0.00  0.00    +0.000 A 
ATOM      5  C   UNL     1      46.328   2.130   7.822  0.00  0.00    +0.000 A 
ATOM      6  C   UNL     1      46.357   3.441   7.406  0.00  0.00    +0.000 A 
ATOM      7  N   UNL     1      45.645   4.433   7.999  0.00  0.00    +0.000 NA
ATOM      8  H   UNL     1      44.630   5.970   9.497  0.00  0.00    +0.000 HD
ENDROOT
BRANCH   5   9
ATOM      9  C   UNL     1      47.091   1.021   7.230  0.00  0.00    +0.000 C 
ATOM     10  N   UNL     1      46.790  -0.251   7.631  0.00  0.00    +0.000 N 
ATOM     11  O   UNL     1      47.994   1.234   6.435  0.00  0.00    +0.000 OA
ATOM     12  H   UNL     1      46.164  -0.485   8.387  0.00  0.00    +0.000 HD
ATOM     13  H   UNL     1      47.393  -0.984   7.276  0.00  0.00    +0.000 HD
ENDBRANCH   5   9
BRANCH   1  14
ATOM     14  C   UNL     1      43.907   4.785  11.080  0.00  0.00    +0.000 C 
BRANCH  14  16
ATOM     15  C   UNL     1      45.363   4.364  13.168  0.00  0.00    +0.000 C 
ATOM     16  C   UNL     1      45.107   5.134  11.910  0.00  0.00    +0.000 C 
BRANCH  16  17
ATOM     17  C   UNL     1      45.789   6.460  11.679  0.00  0.00    +0.000 C 
ATOM     18  C   UNL     1      47.256   6.491  12.154  0.00  0.00    +0.000 C 
ATOM     19  C   UNL     1      47.882   7.869  11.945  0.00  0.00    +0.000 C 
ATOM     20  C   UNL     1      47.059   8.954  12.631  0.00  0.00    +0.000 C 
ATOM     21  C   UNL     1      45.614   8.943  12.151  0.00  0.00    +0.000 C 
ATOM     22  C   UNL     1      44.971   7.575  12.341  0.00  0.00    +0.000 C 
ENDBRANCH  16  17
ENDBRANCH  14  16
ENDBRANCH   1  14
TORSDOF 4
ENDMDL
MODEL 3
REMARK VINA RESULT:    -6.976      3.224      6.438
REMARK INTER + INTRA:          -8.853
REMARK INTER:                  -8.417
REMARK INTRA:                  -0.436
REMARK UNBOUND:                -0.246
REMARK  Name = 
REMARK  5 active torsions:
REMARK  status: ('A' for Active; 'I' for Inactive)
REMARK    1  A    between atoms: C_1  and  C_2
REMARK    2  A    between atoms: C_2  and  C_3
REMARK    3  A    between atoms: C_2  and  C_14
REMARK    4  A    between atoms: C_3  and  N_4
REMARK    5  A    between atoms: C_8  and  C_9
REMARK                            x       y       z     vdW  Elec       q    Type
REMARK                         _______ _______ _______ _____ _____    ______ ____
ROOT
ATOM      1  N   UNL     1      44.443   3.033  11.498  0.00  0.00    +0.000 N 
ATOM      2  C   UNL     1      45.344   3.828  12.194  0.00  0.00    +0.000 A 
ATOM      3  N   UNL     1      45.484   5.117  11.840  0.00  0.00    +0.000 NA
ATOM      4  C   UNL     1      46.381   5.864  12.508  0.00  0.00    +0.000 A 
ATOM      5  C   UNL     1      47.132   5.387  13.551  0.00  0.00    +0.000 A 
ATOM      6  C   UNL     1      46.938   4.057  13.844  0.00  0.00    +0.000 A 
ATOM      7  N   UNL     1      46.052   3.264  13.186  0.00  0.00    +0.000 NA
ATOM      8  H   UNL     1      44.757   2.079  11.589  0.00  0.00    +0.000 HD
ENDROOT
BRANCH   5   9
ATOM      9  C   UNL     1      48.088   6.284  14.216  0.00  0.00    +0.000 C 
ATOM     10  N   UNL     1      48.100   6.309  15.583  0.00  0.00    +0.000 N 
ATOM     11  O   UNL     1      48.820   7.015  13.566  0.00  0.00    +0.000 OA
ATOM     12  H   UNL     1      47.426   5.847  16.175  0.00  0.00    +0.000 HD
ATOM     13  H   UNL     1      48.704   7.003  16.010  0.00  0.00    +0.000 HD
ENDBRANCH   5   9
BRANCH   1  14
ATOM     14  C   UNL     1      44.226   3.518  10.146  0.00  0.00    +0.000 C 
BRANCH  14  16
ATOM     15  C   UNL     1      43.971   1.109   9.260  0.00  0.00    +0.000 C 
ATOM     16  C   UNL     1      44.607   2.460   9.153  0.00  0.00    +0.000 C 
BRANCH  16  17
ATOM     17  C   UNL     1      45.864   2.645   8.339  0.00  0.00    +0.000 C 
ATOM     18  C   UNL     1      45.670   3.543   7.100  0.00  0.00    +0.000 C 
ATOM     19  C   UNL     1      46.958   3.656   6.286  0.00  0.00    +0.000 C 
ATOM     20  C   UNL     1      47.478   2.278   5.890  0.00  0.00    +0.000 C 
ATOM     21  C   UNL     1      47.691   1.392   7.111  0.00  0.00    +0.000 C 
ATOM     22  C   UNL     1      46.422   1.273   7.945  0.00  0.00    +0.000 C 
ENDBRANCH  16  17
ENDBRANCH  14  16
ENDBRANCH   1  14
TORSDOF 4
ENDMDL
MODEL 4
REMARK VINA RESULT:    -6.953      3.172      5.840
REMARK INTER + INTRA:          -8.825
REMARK INTER:                  -8.250
REMARK INTRA:                  -0.575
REMARK UNBOUND:                -0.246
REMARK  Name = 
REMARK  5 active torsions:
REMARK  status: ('A' for Active; 'I' for Inactive)
REMARK    1  A    between atoms: C_1  and  C_2
REMARK    2  A    between atoms: C_2  and  C_3
REMARK    3  A    between atoms: C_2  and  C_14
REMARK    4  A    between atoms: C_3  and  N_4
REMARK    5  A    between atoms: C_8  and  C_9
REMARK                            x       y       z     vdW  Elec       q    Type
REMARK                         _______ _______ _______ _____ _____    ______ ____
ROOT
ATOM      1  N   UNL     1      44.154   4.990  12.592  0.00  0.00    +0.000 N 
ATOM      2  C   UNL     1      45.417   5.565  12.643  0.00  0.00    +0.000 A 
ATOM      3  N   UNL     1      45.806   6.374  11.644  0.00  0.00    +0.000 NA
ATOM      4  C   UNL     1      47.044   6.900  11.699  0.00  0.00    +0.000 A 
ATOM      5  C   UNL     1      47.910   6.679  12.737  0.00  0.00    +0.000 A 
ATOM      6  C   UNL     1      47.441   5.832  13.714  0.00  0.00    +0.000 A 
ATOM      7  N   UNL     1      46.205   5.271  13.691  0.00  0.00    +0.000 NA
ATOM      8  H   UNL     1      44.190   4.143  13.139  0.00  0.00    +0.000 HD
ENDROOT
BRANCH   5   9
ATOM      9  C   UNL     1      49.243   7.299  12.702  0.00  0.00    +0.000 C 
ATOM     10  N   UNL     1      49.992   7.276  13.846  0.00  0.00    +0.000 N 
ATOM     11  O   UNL     1      49.652   7.853  11.693  0.00  0.00    +0.000 OA
ATOM     12  H   UNL     1      49.658   6.970  14.748  0.00  0.00    +0.000 HD
ATOM     13  H   UNL     1      50.865   7.790  13.818  0.00  0.00    +0.000 HD
ENDBRANCH   5   9
BRANCH   1  14
ATOM     14  C   UNL     1      43.675   4.860  11.227  0.00  0.00    +0.000 C 
BRANCH  14  16
ATOM     15  C   UNL     1      43.362   2.307  11.418  0.00  0.00    +0.000 C 
ATOM     16  C   UNL     1      43.963   3.481  10.711  0.00  0.00    +0.000 C 
BRANCH  16  17
ATOM     17  C   UNL     1      45.123   3.286   9.765  0.00  0.00    +0.000 C 
ATOM     18  C   UNL     1      45.255   4.404   8.712  0.00  0.00    +0.000 C 
ATOM     19  C   UNL     1      46.411   4.132   7.750  0.00  0.00    +0.000 C 
ATOM     20  C   UNL     1      46.261   2.767   7.087  0.00  0.00    +0.000 C 
ATOM     21  C   UNL     1      46.151   1.655   8.123  0.00  0.00    +0.000 C 
ATOM     22  C   UNL     1      45.010   1.910   9.099  0.00  0.00    +0.000 C 
ENDBRANCH  16  17
ENDBRANCH  14  16
ENDBRANCH   1  14
TORSDOF 4
ENDMDL
MODEL 5
REMARK VINA RESULT:    -6.655      4.967      7.456
REMARK INTER + INTRA:          -8.457
REMARK INTER:                  -8.101
REMARK INTRA:                  -0.356
REMARK UNBOUND:                -0.246
REMARK  Name = 
REMARK  5 active torsions:
REMARK  status: ('A' for Active; 'I' for Inactive)
REMARK    1  A    between atoms: C_1  and  C_2
REMARK    2  A    between atoms: C_2  and  C_3
REMARK    3  A    between atoms: C_2  and  C_14
REMARK    4  A    between atoms: C_3  and  N_4
REMARK    5  A    between atoms: C_8  and  C_9
REMARK                            x       y       z     vdW  Elec       q    Type
REMARK                         _______ _______ _______ _____ _____    ______ ____
ROOT
ATOM      1  N   UNL     1      46.562   5.000  13.430  0.00  0.00    +0.000 N 
ATOM      2  C   UNL     1      47.169   4.822  14.667  0.00  0.00    +0.000 A 
ATOM      3  N   UNL     1      46.792   3.786  15.435  0.00  0.00    +0.000 NA
ATOM      4  C   UNL     1      47.372   3.645  16.641  0.00  0.00    +0.000 A 
ATOM      5  C   UNL     1      48.351   4.484  17.107  0.00  0.00    +0.000 A 
ATOM      6  C   UNL     1      48.673   5.525  16.267  0.00  0.00    +0.000 A 
ATOM      7  N   UNL     1      48.102   5.710  15.048  0.00  0.00    +0.000 NA
ATOM      8  H   UNL     1      46.635   5.980  13.202  0.00  0.00    +0.000 HD
ENDROOT
BRANCH   5   9
ATOM      9  C   UNL     1      48.922   4.247  18.442  0.00  0.00    +0.000 C 
ATOM     10  N   UNL     1      48.382   3.247  19.202  0.00  0.00    +0.000 N 
ATOM     11  O   UNL     1      49.823   4.950  18.873  0.00  0.00    +0.000 OA
ATOM     12  H   UNL     1      47.547   2.732  18.969  0.00  0.00    +0.000 HD
ATOM     13  H   UNL     1      48.734   3.169  20.149  0.00  0.00    +0.000 HD
ENDBRANCH   5   9
BRANCH   1  14
ATOM     14  C   UNL     1      45.230   4.423  13.396  0.00  0.00    +0.000 C 
BRANCH  14  16
ATOM     15  C   UNL     1      43.191   5.311  12.087  0.00  0.00    +0.000 C 
ATOM     16  C   UNL     1      44.571   4.730  12.083  0.00  0.00    +0.000 C 
BRANCH  16  17
ATOM     17  C   UNL     1      45.129   4.107  10.827  0.00  0.00    +0.000 C 
ATOM     18  C   UNL     1      45.287   5.104   9.661  0.00  0.00    +0.000 C 
ATOM     19  C   UNL     1      45.806   4.413   8.401  0.00  0.00    +0.000 C 
ATOM     20  C   UNL     1      44.906   3.246   8.008  0.00  0.00    +0.000 C 
ATOM     21  C   UNL     1      44.762   2.246   9.148  0.00  0.00    +0.000 C 
ATOM     22  C   UNL     1      44.255   2.915  10.419  0.00  0.00    +0.000 C 
ENDBRANCH  16  17
ENDBRANCH  14  16
ENDBRANCH   1  14
TORSDOF 4
ENDMDL
MODEL 6
REMARK VINA RESULT:    -6.654      4.153      6.877
REMARK INTER + INTRA:          -8.456
REMARK INTER:                  -8.111
REMARK INTRA:                  -0.345
REMARK UNBOUND:                -0.246
REMARK  Name = 
REMARK  5 active torsions:
REMARK  status: ('A' for Active; 'I' for Inactive)
REMARK    1  A    between atoms: C_1  and  C_2
REMARK    2  A    between atoms: C_2  and  C_3
REMARK    3  A    between atoms: C_2  and  C_14
REMARK    4  A    between atoms: C_3  and  N_4
REMARK    5  A    between atoms: C_8  and  C_9
REMARK                            x       y       z     vdW  Elec       q    Type
REMARK                         _______ _______ _______ _____ _____    ______ ____
ROOT
ATOM      1  N   UNL     1      45.305   4.667  12.893  0.00  0.00    +0.000 N 
ATOM      2  C   UNL     1      46.292   4.988  13.817  0.00  0.00    +0.000 A 
ATOM      3  N   UNL     1      47.014   6.106  13.637  0.00  0.00    +0.000 NA
ATOM      4  C   UNL     1      47.982   6.386  14.527  0.00  0.00    +0.000 A 
ATOM      5  C   UNL     1      48.245   5.608  15.625  0.00  0.00    +0.000 A 
ATOM      6  C   UNL     1      47.471   4.476  15.731  0.00  0.00    +0.000 A 
ATOM      7  N   UNL     1      46.491   4.150  14.848  0.00  0.00    +0.000 NA
ATOM      8  H   UNL     1      45.178   3.666  12.931  0.00  0.00    +0.000 HD
ENDROOT
BRANCH   5   9
ATOM      9  C   UNL     1      49.328   5.999  16.539  0.00  0.00    +0.000 C 
ATOM     10  N   UNL     1      49.284   7.250  17.087  0.00  0.00    +0.000 N 
ATOM     11  O   UNL     1      50.260   5.243  16.768  0.00  0.00    +0.000 OA
ATOM     12  H   UNL     1      48.629   7.972  16.826  0.00  0.00    +0.000 HD
ATOM     13  H   UNL     1      50.090   7.523  17.638  0.00  0.00    +0.000 HD
ENDBRANCH   5   9
BRANCH   1  14
ATOM     14  C   UNL     1      45.584   5.236  11.587  0.00  0.00    +0.000 C 
BRANCH  14  16
ATOM     15  C   UNL     1      43.054   5.370  11.099  0.00  0.00    +0.000 C 
ATOM     16  C   UNL     1      44.431   4.983  10.659  0.00  0.00    +0.000 C 
BRANCH  16  17
ATOM     17  C   UNL     1      44.620   4.022   9.511  0.00  0.00    +0.000 C 
ATOM     18  C   UNL     1      44.893   2.572   9.958  0.00  0.00    +0.000 C 
ATOM     19  C   UNL     1      45.127   1.653   8.760  0.00  0.00    +0.000 C 
ATOM     20  C   UNL     1      46.256   2.178   7.880  0.00  0.00    +0.000 C 
ATOM     21  C   UNL     1      45.983   3.603   7.417  0.00  0.00    +0.000 C 
ATOM     22  C   UNL     1      45.736   4.537   8.595  0.00  0.00    +0.000 C 
ENDBRANCH  16  17
ENDBRANCH  14  16
ENDBRANCH   1  14
TORSDOF 4
ENDMDL
MODEL 7
REMARK VINA RESULT:    -6.295      4.501      6.484
REMARK INTER + INTRA:          -8.013
REMARK INTER:                  -7.676
REMARK INTRA:                  -0.337
REMARK UNBOUND:                -0.246
REMARK  Name = 
REMARK  5 active torsions:
REMARK  status: ('A' for Active; 'I' for Inactive)
REMARK    1  A    between atoms: C_1  and  C_2
REMARK    2  A    between atoms: C_2  and  C_3
REMARK    3  A    between atoms: C_2  and  C_14
REMARK    4  A    between atoms: C_3  and  N_4
REMARK    5  A    between atoms: C_8  and  C_9
REMARK                            x       y       z     vdW  Elec       q    Type
REMARK                         _______ _______ _______ _____ _____    ______ ____
ROOT
ATOM      1  N   UNL     1      47.218   3.549  14.706  0.00  0.00    +0.000 N 
ATOM      2  C   UNL     1      46.324   3.981  13.735  0.00  0.00    +0.000 A 
ATOM      3  N   UNL     1      45.988   5.280  13.690  0.00  0.00    +0.000 NA
ATOM      4  C   UNL     1      45.101   5.675  12.759  0.00  0.00    +0.000 A 
ATOM      5  C   UNL     1      44.551   4.825  11.835  0.00  0.00    +0.000 A 
ATOM      6  C   UNL     1      44.937   3.510  11.955  0.00  0.00    +0.000 A 
ATOM      7  N   UNL     1      45.820   3.068  12.887  0.00  0.00    +0.000 NA
ATOM      8  H   UNL     1      47.033   2.570  14.865  0.00  0.00    +0.000 HD
ENDROOT
BRANCH   5   9
ATOM      9  C   UNL     1      43.587   5.354  10.859  0.00  0.00    +0.000 C 
ATOM     10  N   UNL     1      42.835   6.437  11.222  0.00  0.00    +0.000 N 
ATOM     11  O   UNL     1      43.433   4.816   9.773  0.00  0.00    +0.000 OA
ATOM     12  H   UNL     1      42.805   6.834  12.149  0.00  0.00    +0.000 HD
ATOM     13  H   UNL     1      42.117   6.721  10.565  0.00  0.00    +0.000 HD
ENDBRANCH   5   9
BRANCH   1  14
ATOM     14  C   UNL     1      47.202   4.410  15.875  0.00  0.00    +0.000 C 
BRANCH  14  16
ATOM     15  C   UNL     1      48.702   2.530  16.811  0.00  0.00    +0.000 C 
ATOM     16  C   UNL     1      48.231   3.950  16.866  0.00  0.00    +0.000 C 
BRANCH  16  17
ATOM     17  C   UNL     1      48.474   4.784  18.100  0.00  0.00    +0.000 C 
ATOM     18  C   UNL     1      49.041   3.978  19.287  0.00  0.00    +0.000 C 
ATOM     19  C   UNL     1      49.220   4.857  20.524  0.00  0.00    +0.000 C 
ATOM     20  C   UNL     1      47.911   5.543  20.901  0.00  0.00    +0.000 C 
ATOM     21  C   UNL     1      47.355   6.358  19.740  0.00  0.00    +0.000 C 
ATOM     22  C   UNL     1      47.178   5.504  18.491  0.00  0.00    +0.000 C 
ENDBRANCH  16  17
ENDBRANCH  14  16
ENDBRANCH   1  14
TORSDOF 4
ENDMDL
MODEL 8
REMARK VINA RESULT:    -5.970      5.528      8.074
REMARK INTER + INTRA:          -7.612
REMARK INTER:                  -7.403
REMARK INTRA:                  -0.209
REMARK UNBOUND:                -0.246
REMARK  Name = 
REMARK  5 active torsions:
REMARK  status: ('A' for Active; 'I' for Inactive)
REMARK    1  A    between atoms: C_1  and  C_2
REMARK    2  A    between atoms: C_2  and  C_3
REMARK    3  A    between atoms: C_2  and  C_14
REMARK    4  A    between atoms: C_3  and  N_4
REMARK    5  A    between atoms: C_8  and  C_9
REMARK                            x       y       z     vdW  Elec       q    Type
REMARK                         _______ _______ _______ _____ _____    ______ ____
ROOT
ATOM      1  N   UNL     1      46.458   4.333  14.560  0.00  0.00    +0.000 N 
ATOM      2  C   UNL     1      47.145   4.316  15.767  0.00  0.00    +0.000 A 
ATOM      3  N   UNL     1      48.133   5.203  15.967  0.00  0.00    +0.000 NA
ATOM      4  C   UNL     1      48.805   5.154  17.132  0.00  0.00    +0.000 A 
ATOM      5  C   UNL     1      48.507   4.269  18.136  0.00  0.00    +0.000 A 
ATOM      6  C   UNL     1      47.491   3.387  17.849  0.00  0.00    +0.000 A 
ATOM      7  N   UNL     1      46.797   3.395  16.681  0.00  0.00    +0.000 NA
ATOM      8  H   UNL     1      46.088   3.405  14.416  0.00  0.00    +0.000 HD
ENDROOT
BRANCH   5   9
ATOM      9  C   UNL     1      49.302   4.293  19.372  0.00  0.00    +0.000 C 
ATOM     10  N   UNL     1      48.690   3.921  20.536  0.00  0.00    +0.000 N 
ATOM     11  O   UNL     1      50.463   4.675  19.365  0.00  0.00    +0.000 OA
ATOM     12  H   UNL     1      47.702   3.741  20.637  0.00  0.00    +0.000 HD
ATOM     13  H   UNL     1      49.235   4.036  21.383  0.00  0.00    +0.000 HD
ENDBRANCH   5   9
BRANCH   1  14
ATOM     14  C   UNL     1      47.268   4.882  13.487  0.00  0.00    +0.000 C 
BRANCH  14  16
ATOM     15  C   UNL     1      46.730   7.384  13.164  0.00  0.00    +0.000 C 
ATOM     16  C   UNL     1      46.508   5.957  12.768  0.00  0.00    +0.000 C 
BRANCH  16  17
ATOM     17  C   UNL     1      45.291   5.573  11.962  0.00  0.00    +0.000 C 
ATOM     18  C   UNL     1      43.966   5.721  12.737  0.00  0.00    +0.000 C 
ATOM     19  C   UNL     1      42.773   5.271  11.894  0.00  0.00    +0.000 C 
ATOM     20  C   UNL     1      42.963   3.842  11.397  0.00  0.00    +0.000 C 
ATOM     21  C   UNL     1      44.260   3.693  10.613  0.00  0.00    +0.000 C 
ATOM     22  C   UNL     1      45.464   4.146  11.430  0.00  0.00    +0.000 C 
ENDBRANCH  16  17
ENDBRANCH  14  16
ENDBRANCH   1  14
TORSDOF 4
ENDMDL
MODEL 9
REMARK VINA RESULT:    -5.950      3.600      5.750
REMARK INTER + INTRA:          -7.587
REMARK INTER:                  -7.194
REMARK INTRA:                  -0.393
REMARK UNBOUND:                -0.246
REMARK  Name = 
REMARK  5 active torsions:
REMARK  status: ('A' for Active; 'I' for Inactive)
REMARK    1  A    between atoms: C_1  and  C_2
REMARK    2  A    between atoms: C_2  and  C_3
REMARK    3  A    between atoms: C_2  and  C_14
REMARK    4  A    between atoms: C_3  and  N_4
REMARK    5  A    between atoms: C_8  and  C_9
REMARK                            x       y       z     vdW  Elec       q    Type
REMARK                         _______ _______ _______ _____ _____    ______ ____
ROOT
ATOM      1  N   UNL     1      47.141   7.244  13.923  0.00  0.00    +0.000 N 
ATOM      2  C   UNL     1      46.297   6.539  13.075  0.00  0.00    +0.000 A 
ATOM      3  N   UNL     1      46.288   5.197  13.133  0.00  0.00    +0.000 NA
ATOM      4  C   UNL     1      45.484   4.530  12.285  0.00  0.00    +0.000 A 
ATOM      5  C   UNL     1      44.651   5.152  11.391  0.00  0.00    +0.000 A 
ATOM      6  C   UNL     1      44.727   6.525  11.386  0.00  0.00    +0.000 A 
ATOM      7  N   UNL     1      45.534   7.236  12.216  0.00  0.00    +0.000 NA
ATOM      8  H   UNL     1      47.332   8.131  13.481  0.00  0.00    +0.000 HD
ENDROOT
BRANCH   5   9
ATOM      9  C   UNL     1      43.811   4.333  10.504  0.00  0.00    +0.000 C 
ATOM     10  N   UNL     1      43.929   4.521   9.156  0.00  0.00    +0.000 N 
ATOM     11  O   UNL     1      43.003   3.539  10.962  0.00  0.00    +0.000 OA
ATOM     12  H   UNL     1      44.463   5.258   8.720  0.00  0.00    +0.000 HD
ATOM     13  H   UNL     1      43.274   4.009   8.576  0.00  0.00    +0.000 HD
ENDBRANCH   5   9
BRANCH   1  14
ATOM     14  C   UNL     1      48.293   6.454  14.317  0.00  0.00    +0.000 C 
BRANCH  14  16
ATOM     15  C   UNL     1      49.464   7.999  16.020  0.00  0.00    +0.000 C 
ATOM     16  C   UNL     1      48.667   6.763  15.737  0.00  0.00    +0.000 C 
BRANCH  16  17
ATOM     17  C   UNL     1      48.578   5.664  16.767  0.00  0.00    +0.000 C 
ATOM     18  C   UNL     1      49.951   5.130  17.221  0.00  0.00    +0.000 C 
ATOM     19  C   UNL     1      49.803   3.986  18.223  0.00  0.00    +0.000 C 
ATOM     20  C   UNL     1      48.939   2.867  17.652  0.00  0.00    +0.000 C 
ATOM     21  C   UNL     1      47.572   3.384  17.221  0.00  0.00    +0.000 C 
ATOM     22  C   UNL     1      47.695   4.532  16.228  0.00  0.00    +0.000 C 
ENDBRANCH  16  17
ENDBRANCH  14  16
ENDBRANCH   1  14
TORSDOF 4
ENDMDL
