MODEL 1
REMARK VINA RESULT:    -8.558      0.000      0.000
REMARK INTER + INTRA:         -13.361
REMARK INTER:                 -12.060
REMARK INTRA:                  -1.302
REMARK UNBOUND:                -1.302
REMARK  Name = 
REMARK  11 active torsions:
REMARK  status: ('A' for Active; 'I' for Inactive)
REMARK    1  A    between atoms: C_1  and  C_2
REMARK    2  A    between atoms: C_2  and  C_3
REMARK    3  A    between atoms: C_2  and  C_4
REMARK    4  A    between atoms: C_2  and  C_15
REMARK    5  A    between atoms: C_4  and  O_5
REMARK    6  A    between atoms: O_5  and  C_6
REMARK    7  A    between atoms: C_10  and  C_11
REMARK    8  A    between atoms: C_20  and  O_21
REMARK    9  A    between atoms: O_21  and  C_22
REMARK   10  A    between atoms: C_24  and  C_25
REMARK   11  A    between atoms: C_24  and  C_26
REMARK                            x       y       z     vdW  Elec       q    Type
REMARK                         _______ _______ _______ _____ _____    ______ ____
ROOT
ATOM      1  C   UNL     1      42.670   5.123  12.844  0.00  0.00    +0.000 C 
ATOM      2  C   UNL     1      43.765   4.275  12.158  0.00  0.00    +0.000 C 
ATOM      3  C   UNL     1      43.559   2.812  12.620  0.00  0.00    +0.000 C 
ENDROOT
BRANCH   2   4
ATOM      4  C   UNL     1      45.152   4.856  12.513  0.00  0.00    +0.000 A 
ATOM      5  C   UNL     1      45.748   5.890  11.777  0.00  0.00    +0.000 A 
ATOM      6  C   UNL     1      46.991   6.401  12.151  0.00  0.00    +0.000 A 
ATOM      7  F   UNL     1      47.532   7.394  11.435  0.00  0.00    +0.000 F 
ATOM      8  C   UNL     1      47.672   5.901  13.249  0.00  0.00    +0.000 A 
ATOM      9  C   UNL     1      47.118   4.860  13.988  0.00  0.00    +0.000 A 
ATOM     10  C   UNL     1      45.869   4.351  13.631  0.00  0.00    +0.000 A 
BRANCH   9  11
ATOM     11  O   UNL     1      47.867   4.439  15.055  0.00  0.00    +0.000 OA
BRANCH  11  12
ATOM     12  C   UNL     1      47.229   4.270  16.340  0.00  0.00    +0.000 C 
ATOM     13  C   UNL     1      47.828   3.314  17.338  0.00  0.00    +0.000 C 
ATOM     14  C   UNL     1      48.056   4.793  17.515  0.00  0.00    +0.000 C 
ATOM     15  C   UNL     1      49.433   5.346  17.236  0.00  0.00    +0.000 C 
ATOM     16  C   UNL     1      47.368   5.467  18.674  0.00  0.00    +0.000 C 
ENDBRANCH  11  12
ENDBRANCH   9  11
ENDBRANCH   2   4
BRANCH   2  17
ATOM     17  C   UNL     1      43.584   4.319  10.615  0.00  0.00    +0.000 C 
BRANCH  17  18
ATOM     18  O   UNL     1      43.961   3.069  10.020  0.00  0.00    +0.000 OA
BRANCH  18  19
ATOM     19  C   UNL     1      44.965   3.205   9.083  0.00  0.00    +0.000 A 
ATOM     20  C   UNL     1      45.315   4.497   8.719  0.00  0.00    +0.000 A 
ATOM     21  C   UNL     1      46.328   4.671   7.779  0.00  0.00    +0.000 A 
ATOM     22  C   UNL     1      46.955   3.552   7.239  0.00  0.00    +0.000 A 
ATOM     23  C   UNL     1      46.537   2.299   7.672  0.00  0.00    +0.000 A 
ATOM     24  N   UNL     1      45.551   2.101   8.583  0.00  0.00    +0.000 NA
BRANCH  23  25
ATOM     25  C   UNL     1      47.186   1.060   7.146  0.00  0.00    +0.000 C 
ATOM     26  N   UNL     1      46.776  -0.108   7.738  0.00  0.00    +0.000 N 
ATOM     27  O   UNL     1      48.025   1.076   6.257  0.00  0.00    +0.000 OA
ATOM     28  H   UNL     1      46.071  -0.076   8.462  0.00  0.00    +0.000 HD
ATOM     29  H   UNL     1      47.163  -0.988   7.433  0.00  0.00    +0.000 HD
ENDBRANCH  23  25
ENDBRANCH  18  19
ENDBRANCH  17  18
ENDBRANCH   2  17
TORSDOF 7
ENDMDL
MODEL 2
REMARK VINA RESULT:    -7.225      3.199      8.007
REMARK INTER + INTRA:         -11.483
REMARK INTER:                 -10.352
REMARK INTRA:                  -1.130
REMARK UNBOUND:                -1.302
REMARK  Name = 
REMARK  11 active torsions:
REMARK  status: ('A' for Active; 'I' for Inactive)
REMARK    1  A    between atoms: C_1  and  C_2
REMARK    2  A    between atoms: C_2  and  C_3
REMARK    3  A    between atoms: C_2  and  C_4
REMARK    4  A    between atoms: C_2  and  C_15
REMARK    5  A    between atoms: C_4  and  O_5
REMARK    6  A    between atoms: O_5  and  C_6
REMARK    7  A    between atoms: C_10  and  C_11
REMARK    8  A    between atoms: C_20  and  O_21
REMARK    9  A    between atoms: O_21  and  C_22
REMARK   10  A    between atoms: C_24  and  C_25
REMARK   11  A    between atoms: C_24  and  C_26
REMARK                            x       y       z     vdW  Elec       q    Type
REMARK                         _______ _______ _______ _____ _____    ______ ____
ROOT
ATOM      1  C   UNL     1      47.167   9.509  12.133  0.00  0.00    +0.000 C 
ATOM      2  C   UNL     1      47.623   8.081  12.507  0.00  0.00    +0.000 C 
ATOM      3  C   UNL     1      48.993   7.851  11.822  0.00  0.00    +0.000 C 
ENDROOT
BRANCH   2   4
ATOM      4  C   UNL     1      46.533   7.073  12.084  0.00  0.00    +0.000 A 
ATOM      5  C   UNL     1      45.454   6.734  12.915  0.00  0.00    +0.000 A 
ATOM      6  C   UNL     1      44.478   5.838  12.480  0.00  0.00    +0.000 A 
ATOM      7  F   UNL     1      43.455   5.540  13.290  0.00  0.00    +0.000 F 
ATOM      8  C   UNL     1      44.547   5.254  11.225  0.00  0.00    +0.000 A 
ATOM      9  C   UNL     1      45.616   5.552  10.385  0.00  0.00    +0.000 A 
ATOM     10  C   UNL     1      46.591   6.457  10.805  0.00  0.00    +0.000 A 
BRANCH   9  11
ATOM     11  O   UNL     1      45.592   4.927   9.166  0.00  0.00    +0.000 OA
BRANCH  11  12
ATOM     12  C   UNL     1      45.311   3.512   9.105  0.00  0.00    +0.000 C 
ATOM     13  C   UNL     1      44.439   2.983   7.996  0.00  0.00    +0.000 C 
ATOM     14  C   UNL     1      45.933   2.808   7.898  0.00  0.00    +0.000 C 
ATOM     15  C   UNL     1      46.689   3.640   6.891  0.00  0.00    +0.000 C 
ATOM     16  C   UNL     1      46.478   1.411   8.046  0.00  0.00    +0.000 C 
ENDBRANCH  11  12
ENDBRANCH   9  11
ENDBRANCH   2   4
BRANCH   2  17
ATOM     17  C   UNL     1      47.834   7.975  14.044  0.00  0.00    +0.000 C 
BRANCH  17  18
ATOM     18  O   UNL     1      48.863   7.025  14.355  0.00  0.00    +0.000 OA
BRANCH  18  19
ATOM     19  C   UNL     1      48.713   6.467  15.608  0.00  0.00    +0.000 A 
ATOM     20  C   UNL     1      48.999   7.277  16.697  0.00  0.00    +0.000 A 
ATOM     21  C   UNL     1      48.854   6.747  17.976  0.00  0.00    +0.000 A 
ATOM     22  C   UNL     1      48.425   5.431  18.123  0.00  0.00    +0.000 A 
ATOM     23  C   UNL     1      48.158   4.701  16.971  0.00  0.00    +0.000 A 
ATOM     24  N   UNL     1      48.296   5.191  15.713  0.00  0.00    +0.000 NA
BRANCH  23  25
ATOM     25  C   UNL     1      47.674   3.290  17.063  0.00  0.00    +0.000 C 
ATOM     26  N   UNL     1      48.621   2.332  16.799  0.00  0.00    +0.000 N 
ATOM     27  O   UNL     1      46.522   3.000  17.346  0.00  0.00    +0.000 OA
ATOM     28  H   UNL     1      49.567   2.617  16.580  0.00  0.00    +0.000 HD
ATOM     29  H   UNL     1      48.374   1.356  16.848  0.00  0.00    +0.000 HD
ENDBRANCH  23  25
ENDBRANCH  18  19
ENDBRANCH  17  18
ENDBRANCH   2  17
TORSDOF 7
ENDMDL
MODEL 3
REMARK VINA RESULT:    -6.767      3.832      7.623
REMARK INTER + INTRA:         -10.838
REMARK INTER:                  -9.469
REMARK INTRA:                  -1.369
REMARK UNBOUND:                -1.302
REMARK  Name = 
REMARK  11 active torsions:
REMARK  status: ('A' for Active; 'I' for Inactive)
REMARK    1  A    between atoms: C_1  and  C_2
REMARK    2  A    between atoms: C_2  and  C_3
REMARK    3  A    between atoms: C_2  and  C_4
REMARK    4  A    between atoms: C_2  and  C_15
REMARK    5  A    between atoms: C_4  and  O_5
REMARK    6  A    between atoms: O_5  and  C_6
REMARK    7  A    between atoms: C_10  and  C_11
REMARK    8  A    between atoms: C_20  and  O_21
REMARK    9  A    between atoms: O_21  and  C_22
REMARK   10  A    between atoms: C_24  and  C_25
REMARK   11  A    between atoms: C_24  and  C_26
REMARK                            x       y       z     vdW  Elec       q    Type
REMARK                         _______ _______ _______ _____ _____    ______ ____
ROOT
ATOM      1  C   UNL     1      49.419   9.648  13.520  0.00  0.00    +0.000 C 
ATOM      2  C   UNL     1      49.162   8.264  12.883  0.00  0.00    +0.000 C 
ATOM      3  C   UNL     1      50.139   8.128  11.689  0.00  0.00    +0.000 C 
ENDROOT
BRANCH   2   4
ATOM      4  C   UNL     1      47.673   8.155  12.491  0.00  0.00    +0.000 A 
ATOM      5  C   UNL     1      46.760   9.202  12.691  0.00  0.00    +0.000 A 
ATOM      6  C   UNL     1      45.430   9.068  12.297  0.00  0.00    +0.000 A 
ATOM      7  F   UNL     1      44.584  10.087  12.492  0.00  0.00    +0.000 F 
ATOM      8  C   UNL     1      44.969   7.902  11.706  0.00  0.00    +0.000 A 
ATOM      9  C   UNL     1      45.843   6.836  11.514  0.00  0.00    +0.000 A 
ATOM     10  C   UNL     1      47.179   6.964  11.892  0.00  0.00    +0.000 A 
BRANCH   9  11
ATOM     11  O   UNL     1      45.293   5.731  10.920  0.00  0.00    +0.000 OA
BRANCH  11  12
ATOM     12  C   UNL     1      45.200   4.500  11.670  0.00  0.00    +0.000 C 
ATOM     13  C   UNL     1      44.704   4.543  13.092  0.00  0.00    +0.000 C 
ATOM     14  C   UNL     1      43.766   4.086  12.004  0.00  0.00    +0.000 C 
ATOM     15  C   UNL     1      42.638   5.003  11.596  0.00  0.00    +0.000 C 
ATOM     16  C   UNL     1      43.385   2.628  11.986  0.00  0.00    +0.000 C 
ENDBRANCH  11  12
ENDBRANCH   9  11
ENDBRANCH   2   4
BRANCH   2  17
ATOM     17  C   UNL     1      49.495   7.138  13.903  0.00  0.00    +0.000 C 
BRANCH  17  18
ATOM     18  O   UNL     1      49.661   7.677  15.223  0.00  0.00    +0.000 OA
BRANCH  18  19
ATOM     19  C   UNL     1      49.040   6.916  16.192  0.00  0.00    +0.000 A 
ATOM     20  C   UNL     1      48.893   7.490  17.446  0.00  0.00    +0.000 A 
ATOM     21  C   UNL     1      48.267   6.750  18.446  0.00  0.00    +0.000 A 
ATOM     22  C   UNL     1      47.807   5.469  18.158  0.00  0.00    +0.000 A 
ATOM     23  C   UNL     1      47.995   4.984  16.870  0.00  0.00    +0.000 A 
ATOM     24  N   UNL     1      48.606   5.681  15.878  0.00  0.00    +0.000 NA
BRANCH  23  25
ATOM     25  C   UNL     1      47.504   3.624  16.493  0.00  0.00    +0.000 C 
ATOM     26  N   UNL     1      46.892   2.925  17.503  0.00  0.00    +0.000 N 
ATOM     27  O   UNL     1      47.639   3.156  15.372  0.00  0.00    +0.000 OA
ATOM     28  H   UNL     1      46.792   3.355  18.413  0.00  0.00    +0.000 HD
ATOM     29  H   UNL     1      46.527   2.002  17.325  0.00  0.00    +0.000 HD
ENDBRANCH  23  25
ENDBRANCH  18  19
ENDBRANCH  17  18
ENDBRANCH   2  17
TORSDOF 7
ENDMDL
MODEL 4
REMARK VINA RESULT:    -6.698      2.399      4.215
REMARK INTER + INTRA:         -10.741
REMARK INTER:                  -9.490
REMARK INTRA:                  -1.250
REMARK UNBOUND:                -1.302
REMARK  Name = 
REMARK  11 active torsions:
REMARK  status: ('A' for Active; 'I' for Inactive)
REMARK    1  A    between atoms: C_1  and  C_2
REMARK    2  A    between atoms: C_2  and  C_3
REMARK    3  A    between atoms: C_2  and  C_4
REMARK    4  A    between atoms: C_2  and  C_15
REMARK    5  A    between atoms: C_4  and  O_5
REMARK    6  A    between atoms: O_5  and  C_6
REMARK    7  A    between atoms: C_10  and  C_11
REMARK    8  A    between atoms: C_20  and  O_21
REMARK    9  A    between atoms: O_21  and  C_22
REMARK   10  A    between atoms: C_24  and  C_25
REMARK   11  A    between atoms: C_24  and  C_26
REMARK                            x       y       z     vdW  Elec       q    Type
REMARK                         _______ _______ _______ _____ _____    ______ ____
ROOT
ATOM      1  C   UNL     1      48.636   8.579  11.570  0.00  0.00    +0.000 C 
ATOM      2  C   UNL     1      47.447   8.052  12.405  0.00  0.00    +0.000 C 
ATOM      3  C   UNL     1      46.386   9.180  12.441  0.00  0.00    +0.000 C 
ENDROOT
BRANCH   2   4
ATOM      4  C   UNL     1      47.956   7.624  13.798  0.00  0.00    +0.000 A 
ATOM      5  C   UNL     1      48.492   8.537  14.720  0.00  0.00    +0.000 A 
ATOM      6  C   UNL     1      48.915   8.109  15.977  0.00  0.00    +0.000 A 
ATOM      7  F   UNL     1      49.413   9.003  16.840  0.00  0.00    +0.000 F 
ATOM      8  C   UNL     1      48.826   6.777  16.351  0.00  0.00    +0.000 A 
ATOM      9  C   UNL     1      48.321   5.842  15.451  0.00  0.00    +0.000 A 
ATOM     10  C   UNL     1      47.882   6.262  14.196  0.00  0.00    +0.000 A 
BRANCH   9  11
ATOM     11  O   UNL     1      48.271   4.554  15.915  0.00  0.00    +0.000 OA
BRANCH  11  12
ATOM     12  C   UNL     1      47.731   4.299  17.230  0.00  0.00    +0.000 C 
ATOM     13  C   UNL     1      47.502   2.876  17.667  0.00  0.00    +0.000 C 
ATOM     14  C   UNL     1      48.713   3.613  18.180  0.00  0.00    +0.000 C 
ATOM     15  C   UNL     1      50.071   3.219  17.651  0.00  0.00    +0.000 C 
ATOM     16  C   UNL     1      48.729   3.988  19.640  0.00  0.00    +0.000 C 
ENDBRANCH  11  12
ENDBRANCH   9  11
ENDBRANCH   2   4
BRANCH   2  17
ATOM     17  C   UNL     1      46.810   6.820  11.704  0.00  0.00    +0.000 C 
BRANCH  17  18
ATOM     18  O   UNL     1      45.378   6.861  11.797  0.00  0.00    +0.000 OA
BRANCH  18  19
ATOM     19  C   UNL     1      44.802   5.610  11.724  0.00  0.00    +0.000 A 
ATOM     20  C   UNL     1      44.123   5.163  12.848  0.00  0.00    +0.000 A 
ATOM     21  C   UNL     1      43.526   3.906  12.808  0.00  0.00    +0.000 A 
ATOM     22  C   UNL     1      43.624   3.143  11.648  0.00  0.00    +0.000 A 
ATOM     23  C   UNL     1      44.321   3.680  10.572  0.00  0.00    +0.000 A 
ATOM     24  N   UNL     1      44.916   4.900  10.587  0.00  0.00    +0.000 NA
BRANCH  23  25
ATOM     25  C   UNL     1      44.444   2.918   9.293  0.00  0.00    +0.000 C 
ATOM     26  N   UNL     1      44.382   3.681   8.153  0.00  0.00    +0.000 N 
ATOM     27  O   UNL     1      44.585   1.705   9.253  0.00  0.00    +0.000 OA
ATOM     28  H   UNL     1      44.276   4.684   8.233  0.00  0.00    +0.000 HD
ATOM     29  H   UNL     1      44.465   3.240   7.250  0.00  0.00    +0.000 HD
ENDBRANCH  23  25
ENDBRANCH  18  19
ENDBRANCH  17  18
ENDBRANCH   2  17
TORSDOF 7
ENDMDL
MODEL 5
REMARK VINA RESULT:    -6.669      2.899      4.333
REMARK INTER + INTRA:         -10.700
REMARK INTER:                  -9.560
REMARK INTRA:                  -1.140
REMARK UNBOUND:                -1.302
REMARK  Name = 
REMARK  11 active torsions:
REMARK  status: ('A' for Active; 'I' for Inactive)
REMARK    1  A    between atoms: C_1  and  C_2
REMARK    2  A    between atoms: C_2  and  C_3
REMARK    3  A    between atoms: C_2  and  C_4
REMARK    4  A    between atoms: C_2  and  C_15
REMARK    5  A    between atoms: C_4  and  O_5
REMARK    6  A    between atoms: O_5  and  C_6
REMARK    7  A    between atoms: C_10  and  C_11
REMARK    8  A    between atoms: C_20  and  O_21
REMARK    9  A    between atoms: O_21  and  C_22
REMARK   10  A    between atoms: C_24  and  C_25
REMARK   11  A    between atoms: C_24  and  C_26
REMARK                            x       y       z     vdW  Elec       q    Type
REMARK                         _______ _______ _______ _____ _____    ______ ____
ROOT
ATOM      1  C   UNL     1      48.354   9.101  11.785  0.00  0.00    +0.000 C 
ATOM      2  C   UNL     1      47.359   8.143  12.476  0.00  0.00    +0.000 C 
ATOM      3  C   UNL     1      46.024   8.913  12.631  0.00  0.00    +0.000 C 
ENDROOT
BRANCH   2   4
ATOM      4  C   UNL     1      47.963   7.661  13.813  0.00  0.00    +0.000 A 
ATOM      5  C   UNL     1      48.655   8.520  14.682  0.00  0.00    +0.000 A 
ATOM      6  C   UNL     1      49.162   8.046  15.891  0.00  0.00    +0.000 A 
ATOM      7  F   UNL     1      49.810   8.889  16.705  0.00  0.00    +0.000 F 
ATOM      8  C   UNL     1      49.004   6.721  16.267  0.00  0.00    +0.000 A 
ATOM      9  C   UNL     1      48.342   5.839  15.418  0.00  0.00    +0.000 A 
ATOM     10  C   UNL     1      47.820   6.305  14.212  0.00  0.00    +0.000 A 
BRANCH   9  11
ATOM     11  O   UNL     1      48.235   4.553  15.880  0.00  0.00    +0.000 OA
BRANCH  11  12
ATOM     12  C   UNL     1      47.704   4.323  17.203  0.00  0.00    +0.000 C 
ATOM     13  C   UNL     1      47.443   2.909  17.654  0.00  0.00    +0.000 C 
ATOM     14  C   UNL     1      48.679   3.617  18.147  0.00  0.00    +0.000 C 
ATOM     15  C   UNL     1      50.019   3.184  17.605  0.00  0.00    +0.000 C 
ATOM     16  C   UNL     1      48.721   4.003  19.604  0.00  0.00    +0.000 C 
ENDBRANCH  11  12
ENDBRANCH   9  11
ENDBRANCH   2   4
BRANCH   2  17
ATOM     17  C   UNL     1      47.094   6.906  11.572  0.00  0.00    +0.000 C 
BRANCH  17  18
ATOM     18  O   UNL     1      45.765   6.942  11.032  0.00  0.00    +0.000 OA
BRANCH  18  19
ATOM     19  C   UNL     1      45.324   5.702  10.618  0.00  0.00    +0.000 A 
ATOM     20  C   UNL     1      45.638   5.322   9.322  0.00  0.00    +0.000 A 
ATOM     21  C   UNL     1      45.212   4.075   8.873  0.00  0.00    +0.000 A 
ATOM     22  C   UNL     1      44.492   3.251   9.734  0.00  0.00    +0.000 A 
ATOM     23  C   UNL     1      44.233   3.718  11.017  0.00  0.00    +0.000 A 
ATOM     24  N   UNL     1      44.632   4.931  11.478  0.00  0.00    +0.000 NA
BRANCH  23  25
ATOM     25  C   UNL     1      43.484   2.873  11.995  0.00  0.00    +0.000 C 
ATOM     26  N   UNL     1      43.482   3.338  13.286  0.00  0.00    +0.000 N 
ATOM     27  O   UNL     1      42.915   1.838  11.679  0.00  0.00    +0.000 OA
ATOM     28  H   UNL     1      43.956   4.206  13.501  0.00  0.00    +0.000 HD
ATOM     29  H   UNL     1      42.991   2.826  14.003  0.00  0.00    +0.000 HD
ENDBRANCH  23  25
ENDBRANCH  18  19
ENDBRANCH  17  18
ENDBRANCH   2  17
TORSDOF 7
ENDMDL
MODEL 6
REMARK VINA RESULT:    -6.325      4.353      8.649
REMARK INTER + INTRA:         -10.214
REMARK INTER:                  -9.166
REMARK INTRA:                  -1.049
REMARK UNBOUND:                -1.302
REMARK  Name = 
REMARK  11 active torsions:
REMARK  status: ('A' for Active; 'I' for Inactive)
REMARK    1  A    between atoms: C_1  and  C_2
REMARK    2  A    between atoms: C_2  and  C_3
REMARK    3  A    between atoms: C_2  and  C_4
REMARK    4  A    between atoms: C_2  and  C_15
REMARK    5  A    between atoms: C_4  and  O_5
REMARK    6  A    between atoms: O_5  and  C_6
REMARK    7  A    between atoms: C_10  and  C_11
REMARK    8  A    between atoms: C_20  and  O_21
REMARK    9  A    between atoms: O_21  and  C_22
REMARK   10  A    between atoms: C_24  and  C_25
REMARK   11  A    between atoms: C_24  and  C_26
REMARK                            x       y       z     vdW  Elec       q    Type
REMARK                         _______ _______ _______ _____ _____    ______ ____
ROOT
ATOM      1  C   UNL     1      47.494   2.980  17.405  0.00  0.00    +0.000 C 
ATOM      2  C   UNL     1      48.074   4.411  17.351  0.00  0.00    +0.000 C 
ATOM      3  C   UNL     1      47.399   5.215  18.490  0.00  0.00    +0.000 C 
ENDROOT
BRANCH   2   4
ATOM      4  C   UNL     1      47.840   5.001  15.943  0.00  0.00    +0.000 A 
ATOM      5  C   UNL     1      48.466   6.178  15.504  0.00  0.00    +0.000 A 
ATOM      6  C   UNL     1      48.245   6.659  14.214  0.00  0.00    +0.000 A 
ATOM      7  F   UNL     1      48.862   7.779  13.819  0.00  0.00    +0.000 F 
ATOM      8  C   UNL     1      47.401   5.999  13.335  0.00  0.00    +0.000 A 
ATOM      9  C   UNL     1      46.747   4.841  13.748  0.00  0.00    +0.000 A 
ATOM     10  C   UNL     1      46.972   4.343  15.031  0.00  0.00    +0.000 A 
BRANCH   9  11
ATOM     11  O   UNL     1      45.938   4.261  12.806  0.00  0.00    +0.000 OA
BRANCH  11  12
ATOM     12  C   UNL     1      45.067   5.097  12.015  0.00  0.00    +0.000 C 
ATOM     13  C   UNL     1      44.739   4.688  10.602  0.00  0.00    +0.000 C 
ATOM     14  C   UNL     1      43.720   4.452  11.687  0.00  0.00    +0.000 C 
ATOM     15  C   UNL     1      43.471   3.034  12.143  0.00  0.00    +0.000 C 
ATOM     16  C   UNL     1      42.472   5.297  11.661  0.00  0.00    +0.000 C 
ENDBRANCH  11  12
ENDBRANCH   9  11
ENDBRANCH   2   4
BRANCH   2  17
ATOM     17  C   UNL     1      49.603   4.376  17.632  0.00  0.00    +0.000 C 
BRANCH  17  18
ATOM     18  O   UNL     1      50.209   3.227  17.022  0.00  0.00    +0.000 OA
BRANCH  18  19
ATOM     19  C   UNL     1      51.417   2.891  17.600  0.00  0.00    +0.000 A 
ATOM     20  C   UNL     1      52.063   3.880  18.326  0.00  0.00    +0.000 A 
ATOM     21  C   UNL     1      53.282   3.574  18.926  0.00  0.00    +0.000 A 
ATOM     22  C   UNL     1      53.809   2.294  18.782  0.00  0.00    +0.000 A 
ATOM     23  C   UNL     1      53.083   1.371  18.039  0.00  0.00    +0.000 A 
ATOM     24  N   UNL     1      51.896   1.644  17.441  0.00  0.00    +0.000 NA
BRANCH  23  25
ATOM     25  C   UNL     1      53.586  -0.026  17.866  0.00  0.00    +0.000 C 
ATOM     26  N   UNL     1      53.888  -0.379  16.575  0.00  0.00    +0.000 N 
ATOM     27  O   UNL     1      53.716  -0.805  18.798  0.00  0.00    +0.000 OA
ATOM     28  H   UNL     1      53.776   0.301  15.835  0.00  0.00    +0.000 HD
ATOM     29  H   UNL     1      54.240  -1.303  16.377  0.00  0.00    +0.000 HD
ENDBRANCH  23  25
ENDBRANCH  18  19
ENDBRANCH  17  18
ENDBRANCH   2  17
TORSDOF 7
ENDMDL
MODEL 7
REMARK VINA RESULT:    -6.095      3.843      7.944
REMARK INTER + INTRA:          -9.891
REMARK INTER:                  -8.386
REMARK INTRA:                  -1.505
REMARK UNBOUND:                -1.302
REMARK  Name = 
REMARK  11 active torsions:
REMARK  status: ('A' for Active; 'I' for Inactive)
REMARK    1  A    between atoms: C_1  and  C_2
REMARK    2  A    between atoms: C_2  and  C_3
REMARK    3  A    between atoms: C_2  and  C_4
REMARK    4  A    between atoms: C_2  and  C_15
REMARK    5  A    between atoms: C_4  and  O_5
REMARK    6  A    between atoms: O_5  and  C_6
REMARK    7  A    between atoms: C_10  and  C_11
REMARK    8  A    between atoms: C_20  and  O_21
REMARK    9  A    between atoms: O_21  and  C_22
REMARK   10  A    between atoms: C_24  and  C_25
REMARK   11  A    between atoms: C_24  and  C_26
REMARK                            x       y       z     vdW  Elec       q    Type
REMARK                         _______ _______ _______ _____ _____    ______ ____
ROOT
ATOM      1  C   UNL     1      48.697   8.794  16.818  0.00  0.00    +0.000 C 
ATOM      2  C   UNL     1      49.787   8.688  15.728  0.00  0.00    +0.000 C 
ATOM      3  C   UNL     1      50.566  10.027  15.738  0.00  0.00    +0.000 C 
ENDROOT
BRANCH   2   4
ATOM      4  C   UNL     1      49.121   8.359  14.375  0.00  0.00    +0.000 A 
ATOM      5  C   UNL     1      49.349   9.118  13.216  0.00  0.00    +0.000 A 
ATOM      6  C   UNL     1      48.746   8.768  12.010  0.00  0.00    +0.000 A 
ATOM      7  F   UNL     1      48.988   9.504  10.918  0.00  0.00    +0.000 F 
ATOM      8  C   UNL     1      47.903   7.671  11.919  0.00  0.00    +0.000 A 
ATOM      9  C   UNL     1      47.639   6.910  13.054  0.00  0.00    +0.000 A 
ATOM     10  C   UNL     1      48.248   7.244  14.264  0.00  0.00    +0.000 A 
BRANCH   9  11
ATOM     11  O   UNL     1      46.797   5.846  12.861  0.00  0.00    +0.000 OA
BRANCH  11  12
ATOM     12  C   UNL     1      45.382   6.087  12.706  0.00  0.00    +0.000 C 
ATOM     13  C   UNL     1      44.736   5.836  11.368  0.00  0.00    +0.000 C 
ATOM     14  C   UNL     1      44.561   4.819  12.467  0.00  0.00    +0.000 C 
ATOM     15  C   UNL     1      45.289   3.501  12.349  0.00  0.00    +0.000 C 
ATOM     16  C   UNL     1      43.190   4.688  13.078  0.00  0.00    +0.000 C 
ENDBRANCH  11  12
ENDBRANCH   9  11
ENDBRANCH   2   4
BRANCH   2  17
ATOM     17  C   UNL     1      50.787   7.552  16.084  0.00  0.00    +0.000 C 
BRANCH  17  18
ATOM     18  O   UNL     1      50.520   7.026  17.392  0.00  0.00    +0.000 OA
BRANCH  18  19
ATOM     19  C   UNL     1      50.171   5.692  17.370  0.00  0.00    +0.000 A 
ATOM     20  C   UNL     1      51.164   4.776  17.681  0.00  0.00    +0.000 A 
ATOM     21  C   UNL     1      50.845   3.420  17.672  0.00  0.00    +0.000 A 
ATOM     22  C   UNL     1      49.547   3.029  17.357  0.00  0.00    +0.000 A 
ATOM     23  C   UNL     1      48.620   4.023  17.065  0.00  0.00    +0.000 A 
ATOM     24  N   UNL     1      48.906   5.349  17.062  0.00  0.00    +0.000 NA
BRANCH  23  25
ATOM     25  C   UNL     1      47.205   3.668  16.741  0.00  0.00    +0.000 C 
ATOM     26  N   UNL     1      46.705   4.253  15.604  0.00  0.00    +0.000 N 
ATOM     27  O   UNL     1      46.534   2.917  17.432  0.00  0.00    +0.000 OA
ATOM     28  H   UNL     1      47.300   4.859  15.055  0.00  0.00    +0.000 HD
ATOM     29  H   UNL     1      45.759   4.057  15.315  0.00  0.00    +0.000 HD
ENDBRANCH  23  25
ENDBRANCH  18  19
ENDBRANCH  17  18
ENDBRANCH   2  17
TORSDOF 7
ENDMDL
MODEL 8
REMARK VINA RESULT:    -6.057      4.889      8.838
REMARK INTER + INTRA:          -9.837
REMARK INTER:                  -8.505
REMARK INTRA:                  -1.332
REMARK UNBOUND:                -1.302
REMARK  Name = 
REMARK  11 active torsions:
REMARK  status: ('A' for Active; 'I' for Inactive)
REMARK    1  A    between atoms: C_1  and  C_2
REMARK    2  A    between atoms: C_2  and  C_3
REMARK    3  A    between atoms: C_2  and  C_4
REMARK    4  A    between atoms: C_2  and  C_15
REMARK    5  A    between atoms: C_4  and  O_5
REMARK    6  A    between atoms: O_5  and  C_6
REMARK    7  A    between atoms: C_10  and  C_11
REMARK    8  A    between atoms: C_20  and  O_21
REMARK    9  A    between atoms: O_21  and  C_22
REMARK   10  A    between atoms: C_24  and  C_25
REMARK   11  A    between atoms: C_24  and  C_26
REMARK                            x       y       z     vdW  Elec       q    Type
REMARK                         _______ _______ _______ _____ _____    ______ ____
ROOT
ATOM      1  C   UNL     1      48.244   7.394  19.314  0.00  0.00    +0.000 C 
ATOM      2  C   UNL     1      49.236   6.838  18.268  0.00  0.00    +0.000 C 
ATOM      3  C   UNL     1      49.754   8.047  17.449  0.00  0.00    +0.000 C 
ENDROOT
BRANCH   2   4
ATOM      4  C   UNL     1      48.526   5.762  17.417  0.00  0.00    +0.000 A 
ATOM      5  C   UNL     1      48.012   4.579  17.970  0.00  0.00    +0.000 A 
ATOM      6  C   UNL     1      47.355   3.649  17.167  0.00  0.00    +0.000 A 
ATOM      7  F   UNL     1      46.867   2.533  17.724  0.00  0.00    +0.000 F 
ATOM      8  C   UNL     1      47.196   3.858  15.806  0.00  0.00    +0.000 A 
ATOM      9  C   UNL     1      47.714   5.011  15.222  0.00  0.00    +0.000 A 
ATOM     10  C   UNL     1      48.361   5.955  16.019  0.00  0.00    +0.000 A 
BRANCH   9  11
ATOM     11  O   UNL     1      47.503   5.127  13.874  0.00  0.00    +0.000 OA
BRANCH  11  12
ATOM     12  C   UNL     1      47.480   6.441  13.275  0.00  0.00    +0.000 C 
ATOM     13  C   UNL     1      47.176   6.573  11.805  0.00  0.00    +0.000 C 
ATOM     14  C   UNL     1      46.092   6.883  12.806  0.00  0.00    +0.000 C 
ATOM     15  C   UNL     1      44.943   5.914  12.944  0.00  0.00    +0.000 C 
ATOM     16  C   UNL     1      45.677   8.324  12.954  0.00  0.00    +0.000 C 
ENDBRANCH  11  12
ENDBRANCH   9  11
ENDBRANCH   2   4
BRANCH   2  17
ATOM     17  C   UNL     1      50.454   6.188  18.982  0.00  0.00    +0.000 C 
BRANCH  17  18
ATOM     18  O   UNL     1      51.608   6.187  18.128  0.00  0.00    +0.000 OA
BRANCH  18  19
ATOM     19  C   UNL     1      52.207   4.947  18.044  0.00  0.00    +0.000 A 
ATOM     20  C   UNL     1      53.566   4.886  18.312  0.00  0.00    +0.000 A 
ATOM     21  C   UNL     1      54.203   3.649  18.240  0.00  0.00    +0.000 A 
ATOM     22  C   UNL     1      53.461   2.520  17.907  0.00  0.00    +0.000 A 
ATOM     23  C   UNL     1      52.102   2.683  17.662  0.00  0.00    +0.000 A 
ATOM     24  N   UNL     1      51.458   3.876  17.720  0.00  0.00    +0.000 NA
BRANCH  23  25
ATOM     25  C   UNL     1      51.247   1.506  17.321  0.00  0.00    +0.000 C 
ATOM     26  N   UNL     1      51.537   0.357  18.012  0.00  0.00    +0.000 N 
ATOM     27  O   UNL     1      50.356   1.552  16.486  0.00  0.00    +0.000 OA
ATOM     28  H   UNL     1      52.275   0.366  18.703  0.00  0.00    +0.000 HD
ATOM     29  H   UNL     1      50.998  -0.479  17.843  0.00  0.00    +0.000 HD
ENDBRANCH  23  25
ENDBRANCH  18  19
ENDBRANCH  17  18
ENDBRANCH   2  17
TORSDOF 7
ENDMDL
MODEL 9
REMARK VINA RESULT:    -5.868      2.429      4.360
REMARK INTER + INTRA:          -9.571
REMARK INTER:                  -8.262
REMARK INTRA:                  -1.309
REMARK UNBOUND:                -1.302
REMARK  Name = 
REMARK  11 active torsions:
REMARK  status: ('A' for Active; 'I' for Inactive)
REMARK    1  A    between atoms: C_1  and  C_2
REMARK    2  A    between atoms: C_2  and  C_3
REMARK    3  A    between atoms: C_2  and  C_4
REMARK    4  A    between atoms: C_2  and  C_15
REMARK    5  A    between atoms: C_4  and  O_5
REMARK    6  A    between atoms: O_5  and  C_6
REMARK    7  A    between atoms: C_10  and  C_11
REMARK    8  A    between atoms: C_20  and  O_21
REMARK    9  A    between atoms: O_21  and  C_22
REMARK   10  A    between atoms: C_24  and  C_25
REMARK   11  A    between atoms: C_24  and  C_26
REMARK                            x       y       z     vdW  Elec       q    Type
REMARK                         _______ _______ _______ _____ _____    ______ ____
ROOT
ATOM      1  C   UNL     1      48.272   7.360  11.867  0.00  0.00    +0.000 C 
ATOM      2  C   UNL     1      47.454   7.727  13.125  0.00  0.00    +0.000 C 
ATOM      3  C   UNL     1      47.867   9.165  13.528  0.00  0.00    +0.000 C 
ENDROOT
BRANCH   2   4
ATOM      4  C   UNL     1      47.709   6.671  14.223  0.00  0.00    +0.000 A 
ATOM      5  C   UNL     1      47.250   5.349  14.119  0.00  0.00    +0.000 A 
ATOM      6  C   UNL     1      47.526   4.422  15.123  0.00  0.00    +0.000 A 
ATOM      7  F   UNL     1      47.084   3.165  14.994  0.00  0.00    +0.000 F 
ATOM      8  C   UNL     1      48.252   4.777  16.249  0.00  0.00    +0.000 A 
ATOM      9  C   UNL     1      48.702   6.087  16.393  0.00  0.00    +0.000 A 
ATOM     10  C   UNL     1      48.443   7.018  15.388  0.00  0.00    +0.000 A 
BRANCH   9  11
ATOM     11  O   UNL     1      49.413   6.337  17.538  0.00  0.00    +0.000 OA
BRANCH  11  12
ATOM     12  C   UNL     1      49.662   5.255  18.462  0.00  0.00    +0.000 C 
ATOM     13  C   UNL     1      50.774   5.392  19.469  0.00  0.00    +0.000 C 
ATOM     14  C   UNL     1      49.351   5.602  19.919  0.00  0.00    +0.000 C 
ATOM     15  C   UNL     1      48.901   7.006  20.244  0.00  0.00    +0.000 C 
ATOM     16  C   UNL     1      48.749   4.558  20.824  0.00  0.00    +0.000 C 
ENDBRANCH  11  12
ENDBRANCH   9  11
ENDBRANCH   2   4
BRANCH   2  17
ATOM     17  C   UNL     1      45.937   7.743  12.787  0.00  0.00    +0.000 C 
BRANCH  17  18
ATOM     18  O   UNL     1      45.706   7.279  11.449  0.00  0.00    +0.000 OA
BRANCH  18  19
ATOM     19  C   UNL     1      44.973   6.111  11.408  0.00  0.00    +0.000 A 
ATOM     20  C   UNL     1      44.038   5.919  12.414  0.00  0.00    +0.000 A 
ATOM     21  C   UNL     1      43.278   4.753  12.401  0.00  0.00    +0.000 A 
ATOM     22  C   UNL     1      43.474   3.823  11.384  0.00  0.00    +0.000 A 
ATOM     23  C   UNL     1      44.431   4.109  10.417  0.00  0.00    +0.000 A 
ATOM     24  N   UNL     1      45.189   5.235  10.409  0.00  0.00    +0.000 NA
BRANCH  23  25
ATOM     25  C   UNL     1      44.675   3.161   9.288  0.00  0.00    +0.000 C 
ATOM     26  N   UNL     1      44.259   3.603   8.057  0.00  0.00    +0.000 N 
ATOM     27  O   UNL     1      45.200   2.068   9.440  0.00  0.00    +0.000 OA
ATOM     28  H   UNL     1      43.839   4.520   7.975  0.00  0.00    +0.000 HD
ATOM     29  H   UNL     1      44.395   3.023   7.244  0.00  0.00    +0.000 HD
ENDBRANCH  23  25
ENDBRANCH  18  19
ENDBRANCH  17  18
ENDBRANCH   2  17
TORSDOF 7
ENDMDL
