MODEL 1
REMARK VINA RESULT:    -8.224      0.000      0.000
REMARK INTER + INTRA:         -11.007
REMARK INTER:                 -10.388
REMARK INTRA:                  -0.619
REMARK UNBOUND:                -0.619
REMARK  Name = 
REMARK  5 active torsions:
REMARK  status: ('A' for Active; 'I' for Inactive)
REMARK    1  A    between atoms: N_1  and  C_2
REMARK    2  A    between atoms: C_2  and  C_3
REMARK    3  A    between atoms: C_6  and  C_7
REMARK    4  A    between atoms: C_7  and  N_8
REMARK    5  A    between atoms: C_14  and  C_15
REMARK                            x       y       z     vdW  Elec       q    Type
REMARK                         _______ _______ _______ _____ _____    ______ ____
ROOT
ATOM      1  N   UNL     1      44.098   4.281  11.143  0.00  0.00    +0.000 N 
ATOM      2  C   UNL     1      43.417   3.449  11.989  0.00  0.00    +0.000 A 
ATOM      3  N   UNL     1      43.926   3.462  13.205  0.00  0.00    +0.000 NA
ATOM      4  C   UNL     1      44.975   4.333  13.145  0.00  0.00    +0.000 A 
ATOM      5  N   UNL     1      45.824   4.621  14.157  0.00  0.00    +0.000 NA
ATOM      6  C   UNL     1      46.806   5.502  13.836  0.00  0.00    +0.000 A 
ATOM      7  C   UNL     1      46.984   6.122  12.602  0.00  0.00    +0.000 A 
ATOM      8  C   UNL     1      46.087   5.818  11.572  0.00  0.00    +0.000 A 
ATOM      9  C   UNL     1      45.091   4.890  11.877  0.00  0.00    +0.000 A 
ENDROOT
BRANCH   7  10
ATOM     10  C   UNL     1      48.078   7.078  12.298  0.00  0.00    +0.000 C 
ATOM     11  N   UNL     1      49.370   6.728  12.565  0.00  0.00    +0.000 N 
ATOM     12  O   UNL     1      47.835   8.172  11.796  0.00  0.00    +0.000 OA
ATOM     13  H   UNL     1      49.685   5.850  12.943  0.00  0.00    +0.000 HD
ATOM     14  H   UNL     1      50.079   7.408  12.317  0.00  0.00    +0.000 HD
ENDBRANCH   7  10
BRANCH   1  15
ATOM     15  C   UNL     1      43.990   4.394   9.695  0.00  0.00    +0.000 C 
BRANCH  15  19
ATOM     16  C   UNL     1      46.846   2.270   7.367  0.00  0.00    +0.000 A 
ATOM     17  C   UNL     1      46.781   3.653   7.227  0.00  0.00    +0.000 A 
ATOM     18  C   UNL     1      45.866   4.365   7.999  0.00  0.00    +0.000 A 
ATOM     19  C   UNL     1      45.042   3.685   8.899  0.00  0.00    +0.000 A 
ATOM     20  C   UNL     1      45.197   2.305   8.992  0.00  0.00    +0.000 A 
ATOM     21  N   UNL     1      46.072   1.591   8.254  0.00  0.00    +0.000 NA
BRANCH  16  22
ATOM     22  C   UNL     1      47.848   1.462   6.573  0.00  0.00    +0.000 C 
BRANCH  22  23
ATOM     23  N   UNL     1      48.416   2.241   5.471  0.00  0.00    +0.000 NA
ATOM     24  H   UNL     1      47.986   1.938   4.601  0.00  0.00    +0.000 HD
ATOM     25  H   UNL     1      49.402   1.981   5.400  0.00  0.00    +0.000 HD
ENDBRANCH  22  23
ENDBRANCH  16  22
ENDBRANCH  15  19
ENDBRANCH   1  15
TORSDOF 5
ENDMDL
MODEL 2
REMARK VINA RESULT:    -8.196      1.878      2.484
REMARK INTER + INTRA:         -10.972
REMARK INTER:                 -10.411
REMARK INTRA:                  -0.561
REMARK UNBOUND:                -0.619
REMARK  Name = 
REMARK  5 active torsions:
REMARK  status: ('A' for Active; 'I' for Inactive)
REMARK    1  A    between atoms: N_1  and  C_2
REMARK    2  A    between atoms: C_2  and  C_3
REMARK    3  A    between atoms: C_6  and  C_7
REMARK    4  A    between atoms: C_7  and  N_8
REMARK    5  A    between atoms: C_14  and  C_15
REMARK                            x       y       z     vdW  Elec       q    Type
REMARK                         _______ _______ _______ _____ _____    ______ ____
ROOT
ATOM      1  N   UNL     1      44.839   3.678  11.605  0.00  0.00    +0.000 N 
ATOM      2  C   UNL     1      45.614   2.966  12.479  0.00  0.00    +0.000 A 
ATOM      3  N   UNL     1      46.280   3.754  13.299  0.00  0.00    +0.000 NA
ATOM      4  C   UNL     1      45.924   5.023  12.944  0.00  0.00    +0.000 A 
ATOM      5  N   UNL     1      46.407   6.163  13.488  0.00  0.00    +0.000 NA
ATOM      6  C   UNL     1      45.914   7.303  12.939  0.00  0.00    +0.000 A 
ATOM      7  C   UNL     1      44.972   7.383  11.917  0.00  0.00    +0.000 A 
ATOM      8  C   UNL     1      44.477   6.191  11.376  0.00  0.00    +0.000 A 
ATOM      9  C   UNL     1      44.997   5.011  11.907  0.00  0.00    +0.000 A 
ENDROOT
BRANCH   7  10
ATOM     10  C   UNL     1      44.465   8.657  11.346  0.00  0.00    +0.000 C 
ATOM     11  N   UNL     1      43.225   8.694  10.778  0.00  0.00    +0.000 N 
ATOM     12  O   UNL     1      45.143   9.679  11.394  0.00  0.00    +0.000 OA
ATOM     13  H   UNL     1      42.575   7.928  10.715  0.00  0.00    +0.000 HD
ATOM     14  H   UNL     1      42.920   9.593  10.425  0.00  0.00    +0.000 HD
ENDBRANCH   7  10
BRANCH   1  15
ATOM     15  C   UNL     1      44.128   3.205  10.426  0.00  0.00    +0.000 C 
BRANCH  15  19
ATOM     16  C   UNL     1      46.584   2.796   6.978  0.00  0.00    +0.000 A 
ATOM     17  C   UNL     1      46.345   1.665   7.753  0.00  0.00    +0.000 A 
ATOM     18  C   UNL     1      45.524   1.778   8.873  0.00  0.00    +0.000 A 
ATOM     19  C   UNL     1      44.954   3.013   9.191  0.00  0.00    +0.000 A 
ATOM     20  C   UNL     1      45.227   4.081   8.343  0.00  0.00    +0.000 A 
ATOM     21  N   UNL     1      46.021   4.000   7.255  0.00  0.00    +0.000 NA
BRANCH  16  22
ATOM     22  C   UNL     1      47.442   2.709   5.735  0.00  0.00    +0.000 C 
BRANCH  22  23
ATOM     23  N   UNL     1      48.469   1.673   5.860  0.00  0.00    +0.000 NA
ATOM     24  H   UNL     1      48.594   1.227   4.954  0.00  0.00    +0.000 HD
ATOM     25  H   UNL     1      48.090   0.951   6.476  0.00  0.00    +0.000 HD
ENDBRANCH  22  23
ENDBRANCH  16  22
ENDBRANCH  15  19
ENDBRANCH   1  15
TORSDOF 5
ENDMDL
MODEL 3
REMARK VINA RESULT:    -7.390      2.136      2.587
REMARK INTER + INTRA:          -9.954
REMARK INTER:                  -9.393
REMARK INTRA:                  -0.561
REMARK UNBOUND:                -0.619
REMARK  Name = 
REMARK  5 active torsions:
REMARK  status: ('A' for Active; 'I' for Inactive)
REMARK    1  A    between atoms: N_1  and  C_2
REMARK    2  A    between atoms: C_2  and  C_3
REMARK    3  A    between atoms: C_6  and  C_7
REMARK    4  A    between atoms: C_7  and  N_8
REMARK    5  A    between atoms: C_14  and  C_15
REMARK                            x       y       z     vdW  Elec       q    Type
REMARK                         _______ _______ _______ _____ _____    ______ ____
ROOT
ATOM      1  N   UNL     1      44.723   4.622  11.601  0.00  0.00    +0.000 N 
ATOM      2  C   UNL     1      45.456   3.974  12.557  0.00  0.00    +0.000 A 
ATOM      3  N   UNL     1      46.072   4.818  13.359  0.00  0.00    +0.000 NA
ATOM      4  C   UNL     1      45.727   6.059  12.907  0.00  0.00    +0.000 A 
ATOM      5  N   UNL     1      46.174   7.235  13.402  0.00  0.00    +0.000 NA
ATOM      6  C   UNL     1      45.703   8.334  12.757  0.00  0.00    +0.000 A 
ATOM      7  C   UNL     1      44.814   8.341  11.685  0.00  0.00    +0.000 A 
ATOM      8  C   UNL     1      44.356   7.113  11.196  0.00  0.00    +0.000 A 
ATOM      9  C   UNL     1      44.856   5.973  11.826  0.00  0.00    +0.000 A 
ENDROOT
BRANCH   7  10
ATOM     10  C   UNL     1      44.330   9.571  11.010  0.00  0.00    +0.000 C 
ATOM     11  N   UNL     1      43.180   9.528  10.277  0.00  0.00    +0.000 N 
ATOM     12  O   UNL     1      44.945  10.629  11.117  0.00  0.00    +0.000 OA
ATOM     13  H   UNL     1      42.582   8.728  10.150  0.00  0.00    +0.000 HD
ATOM     14  H   UNL     1      42.883  10.401   9.857  0.00  0.00    +0.000 HD
ENDBRANCH   7  10
BRANCH   1  15
ATOM     15  C   UNL     1      44.077   4.069  10.419  0.00  0.00    +0.000 C 
BRANCH  15  19
ATOM     16  C   UNL     1      46.528   2.335   7.406  0.00  0.00    +0.000 A 
ATOM     17  C   UNL     1      46.380   3.719   7.419  0.00  0.00    +0.000 A 
ATOM     18  C   UNL     1      45.600   4.304   8.413  0.00  0.00    +0.000 A 
ATOM     19  C   UNL     1      44.988   3.498   9.377  0.00  0.00    +0.000 A 
ATOM     20  C   UNL     1      45.214   2.127   9.302  0.00  0.00    +0.000 A 
ATOM     21  N   UNL     1      45.964   1.535   8.348  0.00  0.00    +0.000 NA
BRANCH  16  22
ATOM     22  C   UNL     1      47.395   1.663   6.366  0.00  0.00    +0.000 C 
BRANCH  22  23
ATOM     23  N   UNL     1      48.626   2.417   6.121  0.00  0.00    +0.000 NA
ATOM     24  H   UNL     1      48.383   3.387   5.934  0.00  0.00    +0.000 HD
ATOM     25  H   UNL     1      49.028   2.059   5.252  0.00  0.00    +0.000 HD
ENDBRANCH  22  23
ENDBRANCH  16  22
ENDBRANCH  15  19
ENDBRANCH   1  15
TORSDOF 5
ENDMDL
MODEL 4
REMARK VINA RESULT:    -7.338      1.670      2.016
REMARK INTER + INTRA:          -9.888
REMARK INTER:                  -9.455
REMARK INTRA:                  -0.433
REMARK UNBOUND:                -0.619
REMARK  Name = 
REMARK  5 active torsions:
REMARK  status: ('A' for Active; 'I' for Inactive)
REMARK    1  A    between atoms: N_1  and  C_2
REMARK    2  A    between atoms: C_2  and  C_3
REMARK    3  A    between atoms: C_6  and  C_7
REMARK    4  A    between atoms: C_7  and  N_8
REMARK    5  A    between atoms: C_14  and  C_15
REMARK                            x       y       z     vdW  Elec       q    Type
REMARK                         _______ _______ _______ _____ _____    ______ ____
ROOT
ATOM      1  N   UNL     1      44.277   4.625  10.904  0.00  0.00    +0.000 N 
ATOM      2  C   UNL     1      43.037   5.199  10.834  0.00  0.00    +0.000 A 
ATOM      3  N   UNL     1      43.011   6.383  11.412  0.00  0.00    +0.000 NA
ATOM      4  C   UNL     1      44.280   6.584  11.873  0.00  0.00    +0.000 A 
ATOM      5  N   UNL     1      44.704   7.654  12.582  0.00  0.00    +0.000 NA
ATOM      6  C   UNL     1      46.011   7.605  12.951  0.00  0.00    +0.000 A 
ATOM      7  C   UNL     1      46.913   6.589  12.646  0.00  0.00    +0.000 A 
ATOM      8  C   UNL     1      46.455   5.497  11.901  0.00  0.00    +0.000 A 
ATOM      9  C   UNL     1      45.107   5.517  11.543  0.00  0.00    +0.000 A 
ENDROOT
BRANCH   7  10
ATOM     10  C   UNL     1      48.334   6.579  13.075  0.00  0.00    +0.000 C 
ATOM     11  N   UNL     1      49.292   7.082  12.243  0.00  0.00    +0.000 N 
ATOM     12  O   UNL     1      48.655   6.137  14.175  0.00  0.00    +0.000 OA
ATOM     13  H   UNL     1      49.139   7.497  11.339  0.00  0.00    +0.000 HD
ATOM     14  H   UNL     1      50.242   7.071  12.594  0.00  0.00    +0.000 HD
ENDBRANCH   7  10
BRANCH   1  15
ATOM     15  C   UNL     1      44.667   3.260  10.580  0.00  0.00    +0.000 C 
BRANCH  15  19
ATOM     16  C   UNL     1      46.621   2.806   6.830  0.00  0.00    +0.000 A 
ATOM     17  C   UNL     1      46.356   1.662   7.577  0.00  0.00    +0.000 A 
ATOM     18  C   UNL     1      45.696   1.792   8.796  0.00  0.00    +0.000 A 
ATOM     19  C   UNL     1      45.309   3.058   9.242  0.00  0.00    +0.000 A 
ATOM     20  C   UNL     1      45.591   4.141   8.417  0.00  0.00    +0.000 A 
ATOM     21  N   UNL     1      46.232   4.044   7.232  0.00  0.00    +0.000 NA
BRANCH  16  22
ATOM     22  C   UNL     1      47.305   2.706   5.485  0.00  0.00    +0.000 C 
BRANCH  22  23
ATOM     23  N   UNL     1      48.499   1.862   5.548  0.00  0.00    +0.000 NA
ATOM     24  H   UNL     1      49.258   2.399   5.961  0.00  0.00    +0.000 HD
ATOM     25  H   UNL     1      48.783   1.674   4.584  0.00  0.00    +0.000 HD
ENDBRANCH  22  23
ENDBRANCH  16  22
ENDBRANCH  15  19
ENDBRANCH   1  15
TORSDOF 5
ENDMDL
MODEL 5
REMARK VINA RESULT:    -6.825      2.448      6.305
REMARK INTER + INTRA:          -9.239
REMARK INTER:                  -8.755
REMARK INTRA:                  -0.484
REMARK UNBOUND:                -0.619
REMARK  Name = 
REMARK  5 active torsions:
REMARK  status: ('A' for Active; 'I' for Inactive)
REMARK    1  A    between atoms: N_1  and  C_2
REMARK    2  A    between atoms: C_2  and  C_3
REMARK    3  A    between atoms: C_6  and  C_7
REMARK    4  A    between atoms: C_7  and  N_8
REMARK    5  A    between atoms: C_14  and  C_15
REMARK                            x       y       z     vdW  Elec       q    Type
REMARK                         _______ _______ _______ _____ _____    ______ ____
ROOT
ATOM      1  N   UNL     1      44.054   5.064  11.099  0.00  0.00    +0.000 N 
ATOM      2  C   UNL     1      43.183   4.362  11.887  0.00  0.00    +0.000 A 
ATOM      3  N   UNL     1      43.096   3.100  11.518  0.00  0.00    +0.000 NA
ATOM      4  C   UNL     1      43.939   2.979  10.452  0.00  0.00    +0.000 A 
ATOM      5  N   UNL     1      44.130   1.861   9.716  0.00  0.00    +0.000 NA
ATOM      6  C   UNL     1      45.004   2.006   8.686  0.00  0.00    +0.000 A 
ATOM      7  C   UNL     1      45.705   3.165   8.359  0.00  0.00    +0.000 A 
ATOM      8  C   UNL     1      45.500   4.306   9.141  0.00  0.00    +0.000 A 
ATOM      9  C   UNL     1      44.581   4.183  10.183  0.00  0.00    +0.000 A 
ENDROOT
BRANCH   7  10
ATOM     10  C   UNL     1      46.649   3.275   7.218  0.00  0.00    +0.000 C 
ATOM     11  N   UNL     1      47.634   2.343   7.068  0.00  0.00    +0.000 N 
ATOM     12  O   UNL     1      46.543   4.186   6.402  0.00  0.00    +0.000 OA
ATOM     13  H   UNL     1      47.792   1.541   7.656  0.00  0.00    +0.000 HD
ATOM     14  H   UNL     1      48.236   2.453   6.261  0.00  0.00    +0.000 HD
ENDBRANCH   7  10
BRANCH   1  15
ATOM     15  C   UNL     1      44.271   6.503  11.042  0.00  0.00    +0.000 C 
BRANCH  15  19
ATOM     16  C   UNL     1      47.248   8.065  13.648  0.00  0.00    +0.000 A 
ATOM     17  C   UNL     1      47.411   6.771  13.163  0.00  0.00    +0.000 A 
ATOM     18  C   UNL     1      46.457   6.253  12.290  0.00  0.00    +0.000 A 
ATOM     19  C   UNL     1      45.364   7.039  11.914  0.00  0.00    +0.000 A 
ATOM     20  C   UNL     1      45.298   8.330  12.427  0.00  0.00    +0.000 A 
ATOM     21  N   UNL     1      46.207   8.855  13.276  0.00  0.00    +0.000 NA
BRANCH  16  22
ATOM     22  C   UNL     1      48.278   8.678  14.569  0.00  0.00    +0.000 C 
BRANCH  22  23
ATOM     23  N   UNL     1      47.667   9.187  15.798  0.00  0.00    +0.000 NA
ATOM     24  H   UNL     1      47.922   8.574  16.569  0.00  0.00    +0.000 HD
ATOM     25  H   UNL     1      46.654   9.090  15.690  0.00  0.00    +0.000 HD
ENDBRANCH  22  23
ENDBRANCH  16  22
ENDBRANCH  15  19
ENDBRANCH   1  15
TORSDOF 5
ENDMDL
MODEL 6
REMARK VINA RESULT:    -6.387      2.854      4.456
REMARK INTER + INTRA:          -8.687
REMARK INTER:                  -8.356
REMARK INTRA:                  -0.331
REMARK UNBOUND:                -0.619
REMARK  Name = 
REMARK  5 active torsions:
REMARK  status: ('A' for Active; 'I' for Inactive)
REMARK    1  A    between atoms: N_1  and  C_2
REMARK    2  A    between atoms: C_2  and  C_3
REMARK    3  A    between atoms: C_6  and  C_7
REMARK    4  A    between atoms: C_7  and  N_8
REMARK    5  A    between atoms: C_14  and  C_15
REMARK                            x       y       z     vdW  Elec       q    Type
REMARK                         _______ _______ _______ _____ _____    ______ ____
ROOT
ATOM      1  N   UNL     1      46.672   6.220  13.230  0.00  0.00    +0.000 N 
ATOM      2  C   UNL     1      47.411   7.289  12.803  0.00  0.00    +0.000 A 
ATOM      3  N   UNL     1      48.445   7.515  13.588  0.00  0.00    +0.000 NA
ATOM      4  C   UNL     1      48.374   6.560  14.560  0.00  0.00    +0.000 A 
ATOM      5  N   UNL     1      49.209   6.440  15.616  0.00  0.00    +0.000 NA
ATOM      6  C   UNL     1      48.908   5.419  16.460  0.00  0.00    +0.000 A 
ATOM      7  C   UNL     1      47.862   4.511  16.313  0.00  0.00    +0.000 A 
ATOM      8  C   UNL     1      47.018   4.647  15.206  0.00  0.00    +0.000 A 
ATOM      9  C   UNL     1      47.294   5.711  14.347  0.00  0.00    +0.000 A 
ENDROOT
BRANCH   7  10
ATOM     10  C   UNL     1      47.572   3.412  17.267  0.00  0.00    +0.000 C 
ATOM     11  N   UNL     1      48.575   2.916  18.049  0.00  0.00    +0.000 N 
ATOM     12  O   UNL     1      46.437   2.954  17.371  0.00  0.00    +0.000 OA
ATOM     13  H   UNL     1      49.529   3.236  18.069  0.00  0.00    +0.000 HD
ATOM     14  H   UNL     1      48.317   2.182  18.697  0.00  0.00    +0.000 HD
ENDBRANCH   7  10
BRANCH   1  15
ATOM     15  C   UNL     1      45.362   5.779  12.773  0.00  0.00    +0.000 C 
BRANCH  15  19
ATOM     16  C   UNL     1      45.424   3.937   8.940  0.00  0.00    +0.000 A 
ATOM     17  C   UNL     1      44.978   3.187  10.023  0.00  0.00    +0.000 A 
ATOM     18  C   UNL     1      44.929   3.783  11.281  0.00  0.00    +0.000 A 
ATOM     19  C   UNL     1      45.321   5.116  11.431  0.00  0.00    +0.000 A 
ATOM     20  C   UNL     1      45.727   5.796  10.287  0.00  0.00    +0.000 A 
ATOM     21  N   UNL     1      45.786   5.241   9.058  0.00  0.00    +0.000 NA
BRANCH  16  22
ATOM     22  C   UNL     1      45.460   3.339   7.551  0.00  0.00    +0.000 C 
BRANCH  22  23
ATOM     23  N   UNL     1      46.490   3.966   6.721  0.00  0.00    +0.000 NA
ATOM     24  H   UNL     1      46.738   4.864   7.129  0.00  0.00    +0.000 HD
ATOM     25  H   UNL     1      46.058   4.180   5.820  0.00  0.00    +0.000 HD
ENDBRANCH  22  23
ENDBRANCH  16  22
ENDBRANCH  15  19
ENDBRANCH   1  15
TORSDOF 5
ENDMDL
MODEL 7
REMARK VINA RESULT:    -6.339      4.152      7.528
REMARK INTER + INTRA:          -8.625
REMARK INTER:                  -8.259
REMARK INTRA:                  -0.367
REMARK UNBOUND:                -0.619
REMARK  Name = 
REMARK  5 active torsions:
REMARK  status: ('A' for Active; 'I' for Inactive)
REMARK    1  A    between atoms: N_1  and  C_2
REMARK    2  A    between atoms: C_2  and  C_3
REMARK    3  A    between atoms: C_6  and  C_7
REMARK    4  A    between atoms: C_7  and  N_8
REMARK    5  A    between atoms: C_14  and  C_15
REMARK                            x       y       z     vdW  Elec       q    Type
REMARK                         _______ _______ _______ _____ _____    ______ ____
ROOT
ATOM      1  N   UNL     1      47.402   5.238  15.046  0.00  0.00    +0.000 N 
ATOM      2  C   UNL     1      48.446   6.066  14.739  0.00  0.00    +0.000 A 
ATOM      3  N   UNL     1      48.348   6.545  13.515  0.00  0.00    +0.000 NA
ATOM      4  C   UNL     1      47.199   6.008  13.011  0.00  0.00    +0.000 A 
ATOM      5  N   UNL     1      46.725   6.186  11.757  0.00  0.00    +0.000 NA
ATOM      6  C   UNL     1      45.573   5.520  11.489  0.00  0.00    +0.000 A 
ATOM      7  C   UNL     1      44.860   4.719  12.379  0.00  0.00    +0.000 A 
ATOM      8  C   UNL     1      45.363   4.558  13.674  0.00  0.00    +0.000 A 
ATOM      9  C   UNL     1      46.564   5.210  13.955  0.00  0.00    +0.000 A 
ENDROOT
BRANCH   7  10
ATOM     10  C   UNL     1      43.604   4.006  12.037  0.00  0.00    +0.000 C 
ATOM     11  N   UNL     1      42.498   4.724  11.685  0.00  0.00    +0.000 N 
ATOM     12  O   UNL     1      43.554   2.779  12.053  0.00  0.00    +0.000 OA
ATOM     13  H   UNL     1      42.436   5.725  11.608  0.00  0.00    +0.000 HD
ATOM     14  H   UNL     1      41.674   4.187  11.441  0.00  0.00    +0.000 HD
ENDBRANCH   7  10
BRANCH   1  15
ATOM     15  C   UNL     1      47.247   4.357  16.196  0.00  0.00    +0.000 C 
BRANCH  15  19
ATOM     16  C   UNL     1      50.757   2.173  17.194  0.00  0.00    +0.000 A 
ATOM     17  C   UNL     1      50.566   3.418  17.786  0.00  0.00    +0.000 A 
ATOM     18  C   UNL     1      49.410   4.135  17.487  0.00  0.00    +0.000 A 
ATOM     19  C   UNL     1      48.467   3.594  16.610  0.00  0.00    +0.000 A 
ATOM     20  C   UNL     1      48.729   2.332  16.088  0.00  0.00    +0.000 A 
ATOM     21  N   UNL     1      49.842   1.617  16.359  0.00  0.00    +0.000 NA
BRANCH  16  22
ATOM     22  C   UNL     1      51.981   1.346  17.518  0.00  0.00    +0.000 C 
BRANCH  22  23
ATOM     23  N   UNL     1      51.628   0.116  18.229  0.00  0.00    +0.000 NA
ATOM     24  H   UNL     1      51.819  -0.678  17.623  0.00  0.00    +0.000 HD
ATOM     25  H   UNL     1      50.614   0.128  18.360  0.00  0.00    +0.000 HD
ENDBRANCH  22  23
ENDBRANCH  16  22
ENDBRANCH  15  19
ENDBRANCH   1  15
TORSDOF 5
ENDMDL
MODEL 8
REMARK VINA RESULT:    -6.109      3.509      7.284
REMARK INTER + INTRA:          -8.335
REMARK INTER:                  -7.811
REMARK INTRA:                  -0.524
REMARK UNBOUND:                -0.619
REMARK  Name = 
REMARK  5 active torsions:
REMARK  status: ('A' for Active; 'I' for Inactive)
REMARK    1  A    between atoms: N_1  and  C_2
REMARK    2  A    between atoms: C_2  and  C_3
REMARK    3  A    between atoms: C_6  and  C_7
REMARK    4  A    between atoms: C_7  and  N_8
REMARK    5  A    between atoms: C_14  and  C_15
REMARK                            x       y       z     vdW  Elec       q    Type
REMARK                         _______ _______ _______ _____ _____    ______ ____
ROOT
ATOM      1  N   UNL     1      46.456   6.634  12.886  0.00  0.00    +0.000 N 
ATOM      2  C   UNL     1      46.116   7.959  12.852  0.00  0.00    +0.000 A 
ATOM      3  N   UNL     1      44.952   8.152  12.266  0.00  0.00    +0.000 NA
ATOM      4  C   UNL     1      44.521   6.908  11.906  0.00  0.00    +0.000 A 
ATOM      5  N   UNL     1      43.387   6.629  11.225  0.00  0.00    +0.000 NA
ATOM      6  C   UNL     1      43.196   5.310  10.962  0.00  0.00    +0.000 A 
ATOM      7  C   UNL     1      44.035   4.266  11.346  0.00  0.00    +0.000 A 
ATOM      8  C   UNL     1      45.197   4.577  12.059  0.00  0.00    +0.000 A 
ATOM      9  C   UNL     1      45.424   5.930  12.309  0.00  0.00    +0.000 A 
ENDROOT
BRANCH   7  10
ATOM     10  C   UNL     1      43.784   2.837  11.031  0.00  0.00    +0.000 C 
ATOM     11  N   UNL     1      44.491   2.234  10.032  0.00  0.00    +0.000 N 
ATOM     12  O   UNL     1      42.960   2.189  11.670  0.00  0.00    +0.000 OA
ATOM     13  H   UNL     1      45.210   2.658   9.469  0.00  0.00    +0.000 HD
ATOM     14  H   UNL     1      44.297   1.252   9.874  0.00  0.00    +0.000 HD
ENDBRANCH   7  10
BRANCH   1  15
ATOM     15  C   UNL     1      47.730   6.030  13.250  0.00  0.00    +0.000 C 
BRANCH  15  19
ATOM     16  C   UNL     1      48.034   4.869  17.330  0.00  0.00    +0.000 A 
ATOM     17  C   UNL     1      47.258   4.088  16.479  0.00  0.00    +0.000 A 
ATOM     18  C   UNL     1      47.167   4.442  15.136  0.00  0.00    +0.000 A 
ATOM     19  C   UNL     1      47.857   5.563  14.667  0.00  0.00    +0.000 A 
ATOM     20  C   UNL     1      48.630   6.267  15.583  0.00  0.00    +0.000 A 
ATOM     21  N   UNL     1      48.733   5.948  16.891  0.00  0.00    +0.000 NA
BRANCH  16  22
ATOM     22  C   UNL     1      48.188   4.500  18.788  0.00  0.00    +0.000 C 
BRANCH  22  23
ATOM     23  N   UNL     1      49.037   3.320  18.959  0.00  0.00    +0.000 NA
ATOM     24  H   UNL     1      48.630   2.547  18.439  0.00  0.00    +0.000 HD
ATOM     25  H   UNL     1      48.980   3.052  19.944  0.00  0.00    +0.000 HD
ENDBRANCH  22  23
ENDBRANCH  16  22
ENDBRANCH  15  19
ENDBRANCH   1  15
TORSDOF 5
ENDMDL
MODEL 9
REMARK VINA RESULT:    -5.727      2.603      3.696
REMARK INTER + INTRA:          -7.853
REMARK INTER:                  -7.395
REMARK INTRA:                  -0.458
REMARK UNBOUND:                -0.619
REMARK  Name = 
REMARK  5 active torsions:
REMARK  status: ('A' for Active; 'I' for Inactive)
REMARK    1  A    between atoms: N_1  and  C_2
REMARK    2  A    between atoms: C_2  and  C_3
REMARK    3  A    between atoms: C_6  and  C_7
REMARK    4  A    between atoms: C_7  and  N_8
REMARK    5  A    between atoms: C_14  and  C_15
REMARK                            x       y       z     vdW  Elec       q    Type
REMARK                         _______ _______ _______ _____ _____    ______ ____
ROOT
ATOM      1  N   UNL     1      45.150   7.564  11.777  0.00  0.00    +0.000 N 
ATOM      2  C   UNL     1      44.505   8.707  11.392  0.00  0.00    +0.000 A 
ATOM      3  N   UNL     1      45.184   9.788  11.719  0.00  0.00    +0.000 NA
ATOM      4  C   UNL     1      46.310   9.329  12.340  0.00  0.00    +0.000 A 
ATOM      5  N   UNL     1      47.278  10.094  12.892  0.00  0.00    +0.000 NA
ATOM      6  C   UNL     1      48.285   9.395  13.477  0.00  0.00    +0.000 A 
ATOM      7  C   UNL     1      48.402   8.008  13.527  0.00  0.00    +0.000 A 
ATOM      8  C   UNL     1      47.395   7.236  12.940  0.00  0.00    +0.000 A 
ATOM      9  C   UNL     1      46.336   7.939  12.363  0.00  0.00    +0.000 A 
ENDROOT
BRANCH   7  10
ATOM     10  C   UNL     1      49.523   7.289  14.183  0.00  0.00    +0.000 C 
ATOM     11  N   UNL     1      50.810   7.635  13.886  0.00  0.00    +0.000 N 
ATOM     12  O   UNL     1      49.306   6.398  14.999  0.00  0.00    +0.000 OA
ATOM     13  H   UNL     1      51.102   8.367  13.260  0.00  0.00    +0.000 HD
ATOM     14  H   UNL     1      51.535   7.127  14.377  0.00  0.00    +0.000 HD
ENDBRANCH   7  10
BRANCH   1  15
ATOM     15  C   UNL     1      44.648   6.197  11.790  0.00  0.00    +0.000 C 
BRANCH  15  19
ATOM     16  C   UNL     1      45.479   3.911   8.301  0.00  0.00    +0.000 A 
ATOM     17  C   UNL     1      44.449   3.488   9.135  0.00  0.00    +0.000 A 
ATOM     18  C   UNL     1      44.149   4.238  10.269  0.00  0.00    +0.000 A 
ATOM     19  C   UNL     1      44.878   5.398  10.545  0.00  0.00    +0.000 A 
ATOM     20  C   UNL     1      45.871   5.759   9.640  0.00  0.00    +0.000 A 
ATOM     21  N   UNL     1      46.184   5.049   8.536  0.00  0.00    +0.000 NA
BRANCH  16  22
ATOM     22  C   UNL     1      45.815   3.145   7.042  0.00  0.00    +0.000 C 
BRANCH  22  23
ATOM     23  N   UNL     1      46.825   3.839   6.241  0.00  0.00    +0.000 NA
ATOM     24  H   UNL     1      47.446   4.346   6.867  0.00  0.00    +0.000 HD
ATOM     25  H   UNL     1      46.335   4.553   5.697  0.00  0.00    +0.000 HD
ENDBRANCH  22  23
ENDBRANCH  16  22
ENDBRANCH  15  19
ENDBRANCH   1  15
TORSDOF 5
ENDMDL
