MODEL 1
REMARK VINA RESULT:    -8.388      0.000      0.000
REMARK INTER + INTRA:         -12.435
REMARK INTER:                 -11.330
REMARK INTRA:                  -1.105
REMARK UNBOUND:                -1.105
REMARK  Name = 
REMARK  7 active torsions:
REMARK  status: ('A' for Active; 'I' for Inactive)
REMARK    1  A    between atoms: C_1  and  C_2
REMARK    2  A    between atoms: C_2  and  N_3
REMARK    3  A    between atoms: C_2  and  C_16
REMARK    4  A    between atoms: C_4  and  C_6
REMARK    5  A    between atoms: C_19  and  C_20
REMARK    6  A    between atoms: C_20  and  N_21
REMARK    7  A    between atoms: C_22  and  C_24
REMARK                            x       y       z     vdW  Elec       q    Type
REMARK                         _______ _______ _______ _____ _____    ______ ____
ROOT
ATOM      1  C   UNL     1      47.552   3.375  15.333  0.00  0.00    +0.000 C 
ATOM      2  C   UNL     1      46.981   4.761  15.004  0.00  0.00    +0.000 C 
ENDROOT
BRANCH   2   3
ATOM      3  C   UNL     1      46.160   4.702  13.713  0.00  0.00    +0.000 A 
ATOM      4  C   UNL     1      45.791   5.876  13.052  0.00  0.00    +0.000 A 
ATOM      5  C   UNL     1      45.004   5.799  11.905  0.00  0.00    +0.000 A 
ATOM      6  C   UNL     1      44.594   4.555  11.427  0.00  0.00    +0.000 A 
ATOM      7  C   UNL     1      45.007   3.437  12.145  0.00  0.00    +0.000 A 
ATOM      8  N   UNL     1      45.770   3.482  13.264  0.00  0.00    +0.000 NA
BRANCH   6   9
ATOM      9  C   UNL     1      43.705   4.424  10.228  0.00  0.00    +0.000 C 
BRANCH   9  10
ATOM     10  N   UNL     1      44.280   3.541   9.238  0.00  0.00    +0.000 N 
ATOM     11  C   UNL     1      45.296   3.963   8.414  0.00  0.00    +0.000 C 
ATOM     12  O   UNL     1      45.746   5.107   8.449  0.00  0.00    +0.000 OA
ATOM     13  H   UNL     1      43.974   2.577   9.214  0.00  0.00    +0.000 HD
BRANCH  11  14
ATOM     14  C   UNL     1      45.853   2.919   7.452  0.00  0.00    +0.000 C 
ATOM     15  C   UNL     1      46.326   1.657   8.179  0.00  0.00    +0.000 C 
ATOM     16  C   UNL     1      46.947   0.676   7.193  0.00  0.00    +0.000 C 
ATOM     17  O   UNL     1      48.011   1.302   6.472  0.00  0.00    +0.000 OA
ATOM     18  C   UNL     1      47.553   2.402   5.686  0.00  0.00    +0.000 C 
ATOM     19  C   UNL     1      46.978   3.489   6.583  0.00  0.00    +0.000 C 
ENDBRANCH  11  14
ENDBRANCH   9  10
ENDBRANCH   6   9
ENDBRANCH   2   3
BRANCH   2  20
ATOM     20  N   UNL     1      48.027   5.776  14.890  0.00  0.00    +0.000 N 
ATOM     21  C   UNL     1      48.641   6.328  15.986  0.00  0.00    +0.000 C 
ATOM     22  O   UNL     1      48.418   5.958  17.133  0.00  0.00    +0.000 OA
ATOM     23  H   UNL     1      47.998   6.337  14.042  0.00  0.00    +0.000 HD
BRANCH  21  24
ATOM     24  C   UNL     1      49.655   7.351  15.713  0.00  0.00    +0.000 A 
ATOM     25  C   UNL     1      50.968   7.144  16.116  0.00  0.00    +0.000 A 
ATOM     26  S   UNL     1      52.011   8.436  15.731  0.00  0.00    +0.000 S 
ATOM     27  C   UNL     1      50.737   9.333  15.050  0.00  0.00    +0.000 A 
ATOM     28  N   UNL     1      50.941  10.585  14.560  0.00  0.00    +0.000 NA
ATOM     29  C   UNL     1      49.879  11.163  14.113  0.00  0.00    +0.000 A 
ATOM     30  N   UNL     1      48.631  10.596  14.089  0.00  0.00    +0.000 N 
ATOM     31  C   UNL     1      48.386   9.312  14.515  0.00  0.00    +0.000 A 
ATOM     32  O   UNL     1      47.286   8.789  14.386  0.00  0.00    +0.000 OA
ATOM     33  C   UNL     1      49.540   8.638  15.077  0.00  0.00    +0.000 A 
ATOM     34  H   UNL     1      47.845  11.094  13.698  0.00  0.00    +0.000 HD
ENDBRANCH  21  24
ENDBRANCH   2  20
TORSDOF 6
ENDMDL
MODEL 2
REMARK VINA RESULT:    -7.828      2.479      2.808
REMARK INTER + INTRA:         -11.679
REMARK INTER:                 -10.546
REMARK INTRA:                  -1.133
REMARK UNBOUND:                -1.105
REMARK  Name = 
REMARK  7 active torsions:
REMARK  status: ('A' for Active; 'I' for Inactive)
REMARK    1  A    between atoms: C_1  and  C_2
REMARK    2  A    between atoms: C_2  and  N_3
REMARK    3  A    between atoms: C_2  and  C_16
REMARK    4  A    between atoms: C_4  and  C_6
REMARK    5  A    between atoms: C_19  and  C_20
REMARK    6  A    between atoms: C_20  and  N_21
REMARK    7  A    between atoms: C_22  and  C_24
REMARK                            x       y       z     vdW  Elec       q    Type
REMARK                         _______ _______ _______ _____ _____    ______ ____
ROOT
ATOM      1  C   UNL     1      47.878   3.033  15.776  0.00  0.00    +0.000 C 
ATOM      2  C   UNL     1      47.189   4.404  15.741  0.00  0.00    +0.000 C 
ENDROOT
BRANCH   2   3
ATOM      3  C   UNL     1      46.700   4.716  14.324  0.00  0.00    +0.000 A 
ATOM      4  C   UNL     1      47.176   5.835  13.639  0.00  0.00    +0.000 A 
ATOM      5  C   UNL     1      46.680   6.125  12.369  0.00  0.00    +0.000 A 
ATOM      6  C   UNL     1      45.718   5.295  11.795  0.00  0.00    +0.000 A 
ATOM      7  C   UNL     1      45.301   4.200  12.545  0.00  0.00    +0.000 A 
ATOM      8  N   UNL     1      45.763   3.897  13.783  0.00  0.00    +0.000 NA
BRANCH   6   9
ATOM      9  C   UNL     1      45.118   5.593  10.454  0.00  0.00    +0.000 C 
BRANCH   9  10
ATOM     10  N   UNL     1      45.650   4.720   9.431  0.00  0.00    +0.000 N 
ATOM     11  C   UNL     1      44.980   3.583   9.048  0.00  0.00    +0.000 C 
ATOM     12  O   UNL     1      43.922   3.231   9.567  0.00  0.00    +0.000 OA
ATOM     13  H   UNL     1      46.490   5.003   8.944  0.00  0.00    +0.000 HD
BRANCH  11  14
ATOM     14  C   UNL     1      45.619   2.779   7.921  0.00  0.00    +0.000 C 
ATOM     15  C   UNL     1      46.088   1.398   8.389  0.00  0.00    +0.000 C 
ATOM     16  C   UNL     1      46.792   0.663   7.255  0.00  0.00    +0.000 C 
ATOM     17  O   UNL     1      47.875   1.446   6.751  0.00  0.00    +0.000 OA
ATOM     18  C   UNL     1      47.429   2.682   6.191  0.00  0.00    +0.000 C 
ATOM     19  C   UNL     1      46.774   3.541   7.263  0.00  0.00    +0.000 C 
ENDBRANCH  11  14
ENDBRANCH   9  10
ENDBRANCH   6   9
ENDBRANCH   2   3
BRANCH   2  20
ATOM     20  N   UNL     1      48.065   5.474  16.218  0.00  0.00    +0.000 N 
ATOM     21  C   UNL     1      48.080   5.887  17.526  0.00  0.00    +0.000 C 
ATOM     22  O   UNL     1      47.422   5.341  18.406  0.00  0.00    +0.000 OA
ATOM     23  H   UNL     1      48.347   6.152  15.514  0.00  0.00    +0.000 HD
BRANCH  21  24
ATOM     24  C   UNL     1      48.995   6.986  17.848  0.00  0.00    +0.000 A 
ATOM     25  C   UNL     1      48.486   8.189  18.320  0.00  0.00    +0.000 A 
ATOM     26  S   UNL     1      49.685   9.361  18.632  0.00  0.00    +0.000 S 
ATOM     27  C   UNL     1      50.919   8.314  18.109  0.00  0.00    +0.000 A 
ATOM     28  N   UNL     1      52.217   8.721  18.075  0.00  0.00    +0.000 NA
ATOM     29  C   UNL     1      53.040   7.840  17.617  0.00  0.00    +0.000 A 
ATOM     30  N   UNL     1      52.689   6.578  17.209  0.00  0.00    +0.000 N 
ATOM     31  C   UNL     1      51.401   6.102  17.282  0.00  0.00    +0.000 A 
ATOM     32  O   UNL     1      51.128   4.938  17.013  0.00  0.00    +0.000 OA
ATOM     33  C   UNL     1      50.428   7.074  17.742  0.00  0.00    +0.000 A 
ATOM     34  H   UNL     1      53.388   5.926  16.888  0.00  0.00    +0.000 HD
ENDBRANCH  21  24
ENDBRANCH   2  20
TORSDOF 6
ENDMDL
MODEL 3
REMARK VINA RESULT:    -7.827      2.165      3.620
REMARK INTER + INTRA:         -11.677
REMARK INTER:                 -10.703
REMARK INTRA:                  -0.975
REMARK UNBOUND:                -1.105
REMARK  Name = 
REMARK  7 active torsions:
REMARK  status: ('A' for Active; 'I' for Inactive)
REMARK    1  A    between atoms: C_1  and  C_2
REMARK    2  A    between atoms: C_2  and  N_3
REMARK    3  A    between atoms: C_2  and  C_16
REMARK    4  A    between atoms: C_4  and  C_6
REMARK    5  A    between atoms: C_19  and  C_20
REMARK    6  A    between atoms: C_20  and  N_21
REMARK    7  A    between atoms: C_22  and  C_24
REMARK                            x       y       z     vdW  Elec       q    Type
REMARK                         _______ _______ _______ _____ _____    ______ ____
ROOT
ATOM      1  C   UNL     1      47.076   9.378  12.775  0.00  0.00    +0.000 C 
ATOM      2  C   UNL     1      47.659   8.020  13.189  0.00  0.00    +0.000 C 
ENDROOT
BRANCH   2   3
ATOM      3  C   UNL     1      46.838   6.882  12.577  0.00  0.00    +0.000 A 
ATOM      4  C   UNL     1      46.622   6.824  11.199  0.00  0.00    +0.000 A 
ATOM      5  C   UNL     1      45.832   5.805  10.670  0.00  0.00    +0.000 A 
ATOM      6  C   UNL     1      45.267   4.855  11.520  0.00  0.00    +0.000 A 
ATOM      7  C   UNL     1      45.534   4.986  12.879  0.00  0.00    +0.000 A 
ATOM      8  N   UNL     1      46.296   5.967  13.420  0.00  0.00    +0.000 NA
BRANCH   6   9
ATOM      9  C   UNL     1      44.369   3.771  11.004  0.00  0.00    +0.000 C 
BRANCH   9  10
ATOM     10  N   UNL     1      45.003   3.018   9.945  0.00  0.00    +0.000 N 
ATOM     11  C   UNL     1      44.868   3.389   8.629  0.00  0.00    +0.000 C 
ATOM     12  O   UNL     1      44.184   4.350   8.279  0.00  0.00    +0.000 OA
ATOM     13  H   UNL     1      45.617   2.254  10.197  0.00  0.00    +0.000 HD
BRANCH  11  14
ATOM     14  C   UNL     1      45.632   2.546   7.616  0.00  0.00    +0.000 C 
ATOM     15  C   UNL     1      46.229   1.283   8.246  0.00  0.00    +0.000 C 
ATOM     16  C   UNL     1      47.050   0.514   7.219  0.00  0.00    +0.000 C 
ATOM     17  O   UNL     1      48.061   1.354   6.659  0.00  0.00    +0.000 OA
ATOM     18  C   UNL     1      47.507   2.465   5.954  0.00  0.00    +0.000 C 
ATOM     19  C   UNL     1      46.723   3.356   6.908  0.00  0.00    +0.000 C 
ENDBRANCH  11  14
ENDBRANCH   9  10
ENDBRANCH   6   9
ENDBRANCH   2   3
BRANCH   2  20
ATOM     20  N   UNL     1      47.724   7.869  14.642  0.00  0.00    +0.000 N 
ATOM     21  C   UNL     1      48.862   8.135  15.361  0.00  0.00    +0.000 C 
ATOM     22  O   UNL     1      49.881   8.592  14.853  0.00  0.00    +0.000 OA
ATOM     23  H   UNL     1      47.070   7.199  15.040  0.00  0.00    +0.000 HD
BRANCH  21  24
ATOM     24  C   UNL     1      48.781   7.914  16.808  0.00  0.00    +0.000 A 
ATOM     25  C   UNL     1      48.839   8.998  17.674  0.00  0.00    +0.000 A 
ATOM     26  S   UNL     1      48.743   8.562  19.320  0.00  0.00    +0.000 S 
ATOM     27  C   UNL     1      48.662   6.908  18.932  0.00  0.00    +0.000 A 
ATOM     28  N   UNL     1      48.610   5.960  19.906  0.00  0.00    +0.000 NA
ATOM     29  C   UNL     1      48.594   4.747  19.469  0.00  0.00    +0.000 A 
ATOM     30  N   UNL     1      48.604   4.392  18.144  0.00  0.00    +0.000 N 
ATOM     31  C   UNL     1      48.594   5.315  17.125  0.00  0.00    +0.000 A 
ATOM     32  O   UNL     1      48.496   4.977  15.951  0.00  0.00    +0.000 OA
ATOM     33  C   UNL     1      48.665   6.694  17.565  0.00  0.00    +0.000 A 
ATOM     34  H   UNL     1      48.561   3.422  17.869  0.00  0.00    +0.000 HD
ENDBRANCH  21  24
ENDBRANCH   2  20
TORSDOF 6
ENDMDL
MODEL 4
REMARK VINA RESULT:    -7.568      4.159      9.108
REMARK INTER + INTRA:         -11.328
REMARK INTER:                 -10.296
REMARK INTRA:                  -1.032
REMARK UNBOUND:                -1.105
REMARK  Name = 
REMARK  7 active torsions:
REMARK  status: ('A' for Active; 'I' for Inactive)
REMARK    1  A    between atoms: C_1  and  C_2
REMARK    2  A    between atoms: C_2  and  N_3
REMARK    3  A    between atoms: C_2  and  C_16
REMARK    4  A    between atoms: C_4  and  C_6
REMARK    5  A    between atoms: C_19  and  C_20
REMARK    6  A    between atoms: C_20  and  N_21
REMARK    7  A    between atoms: C_22  and  C_24
REMARK                            x       y       z     vdW  Elec       q    Type
REMARK                         _______ _______ _______ _____ _____    ______ ____
ROOT
ATOM      1  C   UNL     1      49.398   7.470  12.846  0.00  0.00    +0.000 C 
ATOM      2  C   UNL     1      48.086   6.973  13.468  0.00  0.00    +0.000 C 
ENDROOT
BRANCH   2   3
ATOM      3  C   UNL     1      48.361   6.293  14.812  0.00  0.00    +0.000 A 
ATOM      4  C   UNL     1      49.353   6.781  15.665  0.00  0.00    +0.000 A 
ATOM      5  C   UNL     1      49.617   6.116  16.861  0.00  0.00    +0.000 A 
ATOM      6  C   UNL     1      48.888   4.976  17.196  0.00  0.00    +0.000 A 
ATOM      7  C   UNL     1      47.917   4.560  16.291  0.00  0.00    +0.000 A 
ATOM      8  N   UNL     1      47.641   5.184  15.120  0.00  0.00    +0.000 NA
BRANCH   6   9
ATOM      9  C   UNL     1      49.170   4.198  18.446  0.00  0.00    +0.000 C 
BRANCH   9  10
ATOM     10  N   UNL     1      50.519   3.679  18.452  0.00  0.00    +0.000 N 
ATOM     11  C   UNL     1      50.884   2.637  17.633  0.00  0.00    +0.000 C 
ATOM     12  O   UNL     1      50.088   2.074  16.883  0.00  0.00    +0.000 OA
ATOM     13  H   UNL     1      51.216   4.149  19.015  0.00  0.00    +0.000 HD
BRANCH  11  14
ATOM     14  C   UNL     1      52.349   2.221  17.694  0.00  0.00    +0.000 C 
ATOM     15  C   UNL     1      52.518   0.699  17.720  0.00  0.00    +0.000 C 
ATOM     16  C   UNL     1      53.989   0.329  17.863  0.00  0.00    +0.000 C 
ATOM     17  O   UNL     1      54.546   0.943  19.027  0.00  0.00    +0.000 OA
ATOM     18  C   UNL     1      54.512   2.368  18.951  0.00  0.00    +0.000 C 
ATOM     19  C   UNL     1      53.073   2.859  18.885  0.00  0.00    +0.000 C 
ENDBRANCH  11  14
ENDBRANCH   9  10
ENDBRANCH   6   9
ENDBRANCH   2   3
BRANCH   2  20
ATOM     20  N   UNL     1      47.364   6.062  12.581  0.00  0.00    +0.000 N 
ATOM     21  C   UNL     1      46.345   6.481  11.764  0.00  0.00    +0.000 C 
ATOM     22  O   UNL     1      46.015   7.658  11.658  0.00  0.00    +0.000 OA
ATOM     23  H   UNL     1      47.355   5.088  12.872  0.00  0.00    +0.000 HD
BRANCH  21  24
ATOM     24  C   UNL     1      45.701   5.447  10.948  0.00  0.00    +0.000 A 
ATOM     25  C   UNL     1      45.748   5.536   9.563  0.00  0.00    +0.000 A 
ATOM     26  S   UNL     1      44.940   4.260   8.771  0.00  0.00    +0.000 S 
ATOM     27  C   UNL     1      44.468   3.569  10.252  0.00  0.00    +0.000 A 
ATOM     28  N   UNL     1      43.693   2.451  10.290  0.00  0.00    +0.000 NA
ATOM     29  C   UNL     1      43.377   2.062  11.478  0.00  0.00    +0.000 A 
ATOM     30  N   UNL     1      43.781   2.675  12.636  0.00  0.00    +0.000 N 
ATOM     31  C   UNL     1      44.613   3.770  12.649  0.00  0.00    +0.000 A 
ATOM     32  O   UNL     1      45.047   4.237  13.696  0.00  0.00    +0.000 OA
ATOM     33  C   UNL     1      44.955   4.278  11.335  0.00  0.00    +0.000 A 
ATOM     34  H   UNL     1      43.521   2.302  13.536  0.00  0.00    +0.000 HD
ENDBRANCH  21  24
ENDBRANCH   2  20
TORSDOF 6
ENDMDL
MODEL 5
REMARK VINA RESULT:    -7.273      3.037      3.658
REMARK INTER + INTRA:         -10.929
REMARK INTER:                  -9.801
REMARK INTRA:                  -1.128
REMARK UNBOUND:                -1.105
REMARK  Name = 
REMARK  7 active torsions:
REMARK  status: ('A' for Active; 'I' for Inactive)
REMARK    1  A    between atoms: C_1  and  C_2
REMARK    2  A    between atoms: C_2  and  N_3
REMARK    3  A    between atoms: C_2  and  C_16
REMARK    4  A    between atoms: C_4  and  C_6
REMARK    5  A    between atoms: C_19  and  C_20
REMARK    6  A    between atoms: C_20  and  N_21
REMARK    7  A    between atoms: C_22  and  C_24
REMARK                            x       y       z     vdW  Elec       q    Type
REMARK                         _______ _______ _______ _____ _____    ______ ____
ROOT
ATOM      1  C   UNL     1      48.702   6.805  15.328  0.00  0.00    +0.000 C 
ATOM      2  C   UNL     1      48.522   7.209  13.858  0.00  0.00    +0.000 C 
ENDROOT
BRANCH   2   3
ATOM      3  C   UNL     1      47.537   6.263  13.165  0.00  0.00    +0.000 A 
ATOM      4  C   UNL     1      46.688   6.733  12.161  0.00  0.00    +0.000 A 
ATOM      5  C   UNL     1      45.767   5.864  11.579  0.00  0.00    +0.000 A 
ATOM      6  C   UNL     1      45.704   4.537  12.001  0.00  0.00    +0.000 A 
ATOM      7  C   UNL     1      46.587   4.151  13.004  0.00  0.00    +0.000 A 
ATOM      8  N   UNL     1      47.490   4.975  13.590  0.00  0.00    +0.000 NA
BRANCH   6   9
ATOM      9  C   UNL     1      44.697   3.578  11.441  0.00  0.00    +0.000 C 
BRANCH   9  10
ATOM     10  N   UNL     1      45.219   2.877  10.289  0.00  0.00    +0.000 N 
ATOM     11  C   UNL     1      44.995   3.339   9.014  0.00  0.00    +0.000 C 
ATOM     12  O   UNL     1      44.323   4.343   8.781  0.00  0.00    +0.000 OA
ATOM     13  H   UNL     1      45.821   2.078  10.441  0.00  0.00    +0.000 HD
BRANCH  11  14
ATOM     14  C   UNL     1      45.647   2.540   7.891  0.00  0.00    +0.000 C 
ATOM     15  C   UNL     1      46.193   1.195   8.379  0.00  0.00    +0.000 C 
ATOM     16  C   UNL     1      46.905   0.468   7.245  0.00  0.00    +0.000 C 
ATOM     17  O   UNL     1      47.936   1.290   6.696  0.00  0.00    +0.000 OA
ATOM     18  C   UNL     1      47.418   2.489   6.119  0.00  0.00    +0.000 C 
ATOM     19  C   UNL     1      46.747   3.341   7.187  0.00  0.00    +0.000 C 
ENDBRANCH  11  14
ENDBRANCH   9  10
ENDBRANCH   6   9
ENDBRANCH   2   3
BRANCH   2  20
ATOM     20  N   UNL     1      49.791   7.233  13.133  0.00  0.00    +0.000 N 
ATOM     21  C   UNL     1      50.072   8.168  12.168  0.00  0.00    +0.000 C 
ATOM     22  O   UNL     1      49.316   9.095  11.898  0.00  0.00    +0.000 OA
ATOM     23  H   UNL     1      50.272   6.340  13.067  0.00  0.00    +0.000 HD
BRANCH  21  24
ATOM     24  C   UNL     1      51.378   8.050  11.512  0.00  0.00    +0.000 A 
ATOM     25  C   UNL     1      51.482   7.371  10.305  0.00  0.00    +0.000 A 
ATOM     26  S   UNL     1      53.071   7.317   9.688  0.00  0.00    +0.000 S 
ATOM     27  C   UNL     1      53.678   8.163  11.033  0.00  0.00    +0.000 A 
ATOM     28  N   UNL     1      55.008   8.418  11.160  0.00  0.00    +0.000 NA
ATOM     29  C   UNL     1      55.332   9.030  12.248  0.00  0.00    +0.000 A 
ATOM     30  N   UNL     1      54.445   9.431  13.215  0.00  0.00    +0.000 N 
ATOM     31  C   UNL     1      53.087   9.249  13.102  0.00  0.00    +0.000 A 
ATOM     32  O   UNL     1      52.305   9.709  13.926  0.00  0.00    +0.000 OA
ATOM     33  C   UNL     1      52.677   8.518  11.919  0.00  0.00    +0.000 A 
ATOM     34  H   UNL     1      54.763   9.931  14.031  0.00  0.00    +0.000 HD
ENDBRANCH  21  24
ENDBRANCH   2  20
TORSDOF 6
ENDMDL
MODEL 6
REMARK VINA RESULT:    -6.976      2.865      3.372
REMARK INTER + INTRA:         -10.528
REMARK INTER:                  -9.192
REMARK INTRA:                  -1.336
REMARK UNBOUND:                -1.105
REMARK  Name = 
REMARK  7 active torsions:
REMARK  status: ('A' for Active; 'I' for Inactive)
REMARK    1  A    between atoms: C_1  and  C_2
REMARK    2  A    between atoms: C_2  and  N_3
REMARK    3  A    between atoms: C_2  and  C_16
REMARK    4  A    between atoms: C_4  and  C_6
REMARK    5  A    between atoms: C_19  and  C_20
REMARK    6  A    between atoms: C_20  and  N_21
REMARK    7  A    between atoms: C_22  and  C_24
REMARK                            x       y       z     vdW  Elec       q    Type
REMARK                         _______ _______ _______ _____ _____    ______ ____
ROOT
ATOM      1  C   UNL     1      48.772   6.046  15.945  0.00  0.00    +0.000 C 
ATOM      2  C   UNL     1      48.733   7.161  14.891  0.00  0.00    +0.000 C 
ENDROOT
BRANCH   2   3
ATOM      3  C   UNL     1      47.685   6.843  13.821  0.00  0.00    +0.000 A 
ATOM      4  C   UNL     1      47.110   7.865  13.065  0.00  0.00    +0.000 A 
ATOM      5  C   UNL     1      46.124   7.556  12.130  0.00  0.00    +0.000 A 
ATOM      6  C   UNL     1      45.723   6.231  11.958  0.00  0.00    +0.000 A 
ATOM      7  C   UNL     1      46.349   5.275  12.751  0.00  0.00    +0.000 A 
ATOM      8  N   UNL     1      47.308   5.548  13.669  0.00  0.00    +0.000 NA
BRANCH   6   9
ATOM      9  C   UNL     1      44.631   5.855  11.002  0.00  0.00    +0.000 C 
BRANCH   9  10
ATOM     10  N   UNL     1      45.137   5.052   9.912  0.00  0.00    +0.000 N 
ATOM     11  C   UNL     1      44.590   3.826   9.617  0.00  0.00    +0.000 C 
ATOM     12  O   UNL     1      43.673   3.335  10.274  0.00  0.00    +0.000 OA
ATOM     13  H   UNL     1      45.855   5.444   9.315  0.00  0.00    +0.000 HD
BRANCH  11  14
ATOM     14  C   UNL     1      45.177   3.105   8.409  0.00  0.00    +0.000 C 
ATOM     15  C   UNL     1      45.792   1.754   8.784  0.00  0.00    +0.000 C 
ATOM     16  C   UNL     1      46.437   1.106   7.565  0.00  0.00    +0.000 C 
ATOM     17  O   UNL     1      47.404   1.985   6.988  0.00  0.00    +0.000 OA
ATOM     18  C   UNL     1      46.815   3.196   6.515  0.00  0.00    +0.000 C 
ATOM     19  C   UNL     1      46.202   3.973   7.672  0.00  0.00    +0.000 C 
ENDBRANCH  11  14
ENDBRANCH   9  10
ENDBRANCH   6   9
ENDBRANCH   2   3
BRANCH   2  20
ATOM     20  N   UNL     1      50.038   7.377  14.268  0.00  0.00    +0.000 N 
ATOM     21  C   UNL     1      50.575   8.629  14.095  0.00  0.00    +0.000 C 
ATOM     22  O   UNL     1      50.039   9.648  14.517  0.00  0.00    +0.000 OA
ATOM     23  H   UNL     1      50.339   6.650  13.624  0.00  0.00    +0.000 HD
BRANCH  21  24
ATOM     24  C   UNL     1      51.882   8.687  13.434  0.00  0.00    +0.000 A 
ATOM     25  C   UNL     1      52.986   9.155  14.134  0.00  0.00    +0.000 A 
ATOM     26  S   UNL     1      54.421   9.168  13.213  0.00  0.00    +0.000 S 
ATOM     27  C   UNL     1      53.607   8.588  11.837  0.00  0.00    +0.000 A 
ATOM     28  N   UNL     1      54.259   8.413  10.656  0.00  0.00    +0.000 NA
ATOM     29  C   UNL     1      53.509   8.008   9.688  0.00  0.00    +0.000 A 
ATOM     30  N   UNL     1      52.168   7.741   9.795  0.00  0.00    +0.000 N 
ATOM     31  C   UNL     1      51.480   7.845  10.980  0.00  0.00    +0.000 A 
ATOM     32  O   UNL     1      50.308   7.500  11.077  0.00  0.00    +0.000 OA
ATOM     33  C   UNL     1      52.268   8.348  12.089  0.00  0.00    +0.000 A 
ATOM     34  H   UNL     1      51.645   7.400   9.003  0.00  0.00    +0.000 HD
ENDBRANCH  21  24
ENDBRANCH   2  20
TORSDOF 6
ENDMDL
MODEL 7
REMARK VINA RESULT:    -6.729      3.505      9.358
REMARK INTER + INTRA:         -10.194
REMARK INTER:                  -9.221
REMARK INTRA:                  -0.973
REMARK UNBOUND:                -1.105
REMARK  Name = 
REMARK  7 active torsions:
REMARK  status: ('A' for Active; 'I' for Inactive)
REMARK    1  A    between atoms: C_1  and  C_2
REMARK    2  A    between atoms: C_2  and  N_3
REMARK    3  A    between atoms: C_2  and  C_16
REMARK    4  A    between atoms: C_4  and  C_6
REMARK    5  A    between atoms: C_19  and  C_20
REMARK    6  A    between atoms: C_20  and  N_21
REMARK    7  A    between atoms: C_22  and  C_24
REMARK                            x       y       z     vdW  Elec       q    Type
REMARK                         _______ _______ _______ _____ _____    ______ ____
ROOT
ATOM      1  C   UNL     1      48.597   7.897  11.627  0.00  0.00    +0.000 C 
ATOM      2  C   UNL     1      47.453   7.596  12.605  0.00  0.00    +0.000 C 
ENDROOT
BRANCH   2   3
ATOM      3  C   UNL     1      47.993   7.477  14.032  0.00  0.00    +0.000 A 
ATOM      4  C   UNL     1      48.219   8.618  14.804  0.00  0.00    +0.000 A 
ATOM      5  C   UNL     1      48.756   8.487  16.083  0.00  0.00    +0.000 A 
ATOM      6  C   UNL     1      49.059   7.221  16.581  0.00  0.00    +0.000 A 
ATOM      7  C   UNL     1      48.801   6.137  15.747  0.00  0.00    +0.000 A 
ATOM      8  N   UNL     1      48.283   6.236  14.499  0.00  0.00    +0.000 NA
BRANCH   6   9
ATOM      9  C   UNL     1      49.685   7.032  17.930  0.00  0.00    +0.000 C 
BRANCH   9  10
ATOM     10  N   UNL     1      50.529   5.858  17.961  0.00  0.00    +0.000 N 
ATOM     11  C   UNL     1      51.863   5.933  17.642  0.00  0.00    +0.000 C 
ATOM     12  O   UNL     1      52.402   6.981  17.286  0.00  0.00    +0.000 OA
ATOM     13  H   UNL     1      50.136   4.989  18.300  0.00  0.00    +0.000 HD
BRANCH  11  14
ATOM     14  C   UNL     1      52.654   4.636  17.768  0.00  0.00    +0.000 C 
ATOM     15  C   UNL     1      51.748   3.401  17.738  0.00  0.00    +0.000 C 
ATOM     16  C   UNL     1      52.568   2.135  17.948  0.00  0.00    +0.000 C 
ATOM     17  O   UNL     1      53.308   2.217  19.167  0.00  0.00    +0.000 OA
ATOM     18  C   UNL     1      54.251   3.289  19.152  0.00  0.00    +0.000 C 
ATOM     19  C   UNL     1      53.531   4.624  19.024  0.00  0.00    +0.000 C 
ENDBRANCH  11  14
ENDBRANCH   9  10
ENDBRANCH   6   9
ENDBRANCH   2   3
BRANCH   2  20
ATOM     20  N   UNL     1      46.720   6.384  12.241  0.00  0.00    +0.000 N 
ATOM     21  C   UNL     1      45.461   6.418  11.696  0.00  0.00    +0.000 C 
ATOM     22  O   UNL     1      44.889   7.463  11.403  0.00  0.00    +0.000 OA
ATOM     23  H   UNL     1      46.980   5.547  12.757  0.00  0.00    +0.000 HD
BRANCH  21  24
ATOM     24  C   UNL     1      44.846   5.120  11.405  0.00  0.00    +0.000 A 
ATOM     25  C   UNL     1      44.067   4.496  12.371  0.00  0.00    +0.000 A 
ATOM     26  S   UNL     1      43.439   2.991  11.873  0.00  0.00    +0.000 S 
ATOM     27  C   UNL     1      44.220   3.103  10.367  0.00  0.00    +0.000 A 
ATOM     28  N   UNL     1      44.134   2.099   9.454  0.00  0.00    +0.000 NA
ATOM     29  C   UNL     1      44.809   2.300   8.374  0.00  0.00    +0.000 A 
ATOM     30  N   UNL     1      45.548   3.425   8.111  0.00  0.00    +0.000 N 
ATOM     31  C   UNL     1      45.616   4.492   8.976  0.00  0.00    +0.000 A 
ATOM     32  O   UNL     1      46.195   5.529   8.675  0.00  0.00    +0.000 OA
ATOM     33  C   UNL     1      44.915   4.292  10.229  0.00  0.00    +0.000 A 
ATOM     34  H   UNL     1      46.032   3.532   7.232  0.00  0.00    +0.000 HD
ENDBRANCH  21  24
ENDBRANCH   2  20
TORSDOF 6
ENDMDL
MODEL 8
REMARK VINA RESULT:    -6.296      4.606      7.858
REMARK INTER + INTRA:          -9.610
REMARK INTER:                  -8.853
REMARK INTRA:                  -0.757
REMARK UNBOUND:                -1.105
REMARK  Name = 
REMARK  7 active torsions:
REMARK  status: ('A' for Active; 'I' for Inactive)
REMARK    1  A    between atoms: C_1  and  C_2
REMARK    2  A    between atoms: C_2  and  N_3
REMARK    3  A    between atoms: C_2  and  C_16
REMARK    4  A    between atoms: C_4  and  C_6
REMARK    5  A    between atoms: C_19  and  C_20
REMARK    6  A    between atoms: C_20  and  N_21
REMARK    7  A    between atoms: C_22  and  C_24
REMARK                            x       y       z     vdW  Elec       q    Type
REMARK                         _______ _______ _______ _____ _____    ______ ____
ROOT
ATOM      1  C   UNL     1      44.836   9.571  11.539  0.00  0.00    +0.000 C 
ATOM      2  C   UNL     1      45.569   8.390  12.188  0.00  0.00    +0.000 C 
ENDROOT
BRANCH   2   3
ATOM      3  C   UNL     1      47.080   8.527  11.983  0.00  0.00    +0.000 A 
ATOM      4  C   UNL     1      47.874   7.397  11.779  0.00  0.00    +0.000 A 
ATOM      5  C   UNL     1      49.253   7.542  11.642  0.00  0.00    +0.000 A 
ATOM      6  C   UNL     1      49.826   8.812  11.706  0.00  0.00    +0.000 A 
ATOM      7  C   UNL     1      48.962   9.883  11.910  0.00  0.00    +0.000 A 
ATOM      8  N   UNL     1      47.619   9.770  12.050  0.00  0.00    +0.000 NA
BRANCH   6   9
ATOM      9  C   UNL     1      51.308   9.014  11.616  0.00  0.00    +0.000 C 
BRANCH   9  10
ATOM     10  N   UNL     1      51.848   8.430  10.409  0.00  0.00    +0.000 N 
ATOM     11  C   UNL     1      53.081   7.823  10.402  0.00  0.00    +0.000 C 
ATOM     12  O   UNL     1      53.799   7.770  11.400  0.00  0.00    +0.000 OA
ATOM     13  H   UNL     1      51.266   8.405   9.581  0.00  0.00    +0.000 HD
BRANCH  11  14
ATOM     14  C   UNL     1      53.510   7.197   9.080  0.00  0.00    +0.000 C 
ATOM     15  C   UNL     1      52.668   7.697   7.903  0.00  0.00    +0.000 C 
ATOM     16  C   UNL     1      53.076   6.988   6.618  0.00  0.00    +0.000 C 
ATOM     17  O   UNL     1      52.974   5.572   6.777  0.00  0.00    +0.000 OA
ATOM     18  C   UNL     1      53.856   5.079   7.786  0.00  0.00    +0.000 C 
ATOM     19  C   UNL     1      53.487   5.666   9.141  0.00  0.00    +0.000 C 
ENDBRANCH  11  14
ENDBRANCH   9  10
ENDBRANCH   6   9
ENDBRANCH   2   3
BRANCH   2  20
ATOM     20  N   UNL     1      45.106   7.102  11.672  0.00  0.00    +0.000 N 
ATOM     21  C   UNL     1      45.148   5.951  12.418  0.00  0.00    +0.000 C 
ATOM     22  O   UNL     1      45.502   5.928  13.592  0.00  0.00    +0.000 OA
ATOM     23  H   UNL     1      45.137   7.002  10.661  0.00  0.00    +0.000 HD
BRANCH  21  24
ATOM     24  C   UNL     1      44.670   4.733  11.757  0.00  0.00    +0.000 A 
ATOM     25  C   UNL     1      43.880   3.834  12.460  0.00  0.00    +0.000 A 
ATOM     26  S   UNL     1      43.422   2.469  11.546  0.00  0.00    +0.000 S 
ATOM     27  C   UNL     1      44.297   3.014  10.194  0.00  0.00    +0.000 A 
ATOM     28  N   UNL     1      44.364   2.274   9.054  0.00  0.00    +0.000 NA
ATOM     29  C   UNL     1      45.096   2.789   8.126  0.00  0.00    +0.000 A 
ATOM     30  N   UNL     1      45.752   3.990   8.222  0.00  0.00    +0.000 N 
ATOM     31  C   UNL     1      45.664   4.801   9.329  0.00  0.00    +0.000 A 
ATOM     32  O   UNL     1      46.172   5.916   9.351  0.00  0.00    +0.000 OA
ATOM     33  C   UNL     1      44.895   4.241  10.422  0.00  0.00    +0.000 A 
ATOM     34  H   UNL     1      46.286   4.349   7.445  0.00  0.00    +0.000 HD
ENDBRANCH  21  24
ENDBRANCH   2  20
TORSDOF 6
ENDMDL
MODEL 9
REMARK VINA RESULT:    -6.008      4.225      5.448
REMARK INTER + INTRA:          -9.221
REMARK INTER:                  -8.003
REMARK INTRA:                  -1.218
REMARK UNBOUND:                -1.105
REMARK  Name = 
REMARK  7 active torsions:
REMARK  status: ('A' for Active; 'I' for Inactive)
REMARK    1  A    between atoms: C_1  and  C_2
REMARK    2  A    between atoms: C_2  and  N_3
REMARK    3  A    between atoms: C_2  and  C_16
REMARK    4  A    between atoms: C_4  and  C_6
REMARK    5  A    between atoms: C_19  and  C_20
REMARK    6  A    between atoms: C_20  and  N_21
REMARK    7  A    between atoms: C_22  and  C_24
REMARK                            x       y       z     vdW  Elec       q    Type
REMARK                         _______ _______ _______ _____ _____    ______ ____
ROOT
ATOM      1  C   UNL     1      51.203   8.078  14.434  0.00  0.00    +0.000 C 
ATOM      2  C   UNL     1      50.224   8.724  13.444  0.00  0.00    +0.000 C 
ENDROOT
BRANCH   2   3
ATOM      3  C   UNL     1      48.947   7.886  13.340  0.00  0.00    +0.000 A 
ATOM      4  C   UNL     1      47.813   8.398  12.707  0.00  0.00    +0.000 A 
ATOM      5  C   UNL     1      46.647   7.636  12.666  0.00  0.00    +0.000 A 
ATOM      6  C   UNL     1      46.624   6.372  13.253  0.00  0.00    +0.000 A 
ATOM      7  C   UNL     1      47.798   5.938  13.862  0.00  0.00    +0.000 A 
ATOM      8  N   UNL     1      48.945   6.659  13.919  0.00  0.00    +0.000 NA
BRANCH   6   9
ATOM      9  C   UNL     1      45.380   5.536  13.280  0.00  0.00    +0.000 C 
BRANCH   9  10
ATOM     10  N   UNL     1      45.274   4.710  12.098  0.00  0.00    +0.000 N 
ATOM     11  C   UNL     1      44.460   5.069  11.051  0.00  0.00    +0.000 C 
ATOM     12  O   UNL     1      43.762   6.082  11.071  0.00  0.00    +0.000 OA
ATOM     13  H   UNL     1      45.872   3.897  12.020  0.00  0.00    +0.000 HD
BRANCH  11  14
ATOM     14  C   UNL     1      44.480   4.142   9.841  0.00  0.00    +0.000 C 
ATOM     15  C   UNL     1      44.646   2.672  10.241  0.00  0.00    +0.000 C 
ATOM     16  C   UNL     1      44.742   1.792   9.002  0.00  0.00    +0.000 C 
ATOM     17  O   UNL     1      45.807   2.234   8.158  0.00  0.00    +0.000 OA
ATOM     18  C   UNL     1      45.594   3.560   7.673  0.00  0.00    +0.000 C 
ATOM     19  C   UNL     1      45.560   4.546   8.832  0.00  0.00    +0.000 C 
ENDBRANCH  11  14
ENDBRANCH   9  10
ENDBRANCH   6   9
ENDBRANCH   2   3
BRANCH   2  20
ATOM     20  N   UNL     1      50.818   8.904  12.120  0.00  0.00    +0.000 N 
ATOM     21  C   UNL     1      51.464  10.058  11.752  0.00  0.00    +0.000 C 
ATOM     22  O   UNL     1      51.660  10.989  12.526  0.00  0.00    +0.000 OA
ATOM     23  H   UNL     1      50.402   8.348  11.377  0.00  0.00    +0.000 HD
BRANCH  21  24
ATOM     24  C   UNL     1      51.986  10.099  10.383  0.00  0.00    +0.000 A 
ATOM     25  C   UNL     1      51.625  11.142   9.541  0.00  0.00    +0.000 A 
ATOM     26  S   UNL     1      52.311  11.029   7.983  0.00  0.00    +0.000 S 
ATOM     27  C   UNL     1      53.080   9.562   8.371  0.00  0.00    +0.000 A 
ATOM     28  N   UNL     1      53.813   8.887   7.445  0.00  0.00    +0.000 NA
ATOM     29  C   UNL     1      54.303   7.771   7.863  0.00  0.00    +0.000 A 
ATOM     30  N   UNL     1      54.147   7.274   9.132  0.00  0.00    +0.000 N 
ATOM     31  C   UNL     1      53.467   7.948  10.118  0.00  0.00    +0.000 A 
ATOM     32  O   UNL     1      53.430   7.537  11.272  0.00  0.00    +0.000 OA
ATOM     33  C   UNL     1      52.851   9.186   9.682  0.00  0.00    +0.000 A 
ATOM     34  H   UNL     1      54.582   6.405   9.403  0.00  0.00    +0.000 HD
ENDBRANCH  21  24
ENDBRANCH   2  20
TORSDOF 6
ENDMDL
