MODEL 1
REMARK VINA RESULT:    -7.420      0.000      0.000
REMARK INTER + INTRA:         -10.257
REMARK INTER:                  -9.806
REMARK INTRA:                  -0.451
REMARK UNBOUND:                -0.451
REMARK  Name = 
REMARK  6 active torsions:
REMARK  status: ('A' for Active; 'I' for Inactive)
REMARK    1  A    between atoms: N_1  and  C_2
REMARK    2  A    between atoms: C_2  and  C_3
REMARK    3  A    between atoms: C_6  and  S_7
REMARK    4  A    between atoms: S_7  and  C_8
REMARK    5  A    between atoms: C_8  and  C_9
REMARK    6  A    between atoms: C_12  and  C_13
REMARK                            x       y       z     vdW  Elec       q    Type
REMARK                         _______ _______ _______ _____ _____    ______ ____
ROOT
ATOM      1  S   UNL     1      43.828   4.772  10.347  0.00  0.00    +0.000 S 
ENDROOT
BRANCH   1   5
ATOM      2  C   UNL     1      46.446   2.070   7.773  0.00  0.00    +0.000 A 
ATOM      3  C   UNL     1      46.457   3.431   7.476  0.00  0.00    +0.000 A 
ATOM      4  C   UNL     1      45.668   4.306   8.233  0.00  0.00    +0.000 A 
ATOM      5  C   UNL     1      44.878   3.812   9.269  0.00  0.00    +0.000 A 
ATOM      6  C   UNL     1      44.928   2.434   9.479  0.00  0.00    +0.000 A 
ATOM      7  N   UNL     1      45.686   1.560   8.769  0.00  0.00    +0.000 NA
BRANCH   2   8
ATOM      8  C   UNL     1      47.331   1.106   7.009  0.00  0.00    +0.000 C 
BRANCH   8   9
ATOM      9  N   UNL     1      48.323   1.799   6.179  0.00  0.00    +0.000 NA
ATOM     10  H   UNL     1      48.322   1.376   5.253  0.00  0.00    +0.000 HD
ATOM     11  H   UNL     1      49.245   1.601   6.571  0.00  0.00    +0.000 HD
ENDBRANCH   8   9
ENDBRANCH   2   8
ENDBRANCH   1   5
BRANCH   1  12
ATOM     12  C   UNL     1      44.928   6.060  11.018  0.00  0.00    +0.000 C 
BRANCH  12  13
ATOM     13  C   UNL     1      45.599   5.598  12.276  0.00  0.00    +0.000 A 
ATOM     14  C   UNL     1      46.678   6.254  12.830  0.00  0.00    +0.000 A 
ATOM     15  N   UNL     1      47.299   5.862  13.962  0.00  0.00    +0.000 NA
ATOM     16  C   UNL     1      46.833   4.743  14.572  0.00  0.00    +0.000 A 
ATOM     17  N   UNL     1      45.786   4.025  14.092  0.00  0.00    +0.000 NA
ATOM     18  C   UNL     1      45.204   4.466  12.957  0.00  0.00    +0.000 A 
BRANCH  16  19
ATOM     19  C   UNL     1      47.511   4.268  15.866  0.00  0.00    +0.000 C 
ATOM     20  F   UNL     1      46.713   4.352  16.975  0.00  0.00    +0.000 F 
ATOM     21  F   UNL     1      47.912   2.961  15.813  0.00  0.00    +0.000 F 
ATOM     22  F   UNL     1      48.635   4.983  16.180  0.00  0.00    +0.000 F 
ENDBRANCH  16  19
ENDBRANCH  12  13
ENDBRANCH   1  12
TORSDOF 6
ENDMDL
MODEL 2
REMARK VINA RESULT:    -7.418      4.003      6.925
REMARK INTER + INTRA:         -10.254
REMARK INTER:                  -9.725
REMARK INTRA:                  -0.529
REMARK UNBOUND:                -0.451
REMARK  Name = 
REMARK  6 active torsions:
REMARK  status: ('A' for Active; 'I' for Inactive)
REMARK    1  A    between atoms: N_1  and  C_2
REMARK    2  A    between atoms: C_2  and  C_3
REMARK    3  A    between atoms: C_6  and  S_7
REMARK    4  A    between atoms: S_7  and  C_8
REMARK    5  A    between atoms: C_8  and  C_9
REMARK    6  A    between atoms: C_12  and  C_13
REMARK                            x       y       z     vdW  Elec       q    Type
REMARK                         _______ _______ _______ _____ _____    ______ ____
ROOT
ATOM      1  S   UNL     1      44.012   3.502  12.430  0.00  0.00    +0.000 S 
ENDROOT
BRANCH   1   5
ATOM      2  C   UNL     1      47.552   6.146  13.556  0.00  0.00    +0.000 A 
ATOM      3  C   UNL     1      46.525   6.740  12.826  0.00  0.00    +0.000 A 
ATOM      4  C   UNL     1      45.415   5.973  12.450  0.00  0.00    +0.000 A 
ATOM      5  C   UNL     1      45.347   4.627  12.803  0.00  0.00    +0.000 A 
ATOM      6  C   UNL     1      46.431   4.123  13.523  0.00  0.00    +0.000 A 
ATOM      7  N   UNL     1      47.517   4.840  13.909  0.00  0.00    +0.000 NA
BRANCH   2   8
ATOM      8  C   UNL     1      48.738   6.963  14.026  0.00  0.00    +0.000 C 
BRANCH   8   9
ATOM      9  N   UNL     1      49.833   6.967  13.049  0.00  0.00    +0.000 NA
ATOM     10  H   UNL     1      50.406   7.793  13.210  0.00  0.00    +0.000 HD
ATOM     11  H   UNL     1      49.420   7.094  12.124  0.00  0.00    +0.000 HD
ENDBRANCH   8   9
ENDBRANCH   2   8
ENDBRANCH   1   5
BRANCH   1  12
ATOM     12  C   UNL     1      43.438   4.017  10.780  0.00  0.00    +0.000 C 
BRANCH  12  13
ATOM     13  C   UNL     1      44.388   3.569   9.711  0.00  0.00    +0.000 A 
ATOM     14  C   UNL     1      44.929   4.433   8.783  0.00  0.00    +0.000 A 
ATOM     15  N   UNL     1      45.788   4.057   7.812  0.00  0.00    +0.000 NA
ATOM     16  C   UNL     1      46.117   2.743   7.747  0.00  0.00    +0.000 A 
ATOM     17  N   UNL     1      45.624   1.817   8.609  0.00  0.00    +0.000 NA
ATOM     18  C   UNL     1      44.770   2.252   9.559  0.00  0.00    +0.000 A 
BRANCH  16  19
ATOM     19  C   UNL     1      47.096   2.277   6.660  0.00  0.00    +0.000 C 
ATOM     20  F   UNL     1      46.839   2.796   5.420  0.00  0.00    +0.000 F 
ATOM     21  F   UNL     1      48.395   2.616   6.925  0.00  0.00    +0.000 F 
ATOM     22  F   UNL     1      47.102   0.919   6.485  0.00  0.00    +0.000 F 
ENDBRANCH  16  19
ENDBRANCH  12  13
ENDBRANCH   1  12
TORSDOF 6
ENDMDL
MODEL 3
REMARK VINA RESULT:    -7.267      3.966      7.179
REMARK INTER + INTRA:         -10.055
REMARK INTER:                  -9.638
REMARK INTRA:                  -0.416
REMARK UNBOUND:                -0.451
REMARK  Name = 
REMARK  6 active torsions:
REMARK  status: ('A' for Active; 'I' for Inactive)
REMARK    1  A    between atoms: N_1  and  C_2
REMARK    2  A    between atoms: C_2  and  C_3
REMARK    3  A    between atoms: C_6  and  S_7
REMARK    4  A    between atoms: S_7  and  C_8
REMARK    5  A    between atoms: C_8  and  C_9
REMARK    6  A    between atoms: C_12  and  C_13
REMARK                            x       y       z     vdW  Elec       q    Type
REMARK                         _______ _______ _______ _____ _____    ______ ____
ROOT
ATOM      1  S   UNL     1      44.975   6.331  11.253  0.00  0.00    +0.000 S 
ENDROOT
BRANCH   1   5
ATOM      2  C   UNL     1      47.156   4.706  14.912  0.00  0.00    +0.000 A 
ATOM      3  C   UNL     1      47.643   5.888  14.358  0.00  0.00    +0.000 A 
ATOM      4  C   UNL     1      47.013   6.430  13.230  0.00  0.00    +0.000 A 
ATOM      5  C   UNL     1      45.912   5.785  12.670  0.00  0.00    +0.000 A 
ATOM      6  C   UNL     1      45.510   4.602  13.292  0.00  0.00    +0.000 A 
ATOM      7  N   UNL     1      46.093   4.054  14.388  0.00  0.00    +0.000 NA
BRANCH   2   8
ATOM      8  C   UNL     1      47.781   4.126  16.164  0.00  0.00    +0.000 C 
BRANCH   8   9
ATOM      9  N   UNL     1      46.786   3.512  17.050  0.00  0.00    +0.000 NA
ATOM     10  H   UNL     1      46.032   3.136  16.478  0.00  0.00    +0.000 HD
ATOM     11  H   UNL     1      46.364   4.260  17.604  0.00  0.00    +0.000 HD
ENDBRANCH   8   9
ENDBRANCH   2   8
ENDBRANCH   1   5
BRANCH   1  12
ATOM     12  C   UNL     1      44.092   4.839  10.695  0.00  0.00    +0.000 C 
BRANCH  12  13
ATOM     13  C   UNL     1      44.876   4.104   9.650  0.00  0.00    +0.000 A 
ATOM     14  C   UNL     1      45.604   4.748   8.672  0.00  0.00    +0.000 A 
ATOM     15  N   UNL     1      46.319   4.112   7.722  0.00  0.00    +0.000 NA
ATOM     16  C   UNL     1      46.299   2.755   7.731  0.00  0.00    +0.000 A 
ATOM     17  N   UNL     1      45.600   2.036   8.646  0.00  0.00    +0.000 NA
ATOM     18  C   UNL     1      44.903   2.727   9.572  0.00  0.00    +0.000 A 
BRANCH  16  19
ATOM     19  C   UNL     1      47.106   1.995   6.668  0.00  0.00    +0.000 C 
ATOM     20  F   UNL     1      46.815   0.659   6.600  0.00  0.00    +0.000 F 
ATOM     21  F   UNL     1      46.904   2.468   5.400  0.00  0.00    +0.000 F 
ATOM     22  F   UNL     1      48.458   2.057   6.871  0.00  0.00    +0.000 F 
ENDBRANCH  16  19
ENDBRANCH  12  13
ENDBRANCH   1  12
TORSDOF 6
ENDMDL
MODEL 4
REMARK VINA RESULT:    -6.462      1.891      2.747
REMARK INTER + INTRA:          -8.991
REMARK INTER:                  -8.606
REMARK INTRA:                  -0.385
REMARK UNBOUND:                -0.451
REMARK  Name = 
REMARK  6 active torsions:
REMARK  status: ('A' for Active; 'I' for Inactive)
REMARK    1  A    between atoms: N_1  and  C_2
REMARK    2  A    between atoms: C_2  and  C_3
REMARK    3  A    between atoms: C_6  and  S_7
REMARK    4  A    between atoms: S_7  and  C_8
REMARK    5  A    between atoms: C_8  and  C_9
REMARK    6  A    between atoms: C_12  and  C_13
REMARK                            x       y       z     vdW  Elec       q    Type
REMARK                         _______ _______ _______ _____ _____    ______ ____
ROOT
ATOM      1  S   UNL     1      44.661   5.392  12.497  0.00  0.00    +0.000 S 
ENDROOT
BRANCH   1   5
ATOM      2  C   UNL     1      45.532   3.706   8.352  0.00  0.00    +0.000 A 
ATOM      3  C   UNL     1      44.894   2.862   9.257  0.00  0.00    +0.000 A 
ATOM      4  C   UNL     1      44.606   3.327  10.547  0.00  0.00    +0.000 A 
ATOM      5  C   UNL     1      44.961   4.623  10.915  0.00  0.00    +0.000 A 
ATOM      6  C   UNL     1      45.606   5.385   9.940  0.00  0.00    +0.000 A 
ATOM      7  N   UNL     1      45.894   4.968   8.681  0.00  0.00    +0.000 NA
BRANCH   2   8
ATOM      8  C   UNL     1      45.807   3.251   6.933  0.00  0.00    +0.000 C 
BRANCH   8   9
ATOM      9  N   UNL     1      46.915   3.988   6.316  0.00  0.00    +0.000 NA
ATOM     10  H   UNL     1      46.529   4.763   5.780  0.00  0.00    +0.000 HD
ATOM     11  H   UNL     1      47.352   3.369   5.630  0.00  0.00    +0.000 HD
ENDBRANCH   8   9
ENDBRANCH   2   8
ENDBRANCH   1   5
BRANCH   1  12
ATOM     12  C   UNL     1      46.277   6.083  12.975  0.00  0.00    +0.000 C 
BRANCH  12  13
ATOM     13  C   UNL     1      46.949   5.227  14.005  0.00  0.00    +0.000 A 
ATOM     14  C   UNL     1      46.905   3.849  13.975  0.00  0.00    +0.000 A 
ATOM     15  N   UNL     1      47.502   3.054  14.888  0.00  0.00    +0.000 NA
ATOM     16  C   UNL     1      48.169   3.662  15.901  0.00  0.00    +0.000 A 
ATOM     17  N   UNL     1      48.254   5.012  16.020  0.00  0.00    +0.000 NA
ATOM     18  C   UNL     1      47.637   5.755  15.078  0.00  0.00    +0.000 A 
BRANCH  16  19
ATOM     19  C   UNL     1      48.867   2.792  16.956  0.00  0.00    +0.000 C 
ATOM     20  F   UNL     1      50.091   3.264  17.346  0.00  0.00    +0.000 F 
ATOM     21  F   UNL     1      48.147   2.671  18.114  0.00  0.00    +0.000 F 
ATOM     22  F   UNL     1      49.096   1.510  16.533  0.00  0.00    +0.000 F 
ENDBRANCH  16  19
ENDBRANCH  12  13
ENDBRANCH   1  12
TORSDOF 6
ENDMDL
MODEL 5
REMARK VINA RESULT:    -6.038      4.510      7.460
REMARK INTER + INTRA:          -8.431
REMARK INTER:                  -8.016
REMARK INTRA:                  -0.415
REMARK UNBOUND:                -0.451
REMARK  Name = 
REMARK  6 active torsions:
REMARK  status: ('A' for Active; 'I' for Inactive)
REMARK    1  A    between atoms: N_1  and  C_2
REMARK    2  A    between atoms: C_2  and  C_3
REMARK    3  A    between atoms: C_6  and  S_7
REMARK    4  A    between atoms: S_7  and  C_8
REMARK    5  A    between atoms: C_8  and  C_9
REMARK    6  A    between atoms: C_12  and  C_13
REMARK                            x       y       z     vdW  Elec       q    Type
REMARK                         _______ _______ _______ _____ _____    ______ ____
ROOT
ATOM      1  S   UNL     1      45.208   3.292  12.336  0.00  0.00    +0.000 S 
ENDROOT
BRANCH   1   5
ATOM      2  C   UNL     1      45.732   7.820  12.381  0.00  0.00    +0.000 A 
ATOM      3  C   UNL     1      44.504   7.321  12.809  0.00  0.00    +0.000 A 
ATOM      4  C   UNL     1      44.287   5.938  12.812  0.00  0.00    +0.000 A 
ATOM      5  C   UNL     1      45.294   5.074  12.385  0.00  0.00    +0.000 A 
ATOM      6  C   UNL     1      46.483   5.673  11.966  0.00  0.00    +0.000 A 
ATOM      7  N   UNL     1      46.727   7.008  11.957  0.00  0.00    +0.000 NA
BRANCH   2   8
ATOM      8  C   UNL     1      46.017   9.308  12.420  0.00  0.00    +0.000 C 
BRANCH   8   9
ATOM      9  N   UNL     1      44.792  10.106  12.553  0.00  0.00    +0.000 NA
ATOM     10  H   UNL     1      44.863  10.667  13.399  0.00  0.00    +0.000 HD
ATOM     11  H   UNL     1      44.019   9.458  12.715  0.00  0.00    +0.000 HD
ENDBRANCH   8   9
ENDBRANCH   2   8
ENDBRANCH   1   5
BRANCH   1  12
ATOM     12  C   UNL     1      44.096   2.934  10.939  0.00  0.00    +0.000 C 
BRANCH  12  13
ATOM     13  C   UNL     1      44.834   2.967   9.636  0.00  0.00    +0.000 A 
ATOM     14  C   UNL     1      45.059   4.134   8.935  0.00  0.00    +0.000 A 
ATOM     15  N   UNL     1      45.722   4.193   7.761  0.00  0.00    +0.000 NA
ATOM     16  C   UNL     1      46.175   3.024   7.243  0.00  0.00    +0.000 A 
ATOM     17  N   UNL     1      45.989   1.826   7.854  0.00  0.00    +0.000 NA
ATOM     18  C   UNL     1      45.319   1.829   9.025  0.00  0.00    +0.000 A 
BRANCH  16  19
ATOM     19  C   UNL     1      46.940   3.051   5.911  0.00  0.00    +0.000 C 
ATOM     20  F   UNL     1      47.011   4.291   5.335  0.00  0.00    +0.000 F 
ATOM     21  F   UNL     1      48.239   2.638   6.029  0.00  0.00    +0.000 F 
ATOM     22  F   UNL     1      46.385   2.244   4.954  0.00  0.00    +0.000 F 
ENDBRANCH  16  19
ENDBRANCH  12  13
ENDBRANCH   1  12
TORSDOF 6
ENDMDL
MODEL 6
REMARK VINA RESULT:    -6.035      4.452      7.630
REMARK INTER + INTRA:          -8.426
REMARK INTER:                  -8.059
REMARK INTRA:                  -0.367
REMARK UNBOUND:                -0.451
REMARK  Name = 
REMARK  6 active torsions:
REMARK  status: ('A' for Active; 'I' for Inactive)
REMARK    1  A    between atoms: N_1  and  C_2
REMARK    2  A    between atoms: C_2  and  C_3
REMARK    3  A    between atoms: C_6  and  S_7
REMARK    4  A    between atoms: S_7  and  C_8
REMARK    5  A    between atoms: C_8  and  C_9
REMARK    6  A    between atoms: C_12  and  C_13
REMARK                            x       y       z     vdW  Elec       q    Type
REMARK                         _______ _______ _______ _____ _____    ______ ____
ROOT
ATOM      1  S   UNL     1      47.577   4.933  16.587  0.00  0.00    +0.000 S 
ENDROOT
BRANCH   1   5
ATOM      2  C   UNL     1      51.167   2.226  17.339  0.00  0.00    +0.000 A 
ATOM      3  C   UNL     1      51.304   3.569  17.681  0.00  0.00    +0.000 A 
ATOM      4  C   UNL     1      50.234   4.447  17.467  0.00  0.00    +0.000 A 
ATOM      5  C   UNL     1      49.046   3.974  16.914  0.00  0.00    +0.000 A 
ATOM      6  C   UNL     1      49.012   2.616  16.595  0.00  0.00    +0.000 A 
ATOM      7  N   UNL     1      50.028   1.738  16.794  0.00  0.00    +0.000 NA
BRANCH   2   8
ATOM      8  C   UNL     1      52.287   1.242  17.609  0.00  0.00    +0.000 C 
BRANCH   8   9
ATOM      9  N   UNL     1      51.799  -0.008  18.203  0.00  0.00    +0.000 NA
ATOM     10  H   UNL     1      50.781  -0.003  18.175  0.00  0.00    +0.000 HD
ATOM     11  H   UNL     1      52.047   0.005  19.194  0.00  0.00    +0.000 HD
ENDBRANCH   8   9
ENDBRANCH   2   8
ENDBRANCH   1   5
BRANCH   1  12
ATOM     12  C   UNL     1      47.823   5.573  14.900  0.00  0.00    +0.000 C 
BRANCH  12  13
ATOM     13  C   UNL     1      46.823   4.991  13.948  0.00  0.00    +0.000 A 
ATOM     14  C   UNL     1      45.895   5.759  13.278  0.00  0.00    +0.000 A 
ATOM     15  N   UNL     1      44.985   5.262  12.414  0.00  0.00    +0.000 NA
ATOM     16  C   UNL     1      44.985   3.920  12.215  0.00  0.00    +0.000 A 
ATOM     17  N   UNL     1      45.852   3.083  12.841  0.00  0.00    +0.000 NA
ATOM     18  C   UNL     1      46.738   3.638  13.693  0.00  0.00    +0.000 A 
BRANCH  16  19
ATOM     19  C   UNL     1      43.968   3.316  11.235  0.00  0.00    +0.000 C 
ATOM     20  F   UNL     1      43.058   2.480  11.823  0.00  0.00    +0.000 F 
ATOM     21  F   UNL     1      43.219   4.261  10.589  0.00  0.00    +0.000 F 
ATOM     22  F   UNL     1      44.550   2.571  10.245  0.00  0.00    +0.000 F 
ENDBRANCH  16  19
ENDBRANCH  12  13
ENDBRANCH   1  12
TORSDOF 6
ENDMDL
MODEL 7
REMARK VINA RESULT:    -5.652      4.052      7.625
REMARK INTER + INTRA:          -7.921
REMARK INTER:                  -7.537
REMARK INTRA:                  -0.384
REMARK UNBOUND:                -0.451
REMARK  Name = 
REMARK  6 active torsions:
REMARK  status: ('A' for Active; 'I' for Inactive)
REMARK    1  A    between atoms: N_1  and  C_2
REMARK    2  A    between atoms: C_2  and  C_3
REMARK    3  A    between atoms: C_6  and  S_7
REMARK    4  A    between atoms: S_7  and  C_8
REMARK    5  A    between atoms: C_8  and  C_9
REMARK    6  A    between atoms: C_12  and  C_13
REMARK                            x       y       z     vdW  Elec       q    Type
REMARK                         _______ _______ _______ _____ _____    ______ ____
ROOT
ATOM      1  S   UNL     1      47.684   6.542  13.501  0.00  0.00    +0.000 S 
ENDROOT
BRANCH   1   5
ATOM      2  C   UNL     1      48.258   4.280  17.418  0.00  0.00    +0.000 A 
ATOM      3  C   UNL     1      47.365   3.737  16.498  0.00  0.00    +0.000 A 
ATOM      4  C   UNL     1      47.147   4.393  15.280  0.00  0.00    +0.000 A 
ATOM      5  C   UNL     1      47.819   5.581  14.999  0.00  0.00    +0.000 A 
ATOM      6  C   UNL     1      48.683   6.048  15.989  0.00  0.00    +0.000 A 
ATOM      7  N   UNL     1      48.921   5.435  17.176  0.00  0.00    +0.000 NA
BRANCH   2   8
ATOM      8  C   UNL     1      48.557   3.565  18.719  0.00  0.00    +0.000 C 
BRANCH   8   9
ATOM      9  N   UNL     1      49.601   4.239  19.499  0.00  0.00    +0.000 NA
ATOM     10  H   UNL     1      50.437   3.657  19.489  0.00  0.00    +0.000 HD
ATOM     11  H   UNL     1      49.293   4.261  20.472  0.00  0.00    +0.000 HD
ENDBRANCH   8   9
ENDBRANCH   2   8
ENDBRANCH   1   5
BRANCH   1  12
ATOM     12  C   UNL     1      45.915   6.465  13.075  0.00  0.00    +0.000 C 
BRANCH  12  13
ATOM     13  C   UNL     1      45.668   5.497  11.958  0.00  0.00    +0.000 A 
ATOM     14  C   UNL     1      45.777   5.847  10.628  0.00  0.00    +0.000 A 
ATOM     15  N   UNL     1      45.562   4.996   9.604  0.00  0.00    +0.000 NA
ATOM     16  C   UNL     1      45.202   3.726   9.915  0.00  0.00    +0.000 A 
ATOM     17  N   UNL     1      45.057   3.295  11.194  0.00  0.00    +0.000 NA
ATOM     18  C   UNL     1      45.284   4.190  12.177  0.00  0.00    +0.000 A 
BRANCH  16  19
ATOM     19  C   UNL     1      44.955   2.725   8.776  0.00  0.00    +0.000 C 
ATOM     20  F   UNL     1      44.074   1.726   9.095  0.00  0.00    +0.000 F 
ATOM     21  F   UNL     1      44.439   3.310   7.651  0.00  0.00    +0.000 F 
ATOM     22  F   UNL     1      46.092   2.083   8.366  0.00  0.00    +0.000 F 
ENDBRANCH  16  19
ENDBRANCH  12  13
ENDBRANCH   1  12
TORSDOF 6
ENDMDL
MODEL 8
REMARK VINA RESULT:    -5.211      4.085      8.002
REMARK INTER + INTRA:          -7.338
REMARK INTER:                  -6.964
REMARK INTRA:                  -0.374
REMARK UNBOUND:                -0.451
REMARK  Name = 
REMARK  6 active torsions:
REMARK  status: ('A' for Active; 'I' for Inactive)
REMARK    1  A    between atoms: N_1  and  C_2
REMARK    2  A    between atoms: C_2  and  C_3
REMARK    3  A    between atoms: C_6  and  S_7
REMARK    4  A    between atoms: S_7  and  C_8
REMARK    5  A    between atoms: C_8  and  C_9
REMARK    6  A    between atoms: C_12  and  C_13
REMARK                            x       y       z     vdW  Elec       q    Type
REMARK                         _______ _______ _______ _____ _____    ______ ____
ROOT
ATOM      1  S   UNL     1      48.797   6.908  14.110  0.00  0.00    +0.000 S 
ENDROOT
BRANCH   1   5
ATOM      2  C   UNL     1      48.407   5.605  18.461  0.00  0.00    +0.000 A 
ATOM      3  C   UNL     1      47.958   4.713  17.491  0.00  0.00    +0.000 A 
ATOM      4  C   UNL     1      48.050   5.063  16.138  0.00  0.00    +0.000 A 
ATOM      5  C   UNL     1      48.584   6.298  15.774  0.00  0.00    +0.000 A 
ATOM      6  C   UNL     1      48.994   7.125  16.820  0.00  0.00    +0.000 A 
ATOM      7  N   UNL     1      48.925   6.813  18.139  0.00  0.00    +0.000 NA
BRANCH   2   8
ATOM      8  C   UNL     1      48.372   5.231  19.929  0.00  0.00    +0.000 C 
BRANCH   8   9
ATOM      9  N   UNL     1      48.524   3.787  20.140  0.00  0.00    +0.000 NA
ATOM     10  H   UNL     1      47.600   3.360  20.125  0.00  0.00    +0.000 HD
ATOM     11  H   UNL     1      48.875   3.650  21.090  0.00  0.00    +0.000 HD
ENDBRANCH   8   9
ENDBRANCH   2   8
ENDBRANCH   1   5
BRANCH   1  12
ATOM     12  C   UNL     1      47.139   7.487  13.627  0.00  0.00    +0.000 C 
BRANCH  12  13
ATOM     13  C   UNL     1      46.423   6.458  12.806  0.00  0.00    +0.000 A 
ATOM     14  C   UNL     1      45.796   5.363  13.362  0.00  0.00    +0.000 A 
ATOM     15  N   UNL     1      45.144   4.423  12.646  0.00  0.00    +0.000 NA
ATOM     16  C   UNL     1      45.125   4.569  11.298  0.00  0.00    +0.000 A 
ATOM     17  N   UNL     1      45.726   5.607  10.661  0.00  0.00    +0.000 NA
ATOM     18  C   UNL     1      46.364   6.515  11.429  0.00  0.00    +0.000 A 
BRANCH  16  19
ATOM     19  C   UNL     1      44.387   3.523  10.449  0.00  0.00    +0.000 C 
ATOM     20  F   UNL     1      45.173   2.476  10.049  0.00  0.00    +0.000 F 
ATOM     21  F   UNL     1      43.333   2.947  11.105  0.00  0.00    +0.000 F 
ATOM     22  F   UNL     1      43.862   4.038   9.295  0.00  0.00    +0.000 F 
ENDBRANCH  16  19
ENDBRANCH  12  13
ENDBRANCH   1  12
TORSDOF 6
ENDMDL
MODEL 9
REMARK VINA RESULT:    -5.179      4.057      7.533
REMARK INTER + INTRA:          -7.295
REMARK INTER:                  -6.951
REMARK INTRA:                  -0.344
REMARK UNBOUND:                -0.451
REMARK  Name = 
REMARK  6 active torsions:
REMARK  status: ('A' for Active; 'I' for Inactive)
REMARK    1  A    between atoms: N_1  and  C_2
REMARK    2  A    between atoms: C_2  and  C_3
REMARK    3  A    between atoms: C_6  and  S_7
REMARK    4  A    between atoms: S_7  and  C_8
REMARK    5  A    between atoms: C_8  and  C_9
REMARK    6  A    between atoms: C_12  and  C_13
REMARK                            x       y       z     vdW  Elec       q    Type
REMARK                         _______ _______ _______ _____ _____    ______ ____
ROOT
ATOM      1  S   UNL     1      46.723   7.888  12.456  0.00  0.00    +0.000 S 
ENDROOT
BRANCH   1   5
ATOM      2  C   UNL     1      49.222   6.814  16.114  0.00  0.00    +0.000 A 
ATOM      3  C   UNL     1      49.029   8.169  15.855  0.00  0.00    +0.000 A 
ATOM      4  C   UNL     1      48.273   8.556  14.741  0.00  0.00    +0.000 A 
ATOM      5  C   UNL     1      47.724   7.588  13.902  0.00  0.00    +0.000 A 
ATOM      6  C   UNL     1      47.984   6.259  14.241  0.00  0.00    +0.000 A 
ATOM      7  N   UNL     1      48.707   5.852  15.315  0.00  0.00    +0.000 NA
BRANCH   2   8
ATOM      8  C   UNL     1      49.988   6.365  17.342  0.00  0.00    +0.000 C 
BRANCH   8   9
ATOM      9  N   UNL     1      49.105   5.836  18.387  0.00  0.00    +0.000 NA
ATOM     10  H   UNL     1      49.098   6.490  19.167  0.00  0.00    +0.000 HD
ATOM     11  H   UNL     1      49.533   4.982  18.748  0.00  0.00    +0.000 HD
ENDBRANCH   8   9
ENDBRANCH   2   8
ENDBRANCH   1   5
BRANCH   1  12
ATOM     12  C   UNL     1      45.239   6.865  12.716  0.00  0.00    +0.000 C 
BRANCH  12  13
ATOM     13  C   UNL     1      45.167   5.749  11.718  0.00  0.00    +0.000 A 
ATOM     14  C   UNL     1      44.643   4.510  12.019  0.00  0.00    +0.000 A 
ATOM     15  N   UNL     1      44.565   3.489  11.140  0.00  0.00    +0.000 NA
ATOM     16  C   UNL     1      45.049   3.705   9.891  0.00  0.00    +0.000 A 
ATOM     17  N   UNL     1      45.595   4.888   9.508  0.00  0.00    +0.000 NA
ATOM     18  C   UNL     1      45.647   5.871  10.430  0.00  0.00    +0.000 A 
BRANCH  16  19
ATOM     19  C   UNL     1      44.973   2.569   8.860  0.00  0.00    +0.000 C 
ATOM     20  F   UNL     1      44.504   2.961   7.635  0.00  0.00    +0.000 F 
ATOM     21  F   UNL     1      46.187   1.990   8.609  0.00  0.00    +0.000 F 
ATOM     22  F   UNL     1      44.152   1.545   9.246  0.00  0.00    +0.000 F 
ENDBRANCH  16  19
ENDBRANCH  12  13
ENDBRANCH   1  12
TORSDOF 6
ENDMDL
